@<TRIPOS>MOLECULE
tmp/5gzvA00.pdb
 157 155 0 0 0
SMALL
GASTEIGER

@<TRIPOS>ATOM
      1  N        -24.5510    4.4780   61.7660 N.3    12  TRP12      -0.1241
      2  CA       -24.0920    5.5320   62.6910 C.3    12  TRP12       0.1605
      3  C        -22.7290    5.2450   63.3310 C.2    12  TRP12       0.2264
      4  O        -22.4270    5.6680   64.4460 O.2    12  TRP12      -0.2867
      5  CB       -25.1630    5.7690   63.7580 C.3    12  TRP12       0.0550
      6  CG       -25.5660    4.5100   64.4570 C.ar   12  TRP12       0.0003
      7  CD1      -24.8440    3.8290   65.3630 C.ar   12  TRP12       0.0946
      8  CD2      -26.7780    3.7630   64.2420 C.ar   12  TRP12       0.0152
      9  NE1      -25.5290    2.7000   65.7540 N.ar   12  TRP12      -0.2442
     10  CE2      -26.7170    2.6320   65.0750 C.ar   12  TRP12       0.0810
     11  CE3      -27.8850    3.9340   63.4120 C.ar   12  TRP12       0.0012
     12  CZ2      -27.7350    1.6760   65.1290 C.ar   12  TRP12       0.0191
     13  CZ3      -28.8950    2.9980   63.4610 C.ar   12  TRP12       0.0001
     14  CH2      -28.8050    1.8650   64.3030 C.ar   12  TRP12       0.0015
     15  N        -29.6270    2.4790   58.5440 N.3    34  PHE34      -0.1241
     16  CA       -30.7400    2.3270   57.6460 C.3    34  PHE34       0.1605
     17  C        -30.8460    3.5700   56.7620 C.2    34  PHE34       0.2264
     18  O        -30.1290    4.5410   56.9630 O.2    34  PHE34      -0.2867
     19  CB       -32.0390    2.3060   58.4340 C.3    34  PHE34       0.0534
     20  CG       -32.1570    1.2090   59.4400 C.ar   34  PHE34      -0.0203
     21  CD1      -32.5740   -0.0430   59.0610 C.ar   34  PHE34      -0.0042
     22  CD2      -31.9450    1.4510   60.7780 C.ar   34  PHE34      -0.0042
     23  CE1      -32.7420   -1.0600   59.9850 C.ar   34  PHE34      -0.0003
     24  CE2      -32.1230    0.4430   61.7120 C.ar   34  PHE34      -0.0003
     25  CZ       -32.5220   -0.8130   61.3140 C.ar   34  PHE34      -0.0000
     26  N        -34.1640    6.0700   55.6610 N.3    36  ARG36      -0.1245
     27  CA       -35.4480    6.4020   56.2820 C.3    36  ARG36       0.1563
     28  C        -36.3460    7.1280   55.2820 C.2    36  ARG36       0.2260
     29  O        -35.9130    7.4730   54.1790 O.2    36  ARG36      -0.2867
     30  CB       -35.2160    7.2720   57.5150 C.3    36  ARG36       0.0307
     31  CG       -34.4490    6.6230   58.6630 C.3    36  ARG36       0.0489
     32  CD       -35.3900    5.8530   59.5730 C.3    36  ARG36       0.2205
     33  NE       -34.6790    4.8900   60.4120 N.pl3  36  ARG36      -0.0865
     34  CZ       -34.4460    5.0040   61.7160 C.cat  36  ARG36       0.5346
     35  NH1      -34.8540    6.0620   62.4010 N.pl3  36  ARG36       0.1354
     36  NH2      -33.7960    4.0260   62.3520 N.pl3  36  ARG36       0.1354
     37  N        -34.6020   10.7830   64.5120 N.3    51  TRP51      -0.1241
     38  CA       -33.3460   10.1080   64.8720 C.3    51  TRP51       0.1605
     39  C        -32.1900   11.0970   65.1330 C.2    51  TRP51       0.2264
     40  O        -31.3100   10.7910   65.9540 O.2    51  TRP51      -0.2867
     41  CB       -32.9560    9.0970   63.7660 C.3    51  TRP51       0.0550
     42  CG       -31.6990    8.3720   64.0440 C.ar   51  TRP51       0.0003
     43  CD1      -31.5730    7.1920   64.7110 C.ar   51  TRP51       0.0946
     44  CD2      -30.3650    8.7870   63.6970 C.ar   51  TRP51       0.0152
     45  NE1      -30.2410    6.8430   64.8130 N.ar   51  TRP51      -0.2442
     46  CE2      -29.4800    7.8070   64.1950 C.ar   51  TRP51       0.0810
     47  CE3      -29.8300    9.8920   63.0120 C.ar   51  TRP51       0.0012
     48  CZ2      -28.0830    7.8920   64.0130 C.ar   51  TRP51       0.0191
     49  CZ3      -28.4170    9.9700   62.8310 C.ar   51  TRP51       0.0001
     50  CH2      -27.5770    8.9880   63.3350 C.ar   51  TRP51       0.0015
     51  N        -24.6470   13.2860   64.4880 N.3    65  ARG65      -0.1245
     52  CA       -25.8200   12.6720   63.8540 C.3    65  ARG65       0.1563
     53  C        -26.2710   13.4320   62.6130 C.2    65  ARG65       0.2260
     54  O        -26.6270   12.8080   61.6250 O.2    65  ARG65      -0.2867
     55  CB       -26.9940   12.4950   64.8490 C.3    65  ARG65       0.0307
     56  CG       -26.7490   11.4290   65.9390 C.3    65  ARG65       0.0489
     57  CD       -28.0450   10.7870   66.4630 C.3    65  ARG65       0.2205
     58  NE       -27.7870    9.5960   67.2870 N.pl3  65  ARG65      -0.0865
     59  CZ       -28.7080    8.7270   67.7410 C.cat  65  ARG65       0.5346
     60  NH1      -30.0140    8.8740   67.4790 N.pl3  65  ARG65       0.1354
     61  NH2      -28.3090    7.6850   68.4790 N.pl3  65  ARG65       0.1354
     62  N        -36.3050    0.3240   60.4010 N.3    95  GLY95      -0.1210
     63  CA       -35.7150    0.1110   61.7210 C.3    95  GLY95       0.1956
     64  C        -36.7810    0.2940   62.7780 C.2    95  GLY95       0.2612
     65  O        -37.9580    0.6560   62.4790 O.2    95  GLY95      -0.2717
     66  N        -36.3810    0.0360   64.0190 N.am   96  TRP96      -0.1962
     67  CA       -37.2510    0.3120   65.1480 C.3    96  TRP96       0.1771
     68  C        -37.4750    1.8210   65.2420 C.2    96  TRP96       0.2619
     69  O        -36.5130    2.6120   65.1490 O.2    96  TRP96      -0.2715
     70  CB       -36.6270   -0.2320   66.4160 C.3    96  TRP96       0.0590
     71  CG       -37.3890   -0.0150   67.6940 C.ar   96  TRP96       0.0006
     72  CD1      -36.9410    0.6460   68.7920 C.ar   96  TRP96       0.0946
     73  CD2      -38.6920   -0.4980   68.0280 C.ar   96  TRP96       0.0152
     74  NE1      -37.8800    0.6100   69.7780 N.ar   96  TRP96      -0.2442
     75  CE2      -38.9620   -0.0900   69.3410 C.ar   96  TRP96       0.0810
     76  CE3      -39.6540   -1.2250   67.3440 C.ar   96  TRP96       0.0012
     77  CZ2      -40.1270   -0.3950   69.9870 C.ar   96  TRP96       0.0191
     78  CZ3      -40.8300   -1.5020   67.9800 C.ar   96  TRP96       0.0001
     79  CH2      -41.0640   -1.0820   69.2930 C.ar   96  TRP96       0.0015
     80  N        -38.7610    2.1840   65.3680 N.am   97  GLU97      -0.1977
     81  CA       -39.2310    3.5560   65.5700 C.3    97  GLU97       0.1602
     82  C        -39.1210    4.4070   64.3250 C.2    97  GLU97       0.2287
     83  O        -39.3130    5.6210   64.4060 O.2    97  GLU97      -0.2864
     84  CB       -38.5020    4.2680   66.7490 C.3    97  GLU97       0.0415
     85  CG       -38.8240    3.7650   68.1640 C.3    97  GLU97       0.1163
     86  CD       -37.8900    4.3430   69.2370 C.2    97  GLU97       0.3649
     87  OE1      -38.4320    4.7910   70.2730 O.co2  97  GLU97      -0.2457
     88  OE2      -36.6270    4.3460   69.0570 O.co2  97  GLU97      -0.2457
     89  N        -26.4820   -8.6870   71.2410 N.3   260  TYR260     -0.1241
     90  CA       -26.7830   -7.9320   72.4380 C.3   260  TYR260      0.1605
     91  C        -27.7730   -8.7150   73.2780 C.2   260  TYR260      0.2264
     92  O        -28.4150   -9.6550   72.8000 O.2   260  TYR260     -0.2867
     93  CB       -27.3870   -6.5850   72.1070 C.3   260  TYR260      0.0534
     94  CG       -28.7780   -6.7380   71.6150 C.ar  260  TYR260     -0.0201
     95  CD1      -29.0050   -7.1680   70.3420 C.ar  260  TYR260     -0.0009
     96  CD2      -29.8620   -6.5240   72.4230 C.ar  260  TYR260     -0.0009
     97  CE1      -30.2780   -7.3600   69.8770 C.ar  260  TYR260      0.0417
     98  CE2      -31.1380   -6.6940   71.9560 C.ar  260  TYR260      0.0417
     99  CZ       -31.3200   -7.1350   70.6860 C.ar  260  TYR260      0.1957
    100  OH       -32.5360   -7.3330   70.1570 O.3   260  TYR260     -0.2866
    101  N        -30.9320   -8.7780   76.4190 N.3   262  ARG262     -0.1245
    102  CA       -32.1260   -8.1450   76.9150 C.3   262  ARG262      0.1563
    103  C        -31.9750   -8.3860   78.4050 C.2   262  ARG262      0.2260
    104  O        -31.6100   -9.5090   78.8110 O.2   262  ARG262     -0.2867
    105  CB       -33.3400   -8.8430   76.3120 C.3   262  ARG262      0.0307
    106  CG       -34.4620   -7.9190   75.9630 C.3   262  ARG262      0.0489
    107  CD       -34.1680   -7.0800   74.7160 C.3   262  ARG262      0.2205
    108  NE       -34.5270   -5.6910   75.0010 N.pl3 262  ARG262     -0.0865
    109  CZ       -34.6990   -4.6870   74.1390 C.cat 262  ARG262      0.5346
    110  NH1      -34.5670   -4.7770   72.8300 N.pl3 262  ARG262      0.1354
    111  NH2      -34.9450   -3.5280   74.6630 N.pl3 262  ARG262      0.1354
    112  N        -30.7230   -2.9640   77.1990 N.3   287  THR287     -0.1218
    113  CA       -29.8260   -3.9050   76.5740 C.3   287  THR287      0.1862
    114  C        -28.4110   -3.7140   77.0490 C.2   287  THR287      0.2287
    115  O        -28.0750   -2.7130   77.6670 O.2   287  THR287     -0.2866
    116  CB       -29.8850   -3.7680   75.0400 C.3   287  THR287      0.1770
    117  OG1      -29.4590   -2.4490   74.6410 O.3   287  THR287     -0.2211
    118  CG2      -31.3230   -4.0620   74.5320 C.3   287  THR287      0.0375
    119  N        -24.7350   -4.5830   74.8830 N.3   289  VAL289     -0.1245
    120  CA       -24.0830   -5.1920   73.7100 C.3   289  VAL289      0.1561
    121  C        -23.0550   -6.3110   74.0340 C.2   289  VAL289      0.2260
    122  O        -22.4700   -6.3530   75.1340 O.2   289  VAL289     -0.2867
    123  CB       -23.3880   -4.1450   72.7470 C.3   289  VAL289      0.0252
    124  CG1      -24.3250   -2.9730   72.4150 C.3   289  VAL289      0.0019
    125  CG2      -22.0340   -3.6760   73.2500 C.3   289  VAL289      0.0019
    126  N        -28.3800   -9.0650   63.9330 N.3   349  TRP349     -0.1227
    127  CA       -28.3740   -7.6470   64.2820 C.3   349  TRP349      0.1737
    128  C        -27.5510   -7.5000   65.6000 C.2   349  TRP349      0.2595
    129  O        -27.8810   -8.1650   66.6170 O.2   349  TRP349     -0.2718
    130  CB       -29.8160   -7.1360   64.4920 C.3   349  TRP349      0.0564
    131  CG       -29.8280   -5.7470   65.0090 C.ar  349  TRP349      0.0003
    132  CD1      -29.6200   -5.3700   66.2900 C.ar  349  TRP349      0.0946
    133  CD2      -29.9830   -4.5510   64.2580 C.ar  349  TRP349      0.0152
    134  NE1      -29.6540   -4.0190   66.3910 N.ar  349  TRP349     -0.2442
    135  CE2      -29.8840   -3.4840   65.1620 C.ar  349  TRP349      0.0810
    136  CE3      -30.2260   -4.2810   62.9190 C.ar  349  TRP349      0.0012
    137  CZ2      -29.9860   -2.1590   64.7790 C.ar  349  TRP349      0.0191
    138  CZ3      -30.3480   -2.9760   62.5220 C.ar  349  TRP349      0.0001
    139  CH2      -30.2230   -1.9120   63.4540 C.ar  349  TRP349      0.0015
    140  N        -26.4710   -6.7110   65.6080 N.am  350  GLU350     -0.1979
    141  CA       -25.7850   -6.2010   64.4180 C.3   350  GLU350      0.1602
    142  C        -24.2610   -6.2830   64.6020 C.2   350  GLU350      0.2287
    143  O        -23.7860   -6.5880   65.6760 O.2   350  GLU350     -0.2864
    144  CB       -26.2650   -4.7940   64.0290 C.3   350  GLU350      0.0415
    145  CG       -26.4230   -3.7810   65.1490 C.3   350  GLU350      0.1163
    146  CD       -25.2590   -2.8320   65.3940 C.2   350  GLU350      0.3649
    147  OE1      -25.5180   -1.7960   66.0790 O.co2 350  GLU350     -0.2457
    148  OE2      -24.1170   -3.1020   64.9560 O.co2 350  GLU350     -0.2457
    149  N        -21.7890   -4.5330   67.4170 N.3   353  GLN353     -0.1245
    150  CA       -21.9710   -5.0230   68.7690 C.3   353  GLN353      0.1566
    151  C        -21.1760   -6.2740   69.0710 C.2   353  GLN353      0.2260
    152  O        -21.1650   -6.6990   70.2340 O.2   353  GLN353     -0.2867
    153  CB       -23.4430   -5.3000   69.0260 C.3   353  GLN353      0.0367
    154  CG       -24.3860   -4.1000   68.8480 C.3   353  GLN353      0.0905
    155  CD       -25.8250   -4.5440   68.8160 C.2   353  GLN353      0.2608
    156  OE1      -26.1050   -5.6720   68.4330 O.2   353  GLN353     -0.2717
    157  NE2      -26.7490   -3.6810   69.2390 N.am  353  GLN353     -0.0878
@<TRIPOS>BOND
     1    29    28    2
     2    28    27    1
     3    26    27    1
     4    27    30    1
     5    17    18    2
     6    17    16    1
     7    30    31    1
     8    16    19    1
     9    16    15    1
    10    19    20    1
    11    31    32    1
    12    21    20   ar
    13    21    23   ar
    14    20    22   ar
    15    32    33    1
    16    23    25   ar
    17    62    63    1
    18    33    34    2
    19    22    24   ar
    20    25    24   ar
    21    54    53    2
    22    34    36    1
    23    34    35    1
    24    63    64    1
    25     1     2    1
    26    65    64    2
    27   138   136   ar
    28   138   139   ar
    29    53    52    1
    30     2     3    1
    31     2     5    1
    32    64    66   am
    33    49    47   ar
    34    49    50   ar
    35   136   133   ar
    36    47    44   ar
    37     3     4    2
    38    50    48   ar
    39    11    13   ar
    40    11     8   ar
    41   139   137   ar
    42    13    14   ar
    43    44    42   ar
    44    44    46   ar
    45     5     6    1
    46    41    42    1
    47    41    38    1
    48    52    51    1
    49    52    55    1
    50   126   127    1
    51    48    46   ar
    52    66    67    1
    53   144   141    1
    54   144   145    1
    55    42    43   ar
    56    46    45   ar
    57     8     6   ar
    58     8    10   ar
    59   133   131   ar
    60   133   135   ar
    61   127   130    1
    62   127   128    1
    63    14    12   ar
    64    82    83    2
    65    82    81    1
    66   141   142    1
    67   141   140    1
    68     6     7   ar
    69   130   131    1
    70    37    38    1
    71   142   143    2
    72    43    45   ar
    73   137   135   ar
    74    55    56    1
    75    38    39    1
    76   148   146   ar
    77   131   132   ar
    78    10    12   ar
    79    10     9   ar
    80    39    40    2
    81    67    68    1
    82    67    70    1
    83    69    68    2
    84   145   146    1
    85   135   134   ar
    86    68    80   am
    87     7     9   ar
    88    80    81    1
    89   146   147   ar
    90    81    84    1
    91   128   140   am
    92   128   129    2
    93    56    57    1
    94   132   134   ar
    95    70    71    1
    96    57    58    1
    97    84    85    1
    98    58    59    2
    99    76    78   ar
   100    76    73   ar
   101   149   150    1
   102    60    59    1
   103    71    73   ar
   104    71    72   ar
   105    59    61    1
   106    78    79   ar
   107    73    75   ar
   108    85    86    1
   109   156   155    2
   110   150   153    1
   111   150   151    1
   112    72    74   ar
   113   155   154    1
   114   155   157   am
   115   154   153    1
   116    88    86   ar
   117   151   152    2
   118    86    87   ar
   119    79    77   ar
   120    75    74   ar
   121    75    77   ar
   122    97    95   ar
   123    97    99   ar
   124   100    99    1
   125    95    94   ar
   126    99    98   ar
   127    89    90    1
   128    94    93    1
   129    94    96   ar
   130    98    96   ar
   131    93    90    1
   132   124   123    1
   133    90    91    1
   134   123   125    1
   135   123   120    1
   136    92    91    2
   137   110   109    1
   138   120   121    1
   139   120   119    1
   140   121   122    2
   141   109   111    1
   142   109   108    2
   143   118   116    1
   144   117   116    1
   145   107   108    1
   146   107   106    1
   147   116   113    1
   148   106   105    1
   149   105   102    1
   150   101   102    1
   151   113   114    1
   152   113   112    1
   153   102   103    1
   154   114   115    2
   155   103   104    2
