@<TRIPOS>MOLECULE
tmp/5gzvA01.pdb
 140 138 0 0 0
SMALL
GASTEIGER

@<TRIPOS>ATOM
      1  N        -26.5170   -7.2220   59.4270 N.3     8  TYR8       -0.1241
      2  CA       -26.8650   -5.8090   59.4460 C.3     8  TYR8        0.1605
      3  C        -25.6700   -5.0590   60.0310 C.2     8  TYR8        0.2264
      4  O        -24.9580   -5.5620   60.9460 O.2     8  TYR8       -0.2867
      5  CB       -28.0790   -5.5210   60.2700 C.3     8  TYR8        0.0534
      6  CG       -29.4010   -5.8960   59.6760 C.ar    8  TYR8       -0.0201
      7  CD1      -30.1390   -4.9700   58.9680 C.ar    8  TYR8       -0.0009
      8  CD2      -29.9740   -7.1690   59.8940 C.ar    8  TYR8       -0.0009
      9  CE1      -31.4020   -5.2900   58.4250 C.ar    8  TYR8        0.0417
     10  CE2      -31.2220   -7.4960   59.3690 C.ar    8  TYR8        0.0417
     11  CZ       -31.9470   -6.5390   58.6380 C.ar    8  TYR8        0.1957
     12  OH       -33.2220   -6.8230   58.1390 O.3     8  TYR8       -0.2866
     13  N        -29.6270    2.4790   58.5440 N.3    34  PHE34      -0.1241
     14  CA       -30.7400    2.3270   57.6460 C.3    34  PHE34       0.1605
     15  C        -30.8460    3.5700   56.7620 C.2    34  PHE34       0.2264
     16  O        -30.1290    4.5410   56.9630 O.2    34  PHE34      -0.2867
     17  CB       -32.0390    2.3060   58.4340 C.3    34  PHE34       0.0534
     18  CG       -32.1570    1.2090   59.4400 C.ar   34  PHE34      -0.0203
     19  CD1      -32.5740   -0.0430   59.0610 C.ar   34  PHE34      -0.0042
     20  CD2      -31.9450    1.4510   60.7780 C.ar   34  PHE34      -0.0042
     21  CE1      -32.7420   -1.0600   59.9850 C.ar   34  PHE34      -0.0003
     22  CE2      -32.1230    0.4430   61.7120 C.ar   34  PHE34      -0.0003
     23  CZ       -32.5220   -0.8130   61.3140 C.ar   34  PHE34      -0.0000
     24  N        -36.3050    0.3240   60.4010 N.3    95  GLY95      -0.1210
     25  CA       -35.7150    0.1110   61.7210 C.3    95  GLY95       0.1956
     26  C        -36.7810    0.2940   62.7780 C.2    95  GLY95       0.2611
     27  O        -37.9580    0.6560   62.4790 O.2    95  GLY95      -0.2717
     28  N        -36.3810    0.0360   64.0190 N.am   96  TRP96      -0.1976
     29  CA       -37.2510    0.3120   65.1480 C.3    96  TRP96       0.1640
     30  C        -37.4750    1.8210   65.2420 C.2    96  TRP96       0.2290
     31  O        -36.5130    2.6120   65.1490 O.2    96  TRP96      -0.2864
     32  CB       -36.6270   -0.2320   66.4160 C.3    96  TRP96       0.0576
     33  CG       -37.3890   -0.0150   67.6940 C.ar   96  TRP96       0.0006
     34  CD1      -36.9410    0.6460   68.7920 C.ar   96  TRP96       0.0946
     35  CD2      -38.6920   -0.4980   68.0280 C.ar   96  TRP96       0.0152
     36  NE1      -37.8800    0.6100   69.7780 N.ar   96  TRP96      -0.2442
     37  CE2      -38.9620   -0.0900   69.3410 C.ar   96  TRP96       0.0810
     38  CE3      -39.6540   -1.2250   67.3440 C.ar   96  TRP96       0.0012
     39  CZ2      -40.1270   -0.3950   69.9870 C.ar   96  TRP96       0.0191
     40  CZ3      -40.8300   -1.5020   67.9800 C.ar   96  TRP96       0.0001
     41  CH2      -41.0640   -1.0820   69.2930 C.ar   96  TRP96       0.0015
     42  N        -37.6600   -2.9020   56.3950 N.3   133  ASP133     -0.1239
     43  CA       -37.8000   -3.1300   57.8460 C.3   133  ASP133      0.1674
     44  C        -38.8770   -2.2450   58.4880 C.2   133  ASP133      0.2266
     45  O        -38.5830   -1.3620   59.2870 O.2   133  ASP133     -0.2867
     46  CB       -36.4440   -2.8980   58.5360 C.3   133  ASP133      0.1410
     47  CG       -36.4240   -3.3490   59.9700 C.2   133  ASP133      0.3668
     48  OD1      -37.2780   -4.1710   60.3240 O.co2 133  ASP133     -0.2456
     49  OD2      -35.5430   -2.8970   60.7280 O.co2 133  ASP133     -0.2456
     50  N        -41.5650   -1.7800   61.1260 N.3   135  GLU135     -0.1231
     51  CA       -41.8560   -2.3060   62.4690 C.3   135  GLU135      0.1699
     52  C        -42.9230   -1.4880   63.1400 C.2   135  GLU135      0.2592
     53  O        -42.5820   -0.4740   63.7640 O.2   135  GLU135     -0.2718
     54  CB       -40.6070   -2.2920   63.3250 C.3   135  GLU135      0.0402
     55  CG       -39.4500   -2.9540   62.6070 C.3   135  GLU135      0.1161
     56  CD       -38.3200   -3.3430   63.5040 C.2   135  GLU135      0.3649
     57  OE1      -38.4810   -3.2150   64.7320 O.co2 135  GLU135     -0.2457
     58  OE2      -37.2740   -3.7800   62.9660 O.co2 135  GLU135     -0.2457
     59  N        -44.2010   -1.8660   63.0170 N.am  136  TYR136     -0.1976
     60  CA       -44.7110   -3.0070   62.2660 C.3   136  TYR136      0.1639
     61  C        -46.0350   -2.5620   61.6500 C.2   136  TYR136      0.2290
     62  O        -46.6740   -1.7170   62.2370 O.2   136  TYR136     -0.2864
     63  CB       -44.9790   -4.2160   63.2140 C.3   136  TYR136      0.0560
     64  CG       -43.7630   -4.7980   63.9090 C.ar  136  TYR136     -0.0198
     65  CD1      -42.8350   -5.5470   63.2110 C.ar  136  TYR136     -0.0009
     66  CD2      -43.5420   -4.6000   65.2780 C.ar  136  TYR136     -0.0009
     67  CE1      -41.7190   -6.0600   63.8420 C.ar  136  TYR136      0.0417
     68  CE2      -42.4240   -5.1150   65.9150 C.ar  136  TYR136      0.0417
     69  CZ       -41.5210   -5.8360   65.1820 C.ar  136  TYR136      0.1957
     70  OH       -40.4170   -6.3380   65.7890 O.3   136  TYR136     -0.2866
     71  N        -37.3940   -7.6930   56.8210 N.3   182  ALA182     -0.1245
     72  CA       -37.3630   -8.2290   58.1820 C.3   182  ALA182      0.1562
     73  C        -38.8020   -8.2990   58.7020 C.2   182  ALA182      0.2260
     74  O        -39.6010   -7.3480   58.5900 O.2   182  ALA182     -0.2867
     75  CB       -36.4530   -7.4460   59.0930 C.3   182  ALA182      0.0290
     76  N        -36.9600  -11.8580   62.5250 N.3   208  MET208     -0.1245
     77  CA       -36.4050  -11.2090   63.7600 C.3   208  MET208      0.1570
     78  C        -36.7230  -11.9710   65.0560 C.2   208  MET208      0.2261
     79  O        -37.5340  -11.5210   65.8700 O.2   208  MET208     -0.2867
     80  CB       -36.8830   -9.7620   63.8390 C.3   208  MET208      0.0387
     81  CG       -36.2590   -8.9450   62.7490 C.3   208  MET208      0.0595
     82  SD       -36.6950   -7.2470   62.9630 S.3   208  MET208     -0.1393
     83  CE       -38.4160   -7.2630   62.4380 C.3   208  MET208      0.0692
     84  N        -35.6740  -12.3170   67.9260 N.3   210  TYR210     -0.1227
     85  CA       -35.0840  -11.7050   69.1180 C.3   210  TYR210      0.1736
     86  C        -36.0050  -10.6110   69.5670 C.2   210  TYR210      0.2595
     87  O        -36.9450  -10.2310   68.8610 O.2   210  TYR210     -0.2718
     88  CB       -33.6770  -11.1950   68.8650 C.3   210  TYR210      0.0548
     89  CG       -33.4500  -10.5500   67.5270 C.ar  210  TYR210     -0.0200
     90  CD1      -33.7600   -9.2220   67.3360 C.ar  210  TYR210     -0.0009
     91  CD2      -32.8860  -11.2610   66.4570 C.ar  210  TYR210     -0.0009
     92  CE1      -33.5250   -8.5810   66.1580 C.ar  210  TYR210      0.0417
     93  CE2      -32.6530  -10.6140   65.2350 C.ar  210  TYR210      0.0417
     94  CZ       -32.9870   -9.2670   65.1040 C.ar  210  TYR210      0.1957
     95  OH       -32.7920   -8.5780   63.9440 O.3   210  TYR210     -0.2866
     96  N        -35.7360  -10.1120   70.7540 N.am  211  ASP211     -0.1974
     97  CA       -36.6720   -9.3200   71.5170 C.3   211  ASP211      0.1709
     98  C        -37.9410  -10.0840   71.6970 C.2   211  ASP211      0.2293
     99  O        -38.9970   -9.4960   71.6470 O.2   211  ASP211     -0.2864
    100  CB       -36.9480   -7.9860   70.8150 C.3   211  ASP211      0.1436
    101  CG       -35.7150   -7.1590   70.6710 C.2   211  ASP211      0.3671
    102  OD1      -34.8460   -7.2870   71.5470 O.co2 211  ASP211     -0.2456
    103  OD2      -35.6060   -6.4010   69.7000 O.co2 211  ASP211     -0.2456
    104  N        -26.4820   -8.6870   71.2410 N.3   260  TYR260     -0.1241
    105  CA       -26.7830   -7.9320   72.4380 C.3   260  TYR260      0.1605
    106  C        -27.7730   -8.7150   73.2780 C.2   260  TYR260      0.2264
    107  O        -28.4150   -9.6550   72.8000 O.2   260  TYR260     -0.2867
    108  CB       -27.3870   -6.5850   72.1070 C.3   260  TYR260      0.0534
    109  CG       -28.7780   -6.7380   71.6150 C.ar  260  TYR260     -0.0201
    110  CD1      -29.0050   -7.1680   70.3420 C.ar  260  TYR260     -0.0009
    111  CD2      -29.8620   -6.5240   72.4230 C.ar  260  TYR260     -0.0009
    112  CE1      -30.2780   -7.3600   69.8770 C.ar  260  TYR260      0.0417
    113  CE2      -31.1380   -6.6940   71.9560 C.ar  260  TYR260      0.0417
    114  CZ       -31.3200   -7.1350   70.6860 C.ar  260  TYR260      0.1957
    115  OH       -32.5360   -7.3330   70.1570 O.3   260  TYR260     -0.2866
    116  N        -30.9320   -8.7780   76.4190 N.3   262  ARG262     -0.1245
    117  CA       -32.1260   -8.1450   76.9150 C.3   262  ARG262      0.1563
    118  C        -31.9750   -8.3860   78.4050 C.2   262  ARG262      0.2260
    119  O        -31.6100   -9.5090   78.8110 O.2   262  ARG262     -0.2867
    120  CB       -33.3400   -8.8430   76.3120 C.3   262  ARG262      0.0307
    121  CG       -34.4620   -7.9190   75.9630 C.3   262  ARG262      0.0489
    122  CD       -34.1680   -7.0800   74.7160 C.3   262  ARG262      0.2205
    123  NE       -34.5270   -5.6910   75.0010 N.pl3 262  ARG262     -0.0865
    124  CZ       -34.6990   -4.6870   74.1390 C.cat 262  ARG262      0.5346
    125  NH1      -34.5670   -4.7770   72.8300 N.pl3 262  ARG262      0.1354
    126  NH2      -34.9450   -3.5280   74.6630 N.pl3 262  ARG262      0.1354
    127  N        -28.3800   -9.0650   63.9330 N.3   349  TRP349     -0.1241
    128  CA       -28.3740   -7.6470   64.2820 C.3   349  TRP349      0.1605
    129  C        -27.5510   -7.5000   65.6000 C.2   349  TRP349      0.2264
    130  O        -27.8810   -8.1650   66.6170 O.2   349  TRP349     -0.2867
    131  CB       -29.8160   -7.1360   64.4920 C.3   349  TRP349      0.0550
    132  CG       -29.8280   -5.7470   65.0090 C.ar  349  TRP349      0.0003
    133  CD1      -29.6200   -5.3700   66.2900 C.ar  349  TRP349      0.0946
    134  CD2      -29.9830   -4.5510   64.2580 C.ar  349  TRP349      0.0152
    135  NE1      -29.6540   -4.0190   66.3910 N.ar  349  TRP349     -0.2442
    136  CE2      -29.8840   -3.4840   65.1620 C.ar  349  TRP349      0.0810
    137  CE3      -30.2260   -4.2810   62.9190 C.ar  349  TRP349      0.0012
    138  CZ2      -29.9860   -2.1590   64.7790 C.ar  349  TRP349      0.0191
    139  CZ3      -30.3480   -2.9760   62.5220 C.ar  349  TRP349      0.0001
    140  CH2      -30.2230   -1.9120   63.4540 C.ar  349  TRP349      0.0015
@<TRIPOS>BOND
     1    42    43    1
     2    15    16    2
     3    15    14    1
     4    71    72    1
     5    14    17    1
     6    14    13    1
     7    43    44    1
     8    43    46    1
     9    12    11    1
    10    72    73    1
    11    72    75    1
    12     9    11   ar
    13     9     7   ar
    14    17    18    1
    15    44    45    2
    16    46    47    1
    17    74    73    2
    18    11    10   ar
    19     7     6   ar
    20    19    18   ar
    21    19    21   ar
    22    10     8   ar
    23     1     2    1
    24    18    20   ar
    25     2     3    1
    26     2     5    1
    27     6     8   ar
    28     6     5    1
    29    47    48   ar
    30    47    49   ar
    31    21    23   ar
    32     3     4    2
    33    24    25    1
    34    20    22   ar
    35    50    51    1
    36    23    22   ar
    37    61    62    2
    38    61    60    1
    39    25    26    1
    40    60    59    1
    41    60    63    1
    42    83    82    1
    43    51    52    1
    44    51    54    1
    45    27    26    2
    46   139   137   ar
    47   139   140   ar
    48    76    77    1
    49    55    54    1
    50    55    56    1
    51    81    82    1
    52    81    80    1
    53    26    28   am
    54   137   134   ar
    55    58    56   ar
    56    59    52   am
    57    52    53    2
    58    65    67   ar
    59    65    64   ar
    60    63    64    1
    61   140   138   ar
    62    56    57   ar
    63    77    80    1
    64    77    78    1
    65    67    69   ar
    66    64    66   ar
    67   127   128    1
    68    95    94    1
    69    28    29    1
    70   134   132   ar
    71   134   136   ar
    72   128   131    1
    73   128   129    1
    74   131   132    1
    75   138   136   ar
    76   132   133   ar
    77    78    79    2
    78    94    93   ar
    79    94    92   ar
    80    29    30    1
    81    29    32    1
    82    31    30    2
    83   136   135   ar
    84    69    70    1
    85    69    68   ar
    86    93    91   ar
    87    66    68   ar
    88   129   130    2
    89    92    90   ar
    90   133   135   ar
    91    32    33    1
    92    91    89   ar
    93    90    89   ar
    94    38    40   ar
    95    38    35   ar
    96    89    88    1
    97    33    35   ar
    98    33    34   ar
    99    84    85    1
   100    40    41   ar
   101    35    37   ar
   102    34    36   ar
   103    87    86    2
   104    88    85    1
   105    85    86    1
   106    41    39   ar
   107    37    36   ar
   108    37    39   ar
   109    86    96   am
   110   103   101   ar
   111   112   110   ar
   112   112   114   ar
   113   115   114    1
   114   110   109   ar
   115   101   100    1
   116   101   102   ar
   117   114   113   ar
   118    96    97    1
   119   100    97    1
   120   104   105    1
   121    97    98    1
   122   109   108    1
   123   109   111   ar
   124    99    98    2
   125   113   111   ar
   126   108   105    1
   127   105   106    1
   128   107   106    2
   129   125   124    1
   130   124   126    1
   131   124   123    2
   132   122   123    1
   133   122   121    1
   134   121   120    1
   135   120   117    1
   136   116   117    1
   137   117   118    1
   138   118   119    2
