@<TRIPOS>MOLECULE
tmp/5h02A02.pdb
 101 99 0 0 0
SMALL
GASTEIGER

@<TRIPOS>ATOM
      1  N         48.7680   41.5100  164.1820 N.3    19  PHE19      -0.1227
      2  CA        49.9680   40.7150  163.9550 C.3    19  PHE19       0.1736
      3  C         51.1600   41.5880  163.5890 C.2    19  PHE19       0.2595
      4  O         52.2470   41.4490  164.1680 O.2    19  PHE19      -0.2718
      5  CB        49.7210   39.6890  162.8500 C.3    19  PHE19       0.0547
      6  CG        50.9780   39.0040  162.3740 C.ar   19  PHE19      -0.0202
      7  CD1       51.4960   39.2810  161.1170 C.ar   19  PHE19      -0.0042
      8  CD2       51.6320   38.0820  163.1830 C.ar   19  PHE19      -0.0042
      9  CE1       52.6570   38.6460  160.6630 C.ar   19  PHE19      -0.0003
     10  CE2       52.7970   37.4470  162.7360 C.ar   19  PHE19      -0.0003
     11  CZ        53.2980   37.7260  161.4840 C.ar   19  PHE19      -0.0000
     12  N         50.9940   42.4680  162.5970 N.am   20  VAL20      -0.1980
     13  CA        52.1440   43.2910  162.2120 C.3    20  VAL20       0.1595
     14  C         52.5200   44.2430  163.3390 C.2    20  VAL20       0.2287
     15  O         53.7090   44.5430  163.5260 O.2    20  VAL20      -0.2864
     16  CB        51.8970   44.0470  160.8910 C.3    20  VAL20       0.0276
     17  CG1       51.5560   43.0750  159.7640 C.3    20  VAL20       0.0022
     18  CG2       50.8280   45.1170  161.0520 C.3    20  VAL20       0.0022
     19  N         54.6370   42.0900  165.7830 N.3    23  TRP23      -0.1241
     20  CA        55.9830   41.9250  165.2440 C.3    23  TRP23       0.1605
     21  C         56.8090   43.1900  165.4680 C.2    23  TRP23       0.2264
     22  O         57.9380   43.1310  165.9680 O.2    23  TRP23      -0.2867
     23  CB        55.9070   41.5700  163.7510 C.3    23  TRP23       0.0550
     24  CG        57.1700   40.9720  163.1680 C.ar   23  TRP23       0.0003
     25  CD1       58.3450   41.6270  162.8850 C.ar   23  TRP23       0.0946
     26  CD2       57.3830   39.6010  162.7980 C.ar   23  TRP23       0.0152
     27  NE1       59.2660   40.7480  162.3700 N.ar   23  TRP23      -0.2442
     28  CE2       58.7070   39.4990  162.3100 C.ar   23  TRP23       0.0810
     29  CE3       56.5900   38.4560  162.8340 C.ar   23  TRP23       0.0012
     30  CZ2       59.2490   38.2960  161.8590 C.ar   23  TRP23       0.0191
     31  CZ3       57.1320   37.2570  162.3780 C.ar   23  TRP23       0.0001
     32  CH2       58.4490   37.1900  161.9050 C.ar   23  TRP23       0.0015
     33  N         66.4560   43.6960  162.6850 N.3    32  ARG32      -0.1245
     34  CA        65.9920   43.0510  161.4710 C.3    32  ARG32       0.1563
     35  C         66.9050   43.3730  160.2920 C.2    32  ARG32       0.2260
     36  O         67.2380   42.4900  159.4910 O.2    32  ARG32      -0.2867
     37  CB        64.5640   43.5090  161.2020 C.3    32  ARG32       0.0307
     38  CG        63.8250   42.7310  160.1880 C.3    32  ARG32       0.0489
     39  CD        62.3720   43.0910  160.3130 C.3    32  ARG32       0.2205
     40  NE        61.6690   42.9080  159.0580 N.pl3  32  ARG32      -0.0865
     41  CZ        60.4250   43.3110  158.8590 C.cat  32  ARG32       0.5346
     42  NH1       59.7690   43.9190  159.8470 N.pl3  32  ARG32       0.1354
     43  NH2       59.8540   43.1170  157.6770 N.pl3  32  ARG32       0.1354
     44  N         58.8910   40.4280  152.1690 N.3   122  GLY122     -0.1210
     45  CA        58.2620   39.9970  153.4060 C.3   122  GLY122      0.1956
     46  C         57.2480   38.8860  153.2340 C.2   122  GLY122      0.2611
     47  O         56.3630   38.7310  154.0860 O.2   122  GLY122     -0.2717
     48  N         57.3560   38.1040  152.1580 N.am  123  ASN123     -0.1974
     49  CA        56.4310   37.0040  151.8730 C.3   123  ASN123      0.1688
     50  C         55.0060   37.5280  151.7170 C.2   123  ASN123      0.2292
     51  O         54.0780   37.0590  152.3710 O.2   123  ASN123     -0.2864
     52  CB        56.4920   35.9280  152.9660 C.3   123  ASN123      0.1181
     53  CG        55.8630   34.6260  152.5320 C.2   123  ASN123      0.2629
     54  OD1       55.9500   34.2510  151.3670 O.2   123  ASN123     -0.2716
     55  ND2       55.2420   33.9180  153.4700 N.am  123  ASN123     -0.0877
     56  N         58.3960   32.5510  151.3460 N.3   156  ARG156     -0.1245
     57  CA        58.8900   31.4320  152.1280 C.3   156  ARG156      0.1563
     58  C         59.1500   30.2240  151.2320 C.2   156  ARG156      0.2260
     59  O         58.6020   30.0900  150.1280 O.2   156  ARG156     -0.2867
     60  CB        57.9020   31.0560  153.2330 C.3   156  ARG156      0.0307
     61  CG        57.9780   31.9940  154.4100 C.3   156  ARG156      0.0489
     62  CD        57.0880   31.5570  155.5910 C.3   156  ARG156      0.2205
     63  NE        57.2110   32.5710  156.6280 N.pl3 156  ARG156     -0.0865
     64  CZ        58.2070   32.6190  157.5000 C.cat 156  ARG156      0.5346
     65  NH1       59.1360   31.6650  157.5050 N.pl3 156  ARG156      0.1354
     66  NH2       58.2580   33.6020  158.3910 N.pl3 156  ARG156      0.1354
     67  N         62.7530   33.9220  164.5300 N.3   174  TYR174     -0.1241
     68  CA        63.2420   35.1790  163.9700 C.3   174  TYR174      0.1605
     69  C         63.5200   36.1560  165.0960 C.2   174  TYR174      0.2264
     70  O         62.8150   36.1680  166.1070 O.2   174  TYR174     -0.2867
     71  CB        62.2390   35.7840  162.9680 C.3   174  TYR174      0.0534
     72  CG        62.0290   34.8260  161.8380 C.ar  174  TYR174     -0.0201
     73  CD1       62.8520   34.8640  160.7260 C.ar  174  TYR174     -0.0009
     74  CD2       61.0760   33.8140  161.9240 C.ar  174  TYR174     -0.0009
     75  CE1       62.7060   33.9450  159.7090 C.ar  174  TYR174      0.0417
     76  CE2       60.9220   32.9010  160.9110 C.ar  174  TYR174      0.0417
     77  CZ        61.7540   32.9720  159.8080 C.ar  174  TYR174      0.1957
     78  OH        61.6220   32.0420  158.8010 O.3   174  TYR174     -0.2866
     79  N         52.2540   31.6340  164.5410 N.3   195  TYR195     -0.1241
     80  CA        53.2780   32.5890  164.9690 C.3   195  TYR195      0.1605
     81  C         53.1330   32.7790  166.4660 C.2   195  TYR195      0.2264
     82  O         52.0970   33.2730  166.9210 O.2   195  TYR195     -0.2867
     83  CB        53.0960   33.9380  164.2790 C.3   195  TYR195      0.0534
     84  CG        53.3150   33.9110  162.7960 C.ar  195  TYR195     -0.0201
     85  CD1       52.3140   33.4830  161.9310 C.ar  195  TYR195     -0.0009
     86  CD2       54.5160   34.3210  162.2600 C.ar  195  TYR195     -0.0009
     87  CE1       52.5180   33.4590  160.5690 C.ar  195  TYR195      0.0417
     88  CE2       54.7310   34.2960  160.8900 C.ar  195  TYR195      0.0417
     89  CZ        53.7230   33.8610  160.0560 C.ar  195  TYR195      0.1957
     90  OH        53.9450   33.8410  158.6930 O.3   195  TYR195     -0.2866
     91  N         63.6010   31.2630  153.0810 N.3   244  PHE244     -0.1241
     92  CA        62.9950   32.1280  152.0720 C.3   244  PHE244      0.1605
     93  C         63.7110   31.9570  150.7360 C.2   244  PHE244      0.2264
     94  O         64.8530   31.5000  150.6740 O.2   244  PHE244     -0.2867
     95  CB        63.0770   33.6080  152.4610 C.3   244  PHE244      0.0534
     96  CG        62.0400   34.0610  153.4580 C.ar  244  PHE244     -0.0203
     97  CD1       61.0140   34.9040  153.0690 C.ar  244  PHE244     -0.0042
     98  CD2       62.1450   33.7140  154.8000 C.ar  244  PHE244     -0.0042
     99  CE1       60.0720   35.3630  153.9940 C.ar  244  PHE244     -0.0003
    100  CE2       61.2100   34.1640  155.7270 C.ar  244  PHE244     -0.0003
    101  CZ        60.1780   34.9860  155.3290 C.ar  244  PHE244     -0.0000
@<TRIPOS>BOND
     1    59    58    2
     2    94    93    2
     3    93    92    1
     4    58    57    1
     5    56    57    1
     6    54    53    2
     7    50    49    1
     8    50    51    2
     9    49    48    1
    10    49    52    1
    11    92    95    1
    12    92    91    1
    13    57    60    1
    14    48    46   am
    15    44    45    1
    16    95    96    1
    17    53    52    1
    18    53    55   am
    19    97    96   ar
    20    97    99   ar
    21    60    61    1
    22    46    45    1
    23    46    47    2
    24    96    98   ar
    25    99   101   ar
    26    61    62    1
    27    98   100   ar
    28   101   100   ar
    29    62    63    1
    30    63    64    2
    31    64    65    1
    32    64    66    1
    33    43    41    1
    34    90    89    1
    35    78    77    1
    36    41    40    2
    37    41    42    1
    38    40    39    1
    39    36    35    2
    40    75    77   ar
    41    75    73   ar
    42    17    16    1
    43    77    76   ar
    44    89    87   ar
    45    89    88   ar
    46    38    39    1
    47    38    37    1
    48    35    34    1
    49    87    85   ar
    50     9     7   ar
    51     9    11   ar
    52    73    72   ar
    53    88    86   ar
    54    16    18    1
    55    16    13    1
    56    76    74   ar
    57     7     6   ar
    58    37    34    1
    59    34    33    1
    60    11    10   ar
    61    72    74   ar
    62    72    71    1
    63    30    32   ar
    64    30    28   ar
    65    32    31   ar
    66    85    84   ar
    67    13    12    1
    68    13    14    1
    69    86    84   ar
    70    28    27   ar
    71    28    26   ar
    72    27    25   ar
    73     6     5    1
    74     6     8   ar
    75    31    29   ar
    76    12     3   am
    77    10     8   ar
    78    84    83    1
    79    26    29   ar
    80    26    24   ar
    81     5     2    1
    82    25    24   ar
    83    71    68    1
    84    24    23    1
    85    14    15    2
    86     3     2    1
    87     3     4    2
    88    23    20    1
    89     2     1    1
    90    68    67    1
    91    68    69    1
    92    83    80    1
    93    79    80    1
    94    80    81    1
    95    69    70    2
    96    20    21    1
    97    20    19    1
    98    21    22    2
    99    81    82    2
