@<TRIPOS>MOLECULE
tmp/5h02A00.pdb
 201 194 0 0 0
SMALL
GASTEIGER

@<TRIPOS>ATOM
      1  N         41.0820   45.6360  152.4570 N.3    11  TYR11      -0.1227
      2  CA        42.4950   45.3260  152.3000 C.3    11  TYR11       0.1736
      3  C         43.2180   44.9800  153.5930 C.2    11  TYR11       0.2596
      4  O         44.3800   44.5600  153.5310 O.2    11  TYR11      -0.2718
      5  CB        43.2220   46.4980  151.6250 C.3    11  TYR11       0.0548
      6  CG        42.5870   46.9020  150.2970 C.ar   11  TYR11      -0.0200
      7  CD1       42.7060   46.0790  149.1950 C.ar   11  TYR11      -0.0009
      8  CD2       41.8710   48.0810  150.2100 C.ar   11  TYR11      -0.0009
      9  CE1       42.1040   46.4290  148.0020 C.ar   11  TYR11       0.0417
     10  CE2       41.2640   48.4370  149.0090 C.ar   11  TYR11       0.0417
     11  CZ        41.3920   47.6040  147.9180 C.ar   11  TYR11       0.1957
     12  OH        40.7960   47.9370  146.7110 O.3    11  TYR11      -0.2866
     13  N         42.5870   45.1490  154.7530 N.am   12  THR12      -0.1953
     14  CA        43.1740   44.7090  156.0120 C.3    12  THR12       0.1897
     15  C         42.0630   44.4720  157.0220 C.2    12  THR12       0.2313
     16  O         40.9330   44.9430  156.8610 O.2    12  THR12      -0.2863
     17  CB        44.1820   45.7200  156.5740 C.3    12  THR12       0.1794
     18  OG1       44.8940   45.1210  157.6630 O.3    12  THR12      -0.2208
     19  CG2       43.5010   46.9960  157.0500 C.3    12  THR12       0.0378
     20  N         45.1650   40.8060  161.1940 N.3    16  VAL16      -0.1245
     21  CA        46.4560   40.9840  160.5340 C.3    16  VAL16       0.1561
     22  C         47.1390   42.2600  161.0170 C.2    16  VAL16       0.2260
     23  O         48.3630   42.2940  161.1930 O.2    16  VAL16      -0.2867
     24  CB        46.2820   40.9760  159.0040 C.3    16  VAL16       0.0252
     25  CG1       47.5590   41.4400  158.3190 C.3    16  VAL16       0.0019
     26  CG2       45.8950   39.5730  158.5270 C.3    16  VAL16       0.0019
     27  N         50.9940   42.4680  162.5970 N.3    20  VAL20      -0.1245
     28  CA        52.1440   43.2910  162.2120 C.3    20  VAL20       0.1561
     29  C         52.5200   44.2430  163.3390 C.2    20  VAL20       0.2260
     30  O         53.7090   44.5430  163.5260 O.2    20  VAL20      -0.2867
     31  CB        51.8970   44.0470  160.8910 C.3    20  VAL20       0.0252
     32  CG1       51.5560   43.0750  159.7640 C.3    20  VAL20       0.0019
     33  CG2       50.8280   45.1170  161.0520 C.3    20  VAL20       0.0019
     34  N         66.4560   43.6960  162.6850 N.3    32  ARG32      -0.1245
     35  CA        65.9920   43.0510  161.4710 C.3    32  ARG32       0.1563
     36  C         66.9050   43.3730  160.2920 C.2    32  ARG32       0.2260
     37  O         67.2380   42.4900  159.4910 O.2    32  ARG32      -0.2867
     38  CB        64.5640   43.5090  161.2020 C.3    32  ARG32       0.0307
     39  CG        63.8250   42.7310  160.1880 C.3    32  ARG32       0.0489
     40  CD        62.3720   43.0910  160.3130 C.3    32  ARG32       0.2205
     41  NE        61.6690   42.9080  159.0580 N.pl3  32  ARG32      -0.0865
     42  CZ        60.4250   43.3110  158.8590 C.cat  32  ARG32       0.5346
     43  NH1       59.7690   43.9190  159.8470 N.pl3  32  ARG32       0.1354
     44  NH2       59.8540   43.1170  157.6770 N.pl3  32  ARG32       0.1354
     45  N         57.6650   50.2350  146.1770 N.3    54  ASP54      -0.1225
     46  CA        57.3610   49.1900  147.1500 C.3    54  ASP54       0.1805
     47  C         55.8680   48.9040  147.0350 C.2    54  ASP54       0.2598
     48  O         55.0430   49.7750  147.3230 O.2    54  ASP54      -0.2718
     49  CB        57.7430   49.6630  148.5530 C.3    54  ASP54       0.1424
     50  CG        57.5700   48.6030  149.6180 C.2    54  ASP54       0.3668
     51  OD1       56.9830   47.5270  149.3500 O.co2  54  ASP54      -0.2456
     52  OD2       58.0290   48.8710  150.7570 O.co2  54  ASP54      -0.2456
     53  N         55.5080   47.7030  146.5730 N.am   55  VAL55      -0.1966
     54  CA        54.0890   47.3940  146.4050 C.3    55  VAL55       0.1727
     55  C         53.5020   46.7150  147.6330 C.2    55  VAL55       0.2616
     56  O         52.2880   46.4760  147.6820 O.2    55  VAL55      -0.2715
     57  CB        53.8400   46.5400  145.1480 C.3    55  VAL55       0.0290
     58  CG1       54.3140   47.2950  143.8990 C.3    55  VAL55       0.0023
     59  CG2       54.5110   45.1900  145.2640 C.3    55  VAL55       0.0023
     60  N         54.3230   46.4100  148.6360 N.am   56  ALA56      -0.1963
     61  CA        53.8750   45.7100  149.8360 C.3    56  ALA56       0.1728
     62  C         54.4510   46.4120  151.0690 C.2    56  ALA56       0.2617
     63  O         55.1620   45.8150  151.8780 O.2    56  ALA56      -0.2715
     64  CB        54.2930   44.2450  149.7980 C.3    56  ALA56       0.0334
     65  N         54.1170   47.6970  151.2120 N.am   57  THR57      -0.1937
     66  CA        54.8050   48.5420  152.1860 C.3    57  THR57       0.2028
     67  C         54.5960   48.0400  153.6170 C.2    57  THR57       0.2643
     68  O         55.5380   48.0360  154.4240 O.2    57  THR57      -0.2714
     69  CB        54.3460   49.9980  152.0230 C.3    57  THR57       0.1808
     70  OG1       54.7770   50.5000  150.7420 O.3    57  THR57      -0.2208
     71  CG2       54.9640   50.8920  153.1000 C.3    57  THR57       0.0379
     72  N         53.3860   47.5910  153.9450 N.am   58  GLY58      -0.1939
     73  CA        53.1040   47.1600  155.3150 C.3    58  GLY58       0.2014
     74  C         53.3880   48.2980  156.2770 C.2    58  GLY58       0.2639
     75  O         53.0920   49.4630  155.9920 O.2    58  GLY58      -0.2714
     76  N         54.0260   47.9800  157.4110 N.am   59  THR59      -0.1950
     77  CA        54.3830   49.0680  158.3220 C.3    59  THR59       0.1897
     78  C         55.6490   49.8080  157.9020 C.2    59  THR59       0.2313
     79  O         56.0950   50.6960  158.6360 O.2    59  THR59      -0.2863
     80  CB        54.5280   48.5450  159.7600 C.3    59  THR59       0.1794
     81  OG1       55.5840   47.5780  159.8380 O.3    59  THR59      -0.2208
     82  CG2       53.2260   47.9020  160.2170 C.3    59  THR59       0.0378
     83  N         58.9910   48.6140  156.6730 N.3    61  PHE61      -0.1227
     84  CA        60.3920   48.2470  156.9030 C.3    61  PHE61       0.1736
     85  C         61.2240   48.3660  155.6230 C.2    61  PHE61       0.2595
     86  O         62.2810   49.0080  155.6150 O.2    61  PHE61      -0.2718
     87  CB        60.5110   46.8310  157.4710 C.3    61  PHE61       0.0547
     88  CG        61.9360   46.3310  157.5320 C.ar   61  PHE61      -0.0202
     89  CD1       62.8020   46.7930  158.5130 C.ar   61  PHE61      -0.0042
     90  CD2       62.4040   45.4040  156.6090 C.ar   61  PHE61      -0.0042
     91  CE1       64.1170   46.3280  158.5750 C.ar   61  PHE61      -0.0003
     92  CE2       63.7080   44.9440  156.6590 C.ar   61  PHE61      -0.0003
     93  CZ        64.5660   45.4090  157.6370 C.ar   61  PHE61      -0.0000
     94  N         60.7800   47.7310  154.5360 N.am   62  ASN62      -0.1974
     95  CA        61.5690   47.7690  153.3060 C.3    62  ASN62       0.1688
     96  C         61.6700   49.1860  152.7660 C.2    62  ASN62       0.2292
     97  O         62.7350   49.6050  152.2980 O.2    62  ASN62      -0.2864
     98  CB        60.9630   46.8580  152.2380 C.3    62  ASN62       0.1181
     99  CG        60.8910   45.4100  152.6760 C.2    62  ASN62       0.2629
    100  OD1       59.8090   44.8310  152.7460 O.2    62  ASN62      -0.2716
    101  ND2       62.0440   44.8160  152.9750 N.am   62  ASN62      -0.0877
    102  N         50.4590   50.2740  149.1360 N.3    77  ASP77      -0.1225
    103  CA        49.8630   49.1830  149.8900 C.3    77  ASP77       0.1805
    104  C         48.3610   49.2290  149.6630 C.2    77  ASP77       0.2598
    105  O         47.7960   50.2980  149.4230 O.2    77  ASP77      -0.2718
    106  CB        50.1790   49.2860  151.3960 C.3    77  ASP77       0.1424
    107  CG        49.9810   47.9610  152.1280 C.2    77  ASP77       0.3668
    108  OD1       48.8170   47.5810  152.4020 O.co2  77  ASP77      -0.2456
    109  OD2       50.9990   47.2840  152.4280 O.co2  77  ASP77      -0.2456
    110  N         47.7130   48.0620  149.7360 N.am   78  GLY78      -0.1942
    111  CA        46.2650   48.0740  149.6550 C.3    78  GLY78       0.2014
    112  C         45.5930   48.6990  150.8640 C.2    78  GLY78       0.2639
    113  O         44.4550   49.1760  150.7560 O.2    78  GLY78      -0.2714
    114  N         46.2750   48.7240  152.0050 N.am   79  SER79      -0.1949
    115  CA        45.6700   49.1120  153.2760 C.3    79  SER79       0.1924
    116  C         46.0530   50.5370  153.6650 C.2    79  SER79       0.2314
    117  O         47.2380   50.8350  153.8720 O.2    79  SER79      -0.2863
    118  CB        46.0920   48.1400  154.3800 C.3    79  SER79       0.2116
    119  OG        45.6760   48.6360  155.6390 O.3    79  SER79      -0.2180
    120  N         47.7720   50.4160  157.1010 N.3    82  MET82      -0.1245
    121  CA        49.2000   50.1200  157.0000 C.3    82  MET82       0.1570
    122  C         49.9890   51.3600  156.5900 C.2    82  MET82       0.2261
    123  O         51.0480   51.6530  157.1560 O.2    82  MET82      -0.2867
    124  CB        49.4410   48.9970  155.9880 C.3    82  MET82       0.0387
    125  CG        48.9150   47.6390  156.3970 C.3    82  MET82       0.0595
    126  SD        49.8230   46.9290  157.7870 S.3    82  MET82      -0.1393
    127  CE        49.1220   45.2780  157.7810 C.3    82  MET82       0.0692
    128  N         46.8280   51.3600  146.8280 N.3   102  ALA102     -0.1231
    129  CA        46.6790   50.7250  145.5270 C.3   102  ALA102      0.1694
    130  C         46.4950   49.2310  145.7250 C.2   102  ALA102      0.2592
    131  O         47.1170   48.6380  146.6100 O.2   102  ALA102     -0.2718
    132  CB        47.8990   50.9740  144.6370 C.3   102  ALA102      0.0304
    133  N         45.6840   48.6310  144.8660 N.am  103  ASP103     -0.1960
    134  CA        45.5100   47.1860  144.8510 C.3   103  ASP103      0.1840
    135  C         46.3560   46.6020  143.7280 C.2   103  ASP103      0.2622
    136  O         46.3680   47.1380  142.6140 O.2   103  ASP103     -0.2715
    137  CB        44.0410   46.8200  144.6700 C.3   103  ASP103      0.1450
    138  CG        43.7950   45.3150  144.7880 C.2   103  ASP103      0.3671
    139  OD1       44.3450   44.5300  143.9820 O.co2 103  ASP103     -0.2456
    140  OD2       43.0590   44.9170  145.7140 O.co2 103  ASP103     -0.2456
    141  N         47.0550   45.4990  144.0240 N.am  104  TRP104     -0.1960
    142  CA        47.9480   44.8840  143.0370 C.3   104  TRP104      0.1771
    143  C         47.2680   44.5890  141.7100 C.2   104  TRP104      0.2619
    144  O         47.9460   44.5030  140.6790 O.2   104  TRP104     -0.2715
    145  CB        48.5360   43.5800  143.5760 C.3   104  TRP104      0.0590
    146  CG        49.4160   43.7510  144.7350 C.ar  104  TRP104      0.0006
    147  CD1       50.0310   44.8890  145.1460 C.ar  104  TRP104      0.0946
    148  CD2       49.7910   42.7310  145.6560 C.ar  104  TRP104      0.0152
    149  NE1       50.7750   44.6450  146.2700 N.ar  104  TRP104     -0.2442
    150  CE2       50.6430   43.3220  146.6040 C.ar  104  TRP104      0.0810
    151  CE3       49.4960   41.3670  145.7620 C.ar  104  TRP104      0.0012
    152  CZ2       51.1970   42.6030  147.6610 C.ar  104  TRP104      0.0191
    153  CZ3       50.0430   40.6550  146.8100 C.ar  104  TRP104      0.0001
    154  CH2       50.8850   41.2730  147.7450 C.ar  104  TRP104      0.0015
    155  N         45.9510   44.4050  141.7050 N.am  105  ARG105     -0.1977
    156  CA        45.2530   44.0580  140.4790 C.3   105  ARG105      0.1597
    157  C         44.9030   45.2680  139.6180 C.2   105  ARG105      0.2287
    158  O         44.4480   45.0880  138.4850 O.2   105  ARG105     -0.2864
    159  CB        44.0080   43.2400  140.8270 C.3   105  ARG105      0.0334
    160  CG        44.3830   41.8780  141.4170 C.3   105  ARG105      0.0492
    161  CD        43.3200   41.3050  142.3430 C.3   105  ARG105      0.2205
    162  NE        43.3340   41.9310  143.6640 N.pl3 105  ARG105     -0.0865
    163  CZ        42.7700   41.4010  144.7430 C.cat 105  ARG105      0.5346
    164  NH1       42.1560   40.2280  144.6620 N.pl3 105  ARG105      0.1354
    165  NH2       42.8230   42.0360  145.9040 N.pl3 105  ARG105      0.1354
    166  N         58.1910   42.3070  149.0930 N.3   121  LEU121     -0.1231
    167  CA        59.0130   41.5360  150.0200 C.3   121  LEU121      0.1693
    168  C         58.2430   41.2060  151.2950 C.2   121  LEU121      0.2592
    169  O         57.1130   41.6530  151.4970 O.2   121  LEU121     -0.2718
    170  CB        60.2840   42.3040  150.3540 C.3   121  LEU121      0.0284
    171  CG        61.1170   42.6480  149.1190 C.3   121  LEU121      0.0019
    172  CD1       62.2720   43.5560  149.5210 C.3   121  LEU121      0.0001
    173  CD2       61.6300   41.3560  148.4790 C.3   121  LEU121      0.0001
    174  N         58.8910   40.4280  152.1690 N.am  122  GLY122     -0.1957
    175  CA        58.2620   39.9970  153.4060 C.3   122  GLY122      0.1869
    176  C         57.2480   38.8860  153.2340 C.2   122  GLY122      0.2309
    177  O         56.3630   38.7310  154.0860 O.2   122  GLY122     -0.2863
    178  N         54.8460   38.5440  150.8690 N.3   124  SER124     -0.1217
    179  CA        53.5460   39.1690  150.6680 C.3   124  SER124      0.1889
    180  C         52.7570   38.5350  149.5240 C.2   124  SER124      0.2288
    181  O         51.5340   38.3870  149.6310 O.2   124  SER124     -0.2866
    182  CB        53.7290   40.6750  150.4040 C.3   124  SER124      0.2089
    183  OG        54.3630   41.3180  151.5130 O.3   124  SER124     -0.2183
    184  N         49.9850   35.8800  149.7460 N.3   127  HIS127     -0.1226
    185  CA        48.6500   36.1880  150.2540 C.3   127  HIS127      0.1752
    186  C         47.5630   35.9070  149.2230 C.2   127  HIS127      0.2595
    187  O         46.4050   35.7140  149.6070 O.2   127  HIS127     -0.2718
    188  CB        48.5940   37.6580  150.6920 C.3   127  HIS127      0.0759
    189  CG        47.3010   38.0620  151.3280 C.ar  127  HIS127      0.0818
    190  ND1       46.5020   39.0620  150.8170 N.ar  127  HIS127     -0.2268
    191  CD2       46.6760   37.6130  152.4430 C.ar  127  HIS127      0.1154
    192  CE1       45.4360   39.2070  151.5850 C.ar  127  HIS127      0.1986
    193  NE2       45.5170   38.3390  152.5780 N.ar  127  HIS127     -0.2212
    194  N         47.9080   35.8710  147.9340 N.am  128  LEU128     -0.1980
    195  CA        46.9270   35.6500  146.8710 C.3   128  LEU128      0.1596
    196  C         46.6250   34.1600  146.7300 C.2   128  LEU128      0.2287
    197  O         47.5270   33.3570  146.4690 O.2   128  LEU128     -0.2864
    198  CB        47.4480   36.2080  145.5480 C.3   128  LEU128      0.0297
    199  CG        47.7420   37.7100  145.4700 C.3   128  LEU128      0.0022
    200  CD1       48.2910   38.0670  144.0990 C.3   128  LEU128      0.0001
    201  CD2       46.4900   38.5070  145.7570 C.3   128  LEU128      0.0001
@<TRIPOS>BOND
     1   158   157    2
     2   157   156    1
     3   156   159    1
     4   156   155    1
     5   144   143    2
     6   159   160    1
     7   160   161    1
     8   155   143   am
     9   143   142    1
    10   161   162    1
    11   136   135    2
    12   142   145    1
    13   142   141    1
    14   145   146    1
    15   162   163    2
    16   135   141   am
    17   135   134    1
    18    58    57    1
    19   139   138   ar
    20   200   199    1
    21   132   129    1
    22   164   163    1
    23   137   138    1
    24   137   134    1
    25   146   147   ar
    26   146   148   ar
    27   163   165    1
    28   138   140   ar
    29   134   133    1
    30   133   130   am
    31   147   149   ar
    32    57    59    1
    33    57    54    1
    34   199   198    1
    35   199   201    1
    36   129   130    1
    37   129   128    1
    38   198   195    1
    39   148   151   ar
    40   148   150   ar
    41   130   131    2
    42   151   153   ar
    43    45    46    1
    44   149   150   ar
    45    54    53    1
    46    54    55    1
    47   197   196    2
    48    53    47   am
    49   150   152   ar
    50    12    11    1
    51   196   195    1
    52   153   154   ar
    53   195   194    1
    54    47    46    1
    55    47    48    2
    56    46    49    1
    57    55    56    2
    58    55    60   am
    59   152   154   ar
    60    11     9   ar
    61    11    10   ar
    62   194   186   am
    63     9     7   ar
    64   173   171    1
    65    49    50    1
    66    60    61    1
    67    10     8   ar
    68   166   167    1
    69   171   172    1
    70   171   170    1
    71   102   103    1
    72     7     6   ar
    73   186   187    2
    74   186   185    1
    75    51    50   ar
    76   105   104    2
    77   180   181    2
    78   180   179    1
    79    50    52   ar
    80   111   110    1
    81   111   112    1
    82   104   110   am
    83   104   103    1
    84   184   185    1
    85    64    61    1
    86    61    62    1
    87   103   106    1
    88   167   170    1
    89   167   168    1
    90     8     6   ar
    91   185   188    1
    92     6     5    1
    93   182   179    1
    94   182   183    1
    95   179   178    1
    96   188   189    1
    97    70    69    1
    98   113   112    2
    99   190   189   ar
   100   190   192   ar
   101   112   114   am
   102    62    65   am
   103    62    63    2
   104    65    66    1
   105   168   169    2
   106   168   174   am
   107   189   191   ar
   108   106   107    1
   109   192   193   ar
   110     5     2    1
   111   114   115    1
   112    69    66    1
   113    69    71    1
   114   107   108   ar
   115   107   109   ar
   116   174   175    1
   117    66    67    1
   118    98    99    1
   119    98    95    1
   120    97    96    2
   121     2     1    1
   122     2     3    1
   123   191   193   ar
   124    99   100    2
   125    99   101   am
   126    96    95    1
   127   176   175    1
   128   176   177    2
   129   115   116    1
   130   115   118    1
   131    95    94    1
   132     4     3    2
   133     3    13   am
   134    67    72   am
   135    67    68    2
   136   116   117    2
   137    72    73    1
   138   118   119    1
   139    94    85   am
   140    13    14    1
   141    73    74    1
   142    86    85    2
   143    85    84    1
   144   124   125    1
   145   124   121    1
   146    75    74    2
   147    14    17    1
   148    14    15    1
   149    74    76   am
   150   125   126    1
   151    17    19    1
   152    17    18    1
   153   122   121    1
   154   122   123    2
   155    90    92   ar
   156    90    88   ar
   157    92    93   ar
   158    83    84    1
   159    16    15    2
   160    84    87    1
   161   121   120    1
   162    76    77    1
   163    87    88    1
   164    88    89   ar
   165    93    91   ar
   166    44    42    1
   167   127   126    1
   168    78    77    1
   169    78    79    2
   170    25    24    1
   171    77    80    1
   172    89    91   ar
   173    26    24    1
   174    42    41    2
   175    42    43    1
   176    24    21    1
   177    41    40    1
   178    37    36    2
   179    80    81    1
   180    80    82    1
   181    32    31    1
   182    39    40    1
   183    39    38    1
   184    36    35    1
   185    21    22    1
   186    21    20    1
   187    31    33    1
   188    31    28    1
   189    22    23    2
   190    38    35    1
   191    35    34    1
   192    28    27    1
   193    28    29    1
   194    29    30    2
