@<TRIPOS>MOLECULE
tmp/5h05D00.pdb
 183 178 0 0 0
SMALL
GASTEIGER

@<TRIPOS>ATOM
      1  N        134.7650   62.2290   43.2940 N.3    37  TYR37      -0.1241
      2  CA       135.9060   62.7270   42.5380 C.3    37  TYR37       0.1605
      3  C        136.8740   63.3400   43.5420 C.2    37  TYR37       0.2264
      4  O        136.5700   64.3710   44.1530 O.2    37  TYR37      -0.2867
      5  CB       135.4820   63.7580   41.4950 C.3    37  TYR37       0.0534
      6  CG       134.7340   63.2450   40.2790 C.ar   37  TYR37      -0.0201
      7  CD1      135.3790   62.4950   39.2850 C.ar   37  TYR37      -0.0009
      8  CD2      133.3960   63.5770   40.0760 C.ar   37  TYR37      -0.0009
      9  CE1      134.6850   62.0680   38.1290 C.ar   37  TYR37       0.0417
     10  CE2      132.7070   63.1540   38.9450 C.ar   37  TYR37       0.0417
     11  CZ       133.3470   62.4000   37.9800 C.ar   37  TYR37       0.1957
     12  OH       132.6370   62.0060   36.8660 O.3    37  TYR37      -0.2866
     13  N        130.4170   57.1150   36.6970 N.3    81  TRP81      -0.1241
     14  CA       130.5990   58.5600   36.5790 C.3    81  TRP81       0.1605
     15  C        129.4480   59.3280   37.2160 C.2    81  TRP81       0.2264
     16  O        129.6680   60.3270   37.9130 O.2    81  TRP81      -0.2867
     17  CB       130.7440   58.9660   35.1160 C.3    81  TRP81       0.0550
     18  CG       131.8490   58.2690   34.3380 C.ar   81  TRP81       0.0003
     19  CD1      131.6870   57.4140   33.2810 C.ar   81  TRP81       0.0946
     20  CD2      133.2660   58.3960   34.5310 C.ar   81  TRP81       0.0152
     21  NE1      132.9090   57.0070   32.8050 N.ar   81  TRP81      -0.2442
     22  CE2      133.8950   57.5920   33.5550 C.ar   81  TRP81       0.0810
     23  CE3      134.0650   59.1150   35.4220 C.ar   81  TRP81       0.0012
     24  CZ2      135.2880   57.4860   33.4520 C.ar   81  TRP81       0.0191
     25  CZ3      135.4440   58.9970   35.3280 C.ar   81  TRP81       0.0001
     26  CH2      136.0410   58.1930   34.3480 C.ar   81  TRP81       0.0015
     27  N        129.5940   62.0660   40.3630 N.3    85  LEU85      -0.1245
     28  CA       128.9640   63.3720   40.2320 C.3    85  LEU85       0.1561
     29  C        127.9150   63.5840   41.3150 C.2    85  LEU85       0.2260
     30  O        127.7930   64.6890   41.8540 O.2    85  LEU85      -0.2867
     31  CB       128.3320   63.5300   38.8500 C.3    85  LEU85       0.0270
     32  CG       128.0740   64.9820   38.4330 C.3    85  LEU85       0.0019
     33  CD1      129.4070   65.7730   38.3400 C.3    85  LEU85       0.0001
     34  CD2      127.3150   65.0780   37.1030 C.3    85  LEU85       0.0001
     35  N        129.1790   65.2140   44.4770 N.3    88  THR88      -0.1218
     36  CA       129.6410   66.5920   44.5190 C.3    88  THR88       0.1862
     37  C        128.5200   67.5590   44.8620 C.2    88  THR88       0.2287
     38  O        128.8000   68.6590   45.3520 O.2    88  THR88      -0.2866
     39  CB       130.2550   66.9940   43.1780 C.3    88  THR88       0.1770
     40  OG1      129.2030   67.1410   42.2220 O.3    88  THR88      -0.2211
     41  CG2      131.2450   65.9360   42.6640 C.3    88  THR88       0.0375
     42  N        126.6530   69.0450   42.6710 N.3    90  TYR90      -0.1227
     43  CA       126.5570   70.1410   41.7260 C.3    90  TYR90       0.1736
     44  C        125.5980   69.8760   40.5700 C.2    90  TYR90       0.2595
     45  O        125.2930   70.8140   39.8170 O.2    90  TYR90      -0.2718
     46  CB       127.9550   70.4790   41.2130 C.3    90  TYR90       0.0548
     47  CG       128.6830   71.3600   42.1970 C.ar   90  TYR90      -0.0200
     48  CD1      128.3190   72.6920   42.3470 C.ar   90  TYR90      -0.0009
     49  CD2      129.7150   70.8720   42.9890 C.ar   90  TYR90      -0.0009
     50  CE1      128.9580   73.5200   43.2500 C.ar   90  TYR90       0.0417
     51  CE2      130.3600   71.7000   43.9070 C.ar   90  TYR90       0.0417
     52  CZ       129.9670   73.0270   44.0300 C.ar   90  TYR90       0.1957
     53  OH       130.5740   73.8870   44.9230 O.3    90  TYR90      -0.2866
     54  N        125.1110   68.6320   40.4110 N.am   91  PHE91      -0.1976
     55  CA       124.1020   68.2770   39.3970 C.3    91  PHE91       0.1639
     56  C        122.9950   67.5600   40.1510 C.2    91  PHE91       0.2290
     57  O        122.9470   66.3300   40.1870 O.2    91  PHE91      -0.2864
     58  CB       124.6800   67.4270   38.2740 C.3    91  PHE91       0.0560
     59  CG       125.4650   68.2200   37.2660 C.ar   91  PHE91      -0.0200
     60  CD1      126.7650   68.6140   37.5340 C.ar   91  PHE91      -0.0042
     61  CD2      124.9020   68.5830   36.0630 C.ar   91  PHE91      -0.0042
     62  CE1      127.4880   69.3460   36.6300 C.ar   91  PHE91      -0.0003
     63  CE2      125.6240   69.3220   35.1440 C.ar   91  PHE91      -0.0003
     64  CZ       126.9210   69.7070   35.4370 C.ar   91  PHE91      -0.0000
     65  N        122.1620   74.7400   35.9920 N.3   130  HIS130     -0.1241
     66  CA       122.1050   73.3660   35.5000 C.3   130  HIS130      0.1621
     67  C        121.6630   72.4550   36.6350 C.2   130  HIS130      0.2264
     68  O        121.6160   72.8540   37.7970 O.2   130  HIS130     -0.2867
     69  CB       123.4480   72.8970   34.9150 C.3   130  HIS130      0.0745
     70  CG       124.6130   73.0440   35.8470 C.ar  130  HIS130      0.0817
     71  ND1      125.4790   74.1180   35.7970 N.ar  130  HIS130     -0.2268
     72  CD2      125.0610   72.2500   36.8510 C.ar  130  HIS130      0.1154
     73  CE1      126.4110   73.9750   36.7250 C.ar  130  HIS130      0.1986
     74  NE2      126.1760   72.8530   37.3830 N.ar  130  HIS130     -0.2212
     75  N        126.3750   80.9230   47.8070 N.3   177  ARG177     -0.1245
     76  CA       127.3950   80.9480   46.7680 C.3   177  ARG177      0.1563
     77  C        126.7310   80.6180   45.4300 C.2   177  ARG177      0.2260
     78  O        125.8810   79.7280   45.3500 O.2   177  ARG177     -0.2867
     79  CB       128.4990   79.9470   47.0960 C.3   177  ARG177      0.0307
     80  CG       129.6990   79.9690   46.1840 C.3   177  ARG177      0.0489
     81  CD       129.6830   78.7700   45.3400 C.3   177  ARG177      0.2205
     82  NE       130.9260   78.5290   44.6210 N.pl3 177  ARG177     -0.0865
     83  CZ       131.0510   77.5380   43.7390 C.cat 177  ARG177      0.5346
     84  NH1      130.0060   76.7540   43.5070 N.pl3 177  ARG177      0.1354
     85  NH2      132.1880   77.3260   43.0850 N.pl3 177  ARG177      0.1354
     86  N        127.0180   79.2750   41.7970 N.3   179  ASP179     -0.1225
     87  CA       127.8770   78.4460   40.9720 C.3   179  ASP179      0.1805
     88  C        127.7010   78.7700   39.4940 C.2   179  ASP179      0.2597
     89  O        126.5740   78.9150   39.0150 O.2   179  ASP179     -0.2718
     90  CB       127.5480   76.9760   41.2210 C.3   179  ASP179      0.1424
     91  CG       128.5210   76.0490   40.5520 C.2   179  ASP179      0.3668
     92  OD1      129.6610   75.9610   41.0500 O.co2 179  ASP179     -0.2456
     93  OD2      128.1460   75.4140   39.5390 O.co2 179  ASP179     -0.2456
     94  N        128.8230   78.8350   38.7730 N.am  180  GLN180     -0.1979
     95  CA       128.8570   79.1300   37.3360 C.3   180  GLN180      0.1601
     96  C        127.8730   80.2450   36.9730 C.2   180  GLN180      0.2287
     97  O        127.0590   80.1330   36.0460 O.2   180  GLN180     -0.2864
     98  CB       128.5970   77.8710   36.5130 C.3   180  GLN180      0.0394
     99  CG       129.7860   76.9460   36.4340 C.3   180  GLN180      0.0908
    100  CD       129.5940   75.8650   35.3900 C.2   180  GLN180      0.2608
    101  OE1      128.5130   75.7290   34.8320 O.2   180  GLN180     -0.2717
    102  NE2      130.6430   75.1000   35.1150 N.am  180  GLN180     -0.0878
    103  N        130.5250   82.8110   41.6540 N.3   222  GLN222     -0.1245
    104  CA       131.7270   82.1150   41.2070 C.3   222  GLN222      0.1566
    105  C        131.7980   82.2630   39.6970 C.2   222  GLN222      0.2260
    106  O        131.0670   81.5940   38.9670 O.2   222  GLN222     -0.2867
    107  CB       131.7290   80.6450   41.6000 C.3   222  GLN222      0.0367
    108  CG       133.1450   80.0430   41.6330 C.3   222  GLN222      0.0905
    109  CD       133.3410   78.9460   40.6020 C.2   222  GLN222      0.2608
    110  OE1      132.3980   78.5670   39.8920 O.2   222  GLN222     -0.2717
    111  NE2      134.5700   78.4220   40.5120 N.am  222  GLN222     -0.0878
    112  N        134.8840   81.9910   37.1860 N.3   224  TRP224     -0.1241
    113  CA       136.2940   81.6430   37.0860 C.3   224  TRP224      0.1605
    114  C        136.8340   82.2140   35.7750 C.2   224  TRP224      0.2264
    115  O        136.9640   81.5240   34.7680 O.2   224  TRP224     -0.2867
    116  CB       136.4310   80.1280   37.1790 C.3   224  TRP224      0.0550
    117  CG       137.7880   79.5710   37.3330 C.ar  224  TRP224      0.0003
    118  CD1      138.9740   80.2440   37.3010 C.ar  224  TRP224      0.0946
    119  CD2      138.1100   78.1960   37.5610 C.ar  224  TRP224      0.0152
    120  NE1      140.0160   79.3710   37.4940 N.ar  224  TRP224     -0.2442
    121  CE2      139.5140   78.1070   37.6510 C.ar  224  TRP224      0.0810
    122  CE3      137.3460   77.0290   37.6880 C.ar  224  TRP224      0.0012
    123  CZ2      140.1750   76.8980   37.8490 C.ar  224  TRP224      0.0191
    124  CZ3      137.9960   75.8260   37.8920 C.ar  224  TRP224      0.0001
    125  CH2      139.4020   75.7680   37.9740 C.ar  224  TRP224      0.0015
    126  N        137.7280   73.9170   46.1280 N.3   297  HIS297     -0.1226
    127  CA       137.6150   72.5310   45.7130 C.3   297  HIS297      0.1752
    128  C        137.9070   72.3220   44.2130 C.2   297  HIS297      0.2596
    129  O        137.9140   71.1750   43.7590 O.2   297  HIS297     -0.2718
    130  CB       136.2150   72.0370   46.0550 C.3   297  HIS297      0.0759
    131  CG       135.1580   72.7290   45.2640 C.ar  297  HIS297      0.0818
    132  ND1      134.8190   74.0450   45.4780 N.ar  297  HIS297     -0.2268
    133  CD2      134.4190   72.3150   44.2090 C.ar  297  HIS297      0.1154
    134  CE1      133.8850   74.3990   44.6160 C.ar  297  HIS297      0.1986
    135  NE2      133.6270   73.3690   43.8320 N.ar  297  HIS297     -0.2212
    136  N        138.1550   73.3680   43.4330 N.am  298  ASP298     -0.1974
    137  CA       138.5270   73.1940   42.0330 C.3   298  ASP298      0.1709
    138  C        139.9970   73.4860   41.7430 C.2   298  ASP298      0.2293
    139  O        140.4240   73.3160   40.5960 O.2   298  ASP298     -0.2864
    140  CB       137.6790   74.0900   41.1230 C.3   298  ASP298      0.1436
    141  CG       136.2120   73.7630   41.1810 C.2   298  ASP298      0.3671
    142  OD1      135.8810   72.5610   41.3030 O.co2 298  ASP298     -0.2456
    143  OD2      135.3940   74.7180   41.0980 O.co2 298  ASP298     -0.2456
    144  N        140.7570   61.1000   36.5430 N.3   361  ALA361     -0.1245
    145  CA       139.5280   61.1410   37.3390 C.3   361  ALA361      0.1562
    146  C        139.3600   59.8840   38.1920 C.2   361  ALA361      0.2260
    147  O        138.9370   59.9730   39.3530 O.2   361  ALA361     -0.2867
    148  CB       138.3130   61.3450   36.4370 C.3   361  ALA361      0.0290
    149  N        142.8610   64.6630   38.9510 N.3   366  CYS366     -0.1235
    150  CA       142.7960   65.8120   38.0540 C.3   366  CYS366      0.1677
    151  C        142.8960   67.0900   38.8690 C.2   366  CYS366      0.2270
    152  O        142.4580   67.1520   40.0230 O.2   366  CYS366     -0.2867
    153  CB       141.5050   65.8380   37.2310 C.3   366  CYS366      0.0956
    154  SG       141.0840   64.2410   36.5170 S.3   366  CYS366     -0.0801
    155  N        141.2730   69.7500   38.8810 N.3   368  ASP368     -0.1225
    156  CA       140.0290   70.3820   39.2960 C.3   368  ASP368      0.1805
    157  C        139.3080   69.6270   40.3880 C.2   368  ASP368      0.2597
    158  O        138.2060   70.0330   40.7480 O.2   368  ASP368     -0.2718
    159  CB       139.0950   70.5140   38.1050 C.3   368  ASP368      0.1424
    160  CG       138.6090   69.1710   37.6290 C.2   368  ASP368      0.3668
    161  OD1      139.4690   68.3650   37.2130 O.co2 368  ASP368     -0.2456
    162  OD2      137.3840   68.8940   37.7070 O.co2 368  ASP368     -0.2456
    163  N        139.8530   68.5210   40.8880 N.am  369  HIS369     -0.1975
    164  CA       139.3240   67.9360   42.1220 C.3   369  HIS369      0.1656
    165  C        140.3820   67.3360   43.0360 C.2   369  HIS369      0.2291
    166  O        140.0120   66.7580   44.0590 O.2   369  HIS369     -0.2864
    167  CB       138.2630   66.8430   41.8410 C.3   369  HIS369      0.0771
    168  CG       138.7660   65.7160   40.9960 C.ar  369  HIS369      0.0820
    169  ND1      138.3020   65.4830   39.7150 N.ar  369  HIS369     -0.2267
    170  CD2      139.7140   64.7760   41.2320 C.ar  369  HIS369      0.1154
    171  CE1      138.9360   64.4430   39.2020 C.ar  369  HIS369      0.1986
    172  NE2      139.8030   63.9990   40.0980 N.ar  369  HIS369     -0.2212
    173  N        140.1870   67.7920   46.8800 N.3   372  ARG372     -0.1245
    174  CA       139.0890   67.2710   47.6900 C.3   372  ARG372      0.1563
    175  C        139.5940   66.0900   48.5210 C.2   372  ARG372      0.2260
    176  O        139.2170   64.9340   48.3340 O.2   372  ARG372     -0.2867
    177  CB       137.9140   66.8980   46.7990 C.3   372  ARG372      0.0307
    178  CG       137.4180   68.0770   45.9960 C.3   372  ARG372      0.0489
    179  CD       136.3890   67.6890   44.9680 C.3   372  ARG372      0.2205
    180  NE       136.2670   68.7380   43.9660 N.pl3 372  ARG372     -0.0865
    181  CZ       135.3870   68.7280   42.9730 C.cat 372  ARG372      0.5346
    182  NH1      135.3650   69.7190   42.1030 N.pl3 372  ARG372      0.1354
    183  NH2      134.5340   67.7270   42.8530 N.pl3 372  ARG372      0.1354
@<TRIPOS>BOND
     1    21    19   ar
     2    21    22   ar
     3    19    18   ar
     4    24    22   ar
     5    24    26   ar
     6    22    20   ar
     7    18    20   ar
     8    18    17    1
     9    26    25   ar
    10    20    23   ar
    11   115   114    2
    12   101   100    2
    13    69    66    1
    14    69    70    1
    15   102   100   am
    16    17    14    1
    17    63    64   ar
    18    63    61   ar
    19    25    23   ar
    20   100    99    1
    21    64    62   ar
    22    66    65    1
    23    66    67    1
    24   114   113    1
    25    71    70   ar
    26    71    73   ar
    27    70    72   ar
    28    97    96    2
    29    61    59   ar
    30    99    98    1
    31   148   145    1
    32    98    95    1
    33   154   153    1
    34   144   145    1
    35    14    13    1
    36    14    15    1
    37    62    60   ar
    38    67    68    2
    39    73    74   ar
    40    72    74   ar
    41    12    11    1
    42    96    95    1
    43   113   116    1
    44   113   112    1
    45    34    32    1
    46   116   117    1
    47   161   160   ar
    48    15    16    2
    49   153   150    1
    50    59    60   ar
    51    59    58    1
    52   118   117   ar
    53   118   120   ar
    54   117   119   ar
    55    95    94    1
    56   145   146    1
    57   120   121   ar
    58   119   121   ar
    59   119   122   ar
    60   160   162   ar
    61   160   159    1
    62   121   123   ar
    63   122   124   ar
    64   123   125   ar
    65   124   125   ar
    66    11     9   ar
    67    11    10   ar
    68   150   151    1
    69   150   149    1
    70   159   156    1
    71     9     7   ar
    72   146   147    2
    73    58    55    1
    74    33    32    1
    75    32    31    1
    76    94    88   am
    77    31    28    1
    78   151   152    2
    79   155   156    1
    80    10     8   ar
    81   106   105    2
    82    89    88    2
    83   171   169   ar
    84   171   172   ar
    85     7     6   ar
    86   156   157    1
    87    55    56    1
    88    55    54    1
    89    88    87    1
    90    93    91   ar
    91   105   104    1
    92   169   168   ar
    93    45    44    2
    94   110   109    2
    95     8     6   ar
    96   172   170   ar
    97    56    57    2
    98    28    27    1
    99    28    29    1
   100     6     5    1
   101   157   158    2
   102   157   163   am
   103    54    44   am
   104   111   109   am
   105    91    92   ar
   106    91    90    1
   107    44    43    1
   108   139   138    2
   109   109   108    1
   110   163   164    1
   111    87    90    1
   112    87    86    1
   113   168   170   ar
   114   168   167    1
   115   143   141   ar
   116   140   141    1
   117   140   137    1
   118   141   142   ar
   119   104   107    1
   120   104   103    1
   121    46    43    1
   122    46    47    1
   123    29    30    2
   124     5     2    1
   125   107   108    1
   126    43    42    1
   127   138   137    1
   128   167   164    1
   129   137   136    1
   130   182   181    1
   131   164   165    1
   132    47    48   ar
   133    47    49   ar
   134    40    39    1
   135    48    50   ar
   136     2     1    1
   137     2     3    1
   138    41    39    1
   139   183   181    1
   140   181   180    2
   141    49    51   ar
   142   165   166    2
   143    85    83    1
   144    39    36    1
   145    50    52   ar
   146   136   128   am
   147    84    83    1
   148     3     4    2
   149    83    82    2
   150   129   128    2
   151   135   133   ar
   152   135   134   ar
   153    51    52   ar
   154   180   179    1
   155    52    53    1
   156   133   131   ar
   157   128   127    1
   158    35    36    1
   159    36    37    1
   160   134   132   ar
   161    82    81    1
   162    37    38    2
   163   179   178    1
   164   131   132   ar
   165   131   130    1
   166    81    80    1
   167    78    77    2
   168    77    76    1
   169   127   130    1
   170   127   126    1
   171   178   177    1
   172    80    79    1
   173    76    79    1
   174    76    75    1
   175   177   174    1
   176   173   174    1
   177   174   175    1
   178   176   175    2
