@<TRIPOS>MOLECULE
tmp/5h06B00.pdb
 130 125 0 0 0
SMALL
GASTEIGER

@<TRIPOS>ATOM
      1  N         -3.4380   -8.4820  -51.0270 N.3    37  TYR37      -0.1241
      2  CA        -2.7500   -9.6290  -50.4300 C.3    37  TYR37       0.1605
      3  C         -3.7880  -10.6570  -50.0070 C.2    37  TYR37       0.2264
      4  O         -4.3850  -10.5420  -48.9320 O.2    37  TYR37      -0.2867
      5  CB        -1.9020   -9.2050  -49.2320 C.3    37  TYR37       0.0534
      6  CG        -0.6650   -8.4200  -49.6080 C.ar   37  TYR37      -0.0201
      7  CD1        0.3480   -9.0140  -50.3470 C.ar   37  TYR37      -0.0009
      8  CD2       -0.5090   -7.0900  -49.2210 C.ar   37  TYR37      -0.0009
      9  CE1        1.4840   -8.3120  -50.6880 C.ar   37  TYR37       0.0417
     10  CE2        0.6320   -6.3750  -49.5590 C.ar   37  TYR37       0.0417
     11  CZ         1.6230   -6.9990  -50.2900 C.ar   37  TYR37       0.1957
     12  OH         2.7630   -6.3220  -50.6400 O.3    37  TYR37      -0.2866
     13  N          3.4990   -3.9810  -55.2580 N.3    81  TRP81      -0.1241
     14  CA         3.4150   -4.2510  -53.8280 C.3    81  TRP81       0.1605
     15  C          2.7140   -3.1070  -53.0880 C.2    81  TRP81       0.2264
     16  O          1.8730   -3.3410  -52.2090 O.2    81  TRP81      -0.2867
     17  CB         4.8160   -4.4620  -53.2510 C.3    81  TRP81       0.0550
     18  CG         5.6580   -5.4820  -53.9750 C.ar   81  TRP81       0.0003
     19  CD1        6.7780   -5.2440  -54.7260 C.ar   81  TRP81       0.0946
     20  CD2        5.4490   -6.8990  -54.0040 C.ar   81  TRP81       0.0152
     21  NE1        7.2790   -6.4310  -55.2220 N.ar   81  TRP81      -0.2442
     22  CE2        6.4820   -7.4600  -54.7930 C.ar   81  TRP81       0.0810
     23  CE3        4.4870   -7.7470  -53.4490 C.ar   81  TRP81       0.0012
     24  CZ2        6.5800   -8.8360  -55.0330 C.ar   81  TRP81       0.0191
     25  CZ3        4.5870   -9.1200  -53.6870 C.ar   81  TRP81       0.0001
     26  CH2        5.6210   -9.6460  -54.4780 C.ar   81  TRP81       0.0015
     27  N         -0.6070   -3.0430  -50.8740 N.3    85  LEU85      -0.1245
     28  CA        -0.6180   -2.5660  -49.4950 C.3    85  LEU85       0.1561
     29  C         -1.6900   -1.4980  -49.2830 C.2    85  LEU85       0.2260
     30  O         -2.3020   -1.4440  -48.2080 O.2    85  LEU85      -0.2867
     31  CB         0.7700   -2.0540  -49.1230 C.3    85  LEU85       0.0270
     32  CG         1.0680   -1.7980  -47.6450 C.3    85  LEU85       0.0019
     33  CD1        1.1050   -3.1170  -46.8940 C.3    85  LEU85       0.0001
     34  CD2        2.3870   -1.0630  -47.4940 C.3    85  LEU85       0.0001
     35  N         -4.9900   -3.1130  -48.1940 N.3    88  THR88      -0.1218
     36  CA        -5.1610   -3.5610  -46.8080 C.3    88  THR88       0.1862
     37  C         -5.6320   -2.4460  -45.8850 C.2    88  THR88       0.2287
     38  O         -6.2160   -2.7320  -44.8330 O.2    88  THR88      -0.2866
     39  CB        -3.8560   -4.1080  -46.2450 C.3    88  THR88       0.1770
     40  OG1       -2.9630   -3.0110  -45.9800 O.3    88  THR88      -0.2211
     41  CG2       -3.2150   -5.0900  -47.2200 C.3    88  THR88       0.0375
     42  N         -3.7230   -0.6950  -43.9250 N.3    90  TYR90      -0.1227
     43  CA        -2.8810   -0.5420  -42.7370 C.3    90  TYR90       0.1736
     44  C         -1.7510    0.4780  -42.8880 C.2    90  TYR90       0.2595
     45  O         -1.1050    0.8070  -41.8860 O.2    90  TYR90      -0.2718
     46  CB        -2.3310   -1.9150  -42.3170 C.3    90  TYR90       0.0548
     47  CG        -3.4070   -2.6910  -41.6090 C.ar   90  TYR90      -0.0200
     48  CD1       -3.7790   -2.3590  -40.3010 C.ar   90  TYR90      -0.0009
     49  CD2       -4.1060   -3.6940  -42.2490 C.ar   90  TYR90      -0.0009
     50  CE1       -4.8070   -3.0340  -39.6480 C.ar   90  TYR90       0.0417
     51  CE2       -5.1300   -4.3890  -41.5910 C.ar   90  TYR90       0.0417
     52  CZ        -5.4710   -4.0500  -40.2980 C.ar   90  TYR90       0.1957
     53  OH        -6.4850   -4.7300  -39.6560 O.3    90  TYR90      -0.2866
     54  N         -1.5030    1.0070  -44.0910 N.am   91  PHE91      -0.1976
     55  CA        -0.4980    2.0550  -44.3060 C.3    91  PHE91       0.1639
     56  C         -1.2030    3.1740  -45.0560 C.2    91  PHE91       0.2290
     57  O         -1.1420    3.2680  -46.2900 O.2    91  PHE91      -0.2864
     58  CB         0.7240    1.5400  -45.0620 C.3    91  PHE91       0.0560
     59  CG         1.6390    0.6990  -44.2220 C.ar   91  PHE91      -0.0200
     60  CD1        1.3010   -0.6130  -43.9140 C.ar   91  PHE91      -0.0042
     61  CD2        2.8280    1.2160  -43.7270 C.ar   91  PHE91      -0.0042
     62  CE1        2.1330   -1.4000  -43.1360 C.ar   91  PHE91      -0.0003
     63  CE2        3.6700    0.4290  -42.9400 C.ar   91  PHE91      -0.0003
     64  CZ         3.3170   -0.8790  -42.6490 C.ar   91  PHE91      -0.0000
     65  N          2.1640    3.6490  -37.3240 N.3   130  HIS130     -0.1241
     66  CA         2.8100    3.7620  -38.6240 C.3   130  HIS130      0.1621
     67  C          1.7970    4.1930  -39.6820 C.2   130  HIS130      0.2264
     68  O          0.5810    4.1920  -39.4570 O.2   130  HIS130     -0.2867
     69  CB         3.5050    2.4460  -38.9970 C.3   130  HIS130      0.0745
     70  CG         2.5860    1.2680  -39.0540 C.ar  130  HIS130      0.0817
     71  ND1        2.3610    0.4430  -37.9700 N.ar  130  HIS130     -0.2268
     72  CD2        1.8450    0.7660  -40.0700 C.ar  130  HIS130      0.1154
     73  CE1        1.5250   -0.5200  -38.3190 C.ar  130  HIS130      0.1986
     74  NE2        1.1920   -0.3440  -39.5860 N.ar  130  HIS130     -0.2212
     75  N         -4.0290   -1.3340  -33.9580 N.3   179  ASP179     -0.1239
     76  CA        -3.0490   -2.1450  -34.6660 C.3   179  ASP179      0.1674
     77  C         -1.6760   -2.0540  -34.0140 C.2   179  ASP179      0.2266
     78  O         -1.2290   -0.9700  -33.6210 O.2   179  ASP179     -0.2867
     79  CB        -2.9530   -1.6810  -36.1150 C.3   179  ASP179      0.1410
     80  CG        -2.1570   -2.6260  -36.9700 C.2   179  ASP179      0.3668
     81  OD1       -2.6400   -3.7460  -37.1810 O.co2 179  ASP179     -0.2456
     82  OD2       -1.0670   -2.2420  -37.4520 O.co2 179  ASP179     -0.2456
     83  N         -4.7360  -12.0830  -40.1210 N.3   298  ASP298     -0.1239
     84  CA        -3.3110  -12.3940  -40.1080 C.3   298  ASP298      0.1674
     85  C         -3.0320  -13.8550  -39.7860 C.2   298  ASP298      0.2266
     86  O         -1.8600  -14.2470  -39.7180 O.2   298  ASP298     -0.2867
     87  CB        -2.5720  -11.5190  -39.0780 C.3   298  ASP298      0.1410
     88  CG        -2.6010  -10.0440  -39.4300 C.2   298  ASP298      0.3668
     89  OD1       -2.4920   -9.7130  -40.6340 O.co2 298  ASP298     -0.2456
     90  OD2       -2.7370   -9.2180  -38.4920 O.co2 298  ASP298     -0.2456
     91  N          3.2800  -14.4210  -51.6760 N.3   361  ALA361     -0.1245
     92  CA         2.4950  -13.1910  -51.6840 C.3   361  ALA361      0.1562
     93  C          1.7990  -12.9710  -53.0190 C.2   361  ALA361      0.2260
     94  O          0.6350  -12.5590  -53.0450 O.2   361  ALA361     -0.2867
     95  CB         3.3740  -11.9880  -51.3330 C.3   361  ALA361      0.0290
     96  N          0.4300  -16.5760  -48.4090 N.3   366  CYS366     -0.1235
     97  CA         1.2550  -16.4870  -47.2070 C.3   366  CYS366      0.1677
     98  C          0.3870  -16.6430  -45.9620 C.2   366  CYS366      0.2270
     99  O         -0.7650  -16.2040  -45.9250 O.2   366  CYS366     -0.2867
    100  CB         1.9910  -15.1490  -47.1300 C.3   366  CYS366      0.0956
    101  SG         2.9810  -14.6530  -48.5720 S.3   366  CYS366     -0.0801
    102  N          0.3310  -15.0120  -43.3410 N.3   368  ASP368     -0.1225
    103  CA        -0.1360  -13.7750  -42.7210 C.3   368  ASP368      0.1805
    104  C         -1.2480  -13.0870  -43.5090 C.2   368  ASP368      0.2597
    105  O         -1.7040  -12.0130  -43.0890 O.2   368  ASP368     -0.2718
    106  CB         1.0300  -12.7940  -42.5140 C.3   368  ASP368      0.1424
    107  CG         1.4010  -12.0620  -43.7890 C.2   368  ASP368      0.3668
    108  OD1        1.5840  -12.7400  -44.8280 O.co2 368  ASP368     -0.2456
    109  OD2        1.4890  -10.8030  -43.7700 O.co2 368  ASP368     -0.2456
    110  N         -1.7090  -13.6600  -44.6230 N.am  369  HIS369     -0.1975
    111  CA        -2.8740  -13.0870  -45.2900 C.3   369  HIS369      0.1656
    112  C         -3.7610  -14.1040  -45.9930 C.2   369  HIS369      0.2291
    113  O         -4.7870  -13.6980  -46.5540 O.2   369  HIS369     -0.2864
    114  CB        -2.4410  -11.9930  -46.2990 C.3   369  HIS369      0.0771
    115  CG        -1.4860  -12.4720  -47.3560 C.ar  369  HIS369      0.0820
    116  ND1       -0.2250  -11.9430  -47.5060 N.ar  369  HIS369     -0.2267
    117  CD2       -1.6180  -13.4060  -48.3290 C.ar  369  HIS369      0.1154
    118  CE1        0.3880  -12.5380  -48.5170 C.ar  369  HIS369      0.1986
    119  NE2       -0.4300  -13.4440  -49.0240 N.ar  369  HIS369     -0.2212
    120  N         -7.5860  -13.9870  -46.0220 N.3   372  ARG372     -0.1245
    121  CA        -8.3490  -12.8820  -46.6110 C.3   372  ARG372      0.1563
    122  C         -9.0020  -13.3430  -47.9140 C.2   372  ARG372      0.2260
    123  O         -8.6600  -12.9200  -49.0290 O.2   372  ARG372     -0.2867
    124  CB        -7.4510  -11.6760  -46.8080 C.3   372  ARG372      0.0307
    125  CG        -6.7200  -11.3300  -45.5210 C.3   372  ARG372      0.0489
    126  CD        -5.7780  -10.1570  -45.7020 C.3   372  ARG372      0.2205
    127  NE        -4.8300  -10.0840  -44.5820 N.pl3 372  ARG372     -0.0865
    128  CZ        -3.8430   -9.1970  -44.5100 C.cat 372  ARG372      0.5346
    129  NH1       -3.0230   -9.2030  -43.4660 N.pl3 372  ARG372      0.1354
    130  NH2       -3.6830   -8.3030  -45.4880 N.pl3 372  ARG372      0.1354
@<TRIPOS>BOND
     1    13    14    1
     2    21    22   ar
     3    21    19   ar
     4    24    22   ar
     5    24    26   ar
     6    22    20   ar
     7    19    18   ar
     8    26    25   ar
     9    20    18   ar
    10    20    23   ar
    11    18    17    1
    12    14    17    1
    13    14    15    1
    14    25    23   ar
    15    15    16    2
    16    94    93    2
    17    93    92    1
    18    92    91    1
    19    92    95    1
    20     1     2    1
    21    27    28    1
    22     9     7   ar
    23     9    11   ar
    24    12    11    1
    25     2     3    1
    26     2     5    1
    27     7     6   ar
    28    11    10   ar
    29     3     4    2
    30     6     5    1
    31     6     8   ar
    32    10     8   ar
    33    28    29    1
    34    28    31    1
    35    29    30    2
    36    31    32    1
    37   123   122    2
    38   119   118   ar
    39   119   117   ar
    40   101   100    1
    41   118   116   ar
    42    96    97    1
    43   117   115   ar
    44    35    36    1
    45   122   121    1
    46    32    34    1
    47    32    33    1
    48   116   115   ar
    49   115   114    1
    50    41    39    1
    51    97   100    1
    52    97    98    1
    53   124   121    1
    54   124   125    1
    55    36    39    1
    56    36    37    1
    57   121   120    1
    58   113   112    2
    59   114   111    1
    60    57    56    2
    61    39    40    1
    62   112   111    1
    63    98    99    2
    64    37    38    2
    65   126   125    1
    66   126   127    1
    67   130   128    1
    68   111   110    1
    69    58    55    1
    70    58    59    1
    71    56    55    1
    72   108   107   ar
    73   110   104   am
    74   127   128    2
    75   128   129    1
    76    55    54    1
    77    59    60   ar
    78    59    61   ar
    79    54    44   am
    80    42    43    1
    81    60    62   ar
    82   107   109   ar
    83   107   106    1
    84    61    63   ar
    85   104   105    2
    86   104   103    1
    87   102   103    1
    88    62    64   ar
    89    63    64   ar
    90    44    43    1
    91    44    45    2
    92    43    46    1
    93   103   106    1
    94    46    47    1
    95    49    47   ar
    96    49    51   ar
    97    47    48   ar
    98    51    52   ar
    99    89    88   ar
   100    48    50   ar
   101    52    53    1
   102    52    50   ar
   103    83    84    1
   104    84    85    1
   105    84    87    1
   106    72    74   ar
   107    72    70   ar
   108    85    86    2
   109    67    68    2
   110    67    66    1
   111    74    73   ar
   112    88    87    1
   113    88    90   ar
   114    70    69    1
   115    70    71   ar
   116    69    66    1
   117    66    65    1
   118    73    71   ar
   119    82    80   ar
   120    81    80   ar
   121    80    79    1
   122    79    76    1
   123    76    77    1
   124    76    75    1
   125    77    78    2
