@<TRIPOS>MOLECULE
tmp/5h08A00.pdb
 203 199 0 0 0
SMALL
GASTEIGER

@<TRIPOS>ATOM
      1  N         23.8500   -0.5190   50.2710 N.3   124  ILE124     -0.1245
      2  CA        24.9550   -1.2910   49.7120 C.3   124  ILE124      0.1561
      3  C         26.2400   -0.4680   49.8060 C.2   124  ILE124      0.2260
      4  O         26.9310   -0.2510   48.8420 O.2   124  ILE124     -0.2867
      5  CB        24.6540   -1.7790   48.2650 C.3   124  ILE124      0.0252
      6  CG1       23.2230   -2.3710   48.1230 C.3   124  ILE124      0.0019
      7  CG2       25.6550   -2.8570   47.8350 C.3   124  ILE124      0.0019
      8  CD1       22.7310   -2.3050   46.6660 C.3   124  ILE124      0.0001
      9  N         24.3210   -4.3520   53.7560 N.3   183  TYR183     -0.1241
     10  CA        25.4950   -5.1610   53.5470 C.3   183  TYR183      0.1605
     11  C         26.6600   -4.3920   54.0510 C.2   183  TYR183      0.2264
     12  O         26.8160   -3.2540   53.6790 O.2   183  TYR183     -0.2867
     13  CB        25.6990   -5.4420   52.0410 C.3   183  TYR183      0.0534
     14  CG        26.7070   -6.5540   51.7550 C.ar  183  TYR183     -0.0201
     15  CD1       28.0530   -6.3330   51.9170 C.ar  183  TYR183     -0.0009
     16  CD2       26.2980   -7.8080   51.3160 C.ar  183  TYR183     -0.0009
     17  CE1       28.9820   -7.3190   51.6560 C.ar  183  TYR183      0.0417
     18  CE2       27.2260   -8.8090   51.0560 C.ar  183  TYR183      0.0417
     19  CZ        28.5710   -8.5500   51.2340 C.ar  183  TYR183      0.1957
     20  OH        29.5340   -9.4870   51.0250 O.3   183  TYR183     -0.2866
     21  N         30.2520   -5.8920   54.4540 N.3   185  GLN185     -0.1231
     22  CA        31.6370   -6.4020   54.1400 C.3   185  GLN185      0.1698
     23  C         32.2630   -5.7550   52.9280 C.2   185  GLN185      0.2592
     24  O         32.1670   -6.2390   51.8190 O.2   185  GLN185     -0.2718
     25  CB        31.7420   -7.9540   54.0290 C.3   185  GLN185      0.0381
     26  CG        32.4730   -8.6110   55.1990 C.3   185  GLN185      0.0905
     27  CD        34.0060   -8.4190   55.1900 C.2   185  GLN185      0.2608
     28  OE1       34.7310   -9.1290   54.4690 O.2   185  GLN185     -0.2717
     29  NE2       34.5160   -7.5070   56.0460 N.am  185  GLN185     -0.0878
     30  N         32.9670   -4.6760   53.1820 N.am  186  TRP186     -0.1963
     31  CA        33.5000   -3.8400   52.1450 C.3   186  TRP186      0.1756
     32  C         34.9790   -3.7990   52.3490 C.2   186  TRP186      0.2461
     33  O         35.4390   -3.2280   53.3220 O.2   186  TRP186     -0.2730
     34  CB        32.8490   -2.4360   52.2300 C.3   186  TRP186      0.0590
     35  CG        31.4200   -2.5170   51.8610 C.ar  186  TRP186      0.0006
     36  CD1       30.3580   -2.3780   52.6810 C.ar  186  TRP186      0.0946
     37  CD2       30.9050   -2.8700   50.5830 C.ar  186  TRP186      0.0152
     38  NE1       29.1890   -2.5740   51.9850 N.ar  186  TRP186     -0.2442
     39  CE2       29.5050   -2.8810   50.6860 C.ar  186  TRP186      0.0810
     40  CE3       31.4970   -3.1530   49.3340 C.ar  186  TRP186      0.0012
     41  CZ2       28.6710   -3.1780   49.5850 C.ar  186  TRP186      0.0191
     42  CZ3       30.6740   -3.4340   48.2410 C.ar  186  TRP186      0.0001
     43  CH2       29.2770   -3.4470   48.3800 C.ar  186  TRP186      0.0015
     44  N         35.7390   -4.4040   51.4350 N.am  187  PRO187     -0.2727
     45  CA        37.1130   -4.6770   51.8320 C.3   187  PRO187      0.1402
     46  C         37.9360   -3.3730   51.8470 C.2   187  PRO187      0.2269
     47  O         37.6810   -2.4290   51.0680 O.2   187  PRO187     -0.2865
     48  CB        37.5740   -5.6800   50.7570 C.3   187  PRO187      0.0296
     49  CG        36.7980   -5.2760   49.5150 C.3   187  PRO187      0.0237
     50  CD        35.5650   -4.5220   49.9720 C.3   187  PRO187      0.0939
     51  N         39.4240   -5.3020   45.8790 N.3   191  VAL191     -0.1231
     52  CA        38.1270   -5.0230   45.2850 C.3   191  VAL191      0.1678
     53  C         37.1780   -6.2080   45.5190 C.2   191  VAL191      0.2434
     54  O         37.6080   -7.3370   45.7220 O.2   191  VAL191     -0.2733
     55  CB        38.2230   -4.6630   43.7720 C.3   191  VAL191      0.0265
     56  CG1       38.2900   -3.1460   43.5670 C.3   191  VAL191      0.0020
     57  CG2       39.4250   -5.3430   43.1190 C.3   191  VAL191      0.0020
     58  N         35.8770   -5.9440   45.5020 N.am  192  PRO192     -0.2718
     59  CA        34.8390   -6.9180   45.8090 C.3   192  PRO192      0.1535
     60  C         34.7900   -8.1070   44.8610 C.2   192  PRO192      0.2598
     61  O         35.2180   -7.9410   43.7230 O.2   192  PRO192     -0.2715
     62  CB        33.5850   -6.0900   45.6080 C.3   192  PRO192      0.0310
     63  CG        33.9980   -4.7070   45.9780 C.3   192  PRO192      0.0237
     64  CD        35.3010   -4.5990   45.2890 C.3   192  PRO192      0.0939
     65  N         34.2520   -9.2600   45.3030 N.am  193  GLU193     -0.1964
     66  CA        34.1450  -10.4510   44.4280 C.3   193  GLU193      0.1733
     67  C         33.2870  -11.6630   44.8680 C.2   193  GLU193      0.2616
     68  O         32.6290  -12.2960   44.0340 O.2   193  GLU193     -0.2715
     69  CB        35.5500  -10.9860   44.1520 C.3   193  GLU193      0.0429
     70  CG        36.2090  -11.6230   45.3820 C.3   193  GLU193      0.1163
     71  CD        37.7270  -11.4210   45.4950 C.2   193  GLU193      0.3649
     72  OE1       38.4060  -12.3150   46.0540 O.co2 193  GLU193     -0.2457
     73  OE2       38.2460  -10.3630   45.0680 O.co2 193  GLU193     -0.2457
     74  N         33.3180  -11.9950   46.1580 N.am  194  TYR194     -0.1974
     75  CA        32.9930  -13.3610   46.6570 C.3   194  TYR194      0.1639
     76  C         31.5050  -13.6470   46.7890 C.2   194  TYR194      0.2290
     77  O         30.7740  -12.9140   47.4450 O.2   194  TYR194     -0.2864
     78  CB        33.7040  -13.5840   48.0190 C.3   194  TYR194      0.0560
     79  CG        33.3580  -14.8320   48.8760 C.ar  194  TYR194     -0.0198
     80  CD1       32.0990  -14.9800   49.4960 C.ar  194  TYR194     -0.0009
     81  CD2       34.3410  -15.8220   49.1580 C.ar  194  TYR194     -0.0009
     82  CE1       31.8280  -16.0960   50.2920 C.ar  194  TYR194      0.0417
     83  CE2       34.0510  -16.9260   49.9650 C.ar  194  TYR194      0.0417
     84  CZ        32.7890  -17.0520   50.5250 C.ar  194  TYR194      0.1957
     85  OH        32.4380  -18.1120   51.3280 O.3   194  TYR194     -0.2866
     86  N         26.8300  -12.6250   49.5360 N.3   198  VAL198     -0.1245
     87  CA        26.2510  -11.7000   48.5890 C.3   198  VAL198      0.1561
     88  C         24.9590  -12.3030   48.0570 C.2   198  VAL198      0.2260
     89  O         23.9420  -11.6590   48.0750 O.2   198  VAL198     -0.2867
     90  CB        27.2120  -11.4140   47.4190 C.3   198  VAL198      0.0252
     91  CG1       26.5300  -10.6500   46.3110 C.3   198  VAL198      0.0019
     92  CG2       28.4040  -10.6100   47.8850 C.3   198  VAL198      0.0019
     93  N         22.3990  -12.6140   50.8780 N.3   201  PHE201     -0.1227
     94  CA        21.9430  -11.2320   51.1190 C.3   201  PHE201      0.1736
     95  C         20.8360  -10.8680   50.1770 C.2   201  PHE201      0.2595
     96  O         19.8110  -10.3130   50.5580 O.2   201  PHE201     -0.2718
     97  CB        23.0960  -10.2400   50.9040 C.3   201  PHE201      0.0547
     98  CG        22.7250   -8.7910   51.1810 C.ar  201  PHE201     -0.0202
     99  CD1       22.4690   -8.3630   52.4870 C.ar  201  PHE201     -0.0042
    100  CD2       22.6340   -7.8690   50.1550 C.ar  201  PHE201     -0.0042
    101  CE1       22.1290   -7.0510   52.7730 C.ar  201  PHE201     -0.0003
    102  CE2       22.2830   -6.5460   50.4200 C.ar  201  PHE201     -0.0003
    103  CZ        22.0370   -6.1330   51.7360 C.ar  201  PHE201     -0.0000
    104  N         21.0420  -11.2210   48.9280 N.am  202  VAL202     -0.1980
    105  CA        20.0980  -10.8750   47.9140 C.3   202  VAL202      0.1595
    106  C         18.8840  -11.7660   48.0350 C.2   202  VAL202      0.2287
    107  O         17.7310  -11.3050   47.8900 O.2   202  VAL202     -0.2864
    108  CB        20.7400  -10.9260   46.5380 C.3   202  VAL202      0.0276
    109  CG1       19.7260  -10.5820   45.4710 C.3   202  VAL202      0.0022
    110  CG2       21.8790   -9.9190   46.4810 C.3   202  VAL202      0.0022
    111  N         23.3180    3.2180   47.3240 N.3   220  CYS220     -0.1235
    112  CA        24.7050    3.0360   47.6250 C.3   220  CYS220      0.1677
    113  C         25.1710    4.4670   48.0040 C.2   220  CYS220      0.2270
    114  O         24.5980    5.0670   48.9330 O.2   220  CYS220     -0.2867
    115  CB        25.4490    2.3700   46.4220 C.3   220  CYS220      0.0956
    116  SG        25.6500    3.2090   44.7860 S.3   220  CYS220     -0.0801
    117  N         26.3550    2.4900   40.6650 N.3   225  GLY225     -0.1210
    118  CA        27.1860    1.2850   40.4810 C.3   225  GLY225      0.1956
    119  C         26.6220    0.0700   41.1960 C.2   225  GLY225      0.2611
    120  O         25.9400   -0.7680   40.5670 O.2   225  GLY225     -0.2717
    121  N         26.8120    0.0250   42.5180 N.am  226  ARG226     -0.1979
    122  CA        26.3410   -1.1050   43.3420 C.3   226  ARG226      0.1597
    123  C         24.8250   -1.2560   43.2750 C.2   226  ARG226      0.2287
    124  O         24.2900   -2.3990   43.2030 O.2   226  ARG226     -0.2864
    125  CB        26.7680   -0.9110   44.8050 C.3   226  ARG226      0.0334
    126  CG        28.2660   -0.9430   44.9990 C.3   226  ARG226      0.0492
    127  CD        28.6510   -0.3550   46.3440 C.3   226  ARG226      0.2205
    128  NE        30.1060   -0.2490   46.4870 N.pl3 226  ARG226     -0.0865
    129  CZ        30.7760   -0.1660   47.6610 C.cat 226  ARG226      0.5346
    130  NH1       30.1290   -0.1930   48.8280 N.pl3 226  ARG226      0.1354
    131  NH2       32.1190   -0.0670   47.6650 N.pl3 226  ARG226      0.1354
    132  N         24.2470   -2.8120   40.3070 N.3   229  THR229     -0.1203
    133  CA        24.6990   -4.2010   40.3430 C.3   229  THR229      0.1994
    134  C         23.6420   -5.1170   40.9650 C.2   229  THR229      0.2617
    135  O         23.3670   -6.1830   40.4460 O.2   229  THR229     -0.2717
    136  CB        26.0660   -4.2710   40.9810 C.3   229  THR229      0.1784
    137  OG1       26.9240   -3.4560   40.1670 O.3   229  THR229     -0.2211
    138  CG2       26.5800   -5.7090   41.0290 C.3   229  THR229      0.0376
    139  N         22.9900   -4.6100   42.0090 N.am  230  TYR230     -0.1975
    140  CA        21.9650   -5.3220   42.7440 C.3   230  TYR230      0.1639
    141  C         20.6730   -5.4830   42.0230 C.2   230  TYR230      0.2290
    142  O         20.1070   -6.6130   41.9450 O.2   230  TYR230     -0.2864
    143  CB        21.6950   -4.5560   44.0050 C.3   230  TYR230      0.0560
    144  CG        20.4930   -5.0070   44.7340 C.ar  230  TYR230     -0.0198
    145  CD1       20.5930   -6.0540   45.6800 C.ar  230  TYR230     -0.0009
    146  CD2       19.2500   -4.3850   44.5290 C.ar  230  TYR230     -0.0009
    147  CE1       19.4870   -6.4870   46.3900 C.ar  230  TYR230      0.0417
    148  CE2       18.1220   -4.8040   45.2570 C.ar  230  TYR230      0.0417
    149  CZ        18.2520   -5.8710   46.1830 C.ar  230  TYR230      0.1957
    150  OH        17.1550   -6.3310   46.8940 O.3   230  TYR230     -0.2866
    151  N         21.3080   -8.3780   39.4460 N.3   233  LEU233     -0.1245
    152  CA        21.2880   -9.6350   40.1580 C.3   233  LEU233      0.1561
    153  C         19.8780   -9.9760   40.6310 C.2   233  LEU233      0.2260
    154  O         19.4240  -11.1030   40.4320 O.2   233  LEU233     -0.2867
    155  CB        22.2080   -9.5610   41.3470 C.3   233  LEU233      0.0270
    156  CG        23.6700   -9.4980   40.9470 C.3   233  LEU233      0.0019
    157  CD1       24.5110   -9.0950   42.1280 C.3   233  LEU233      0.0001
    158  CD2       24.1500  -10.8350   40.3570 C.3   233  LEU233      0.0001
    159  N         28.2770    0.8150   37.1450 N.3   264  GLN264     -0.1231
    160  CA        29.1100    1.9450   36.7530 C.3   264  GLN264      0.1698
    161  C         30.3690    1.5690   35.9500 C.2   264  GLN264      0.2592
    162  O         30.7960    2.3280   35.0440 O.2   264  GLN264     -0.2718
    163  CB        29.5110    2.6750   38.0060 C.3   264  GLN264      0.0381
    164  CG        30.2730    3.9980   37.8590 C.3   264  GLN264      0.0905
    165  CD        30.4140    4.7160   39.2210 C.2   264  GLN264      0.2608
    166  OE1       29.5060    4.6180   40.0700 O.2   264  GLN264     -0.2717
    167  NE2       31.5440    5.4080   39.4530 N.am  264  GLN264     -0.0878
    168  N         30.9430    0.4090   36.2790 N.am  265  THR265     -0.1953
    169  CA        32.1640   -0.0600   35.6780 C.3   265  THR265      0.1897
    170  C         32.0410   -1.4600   35.1750 C.2   265  THR265      0.2313
    171  O         31.2150   -2.2410   35.6460 O.2   265  THR265     -0.2863
    172  CB        33.2730   -0.2330   36.7250 C.3   265  THR265      0.1794
    173  OG1       33.0580   -1.4730   37.4260 O.3   265  THR265     -0.2208
    174  CG2       33.2960    0.9340   37.7090 C.3   265  THR265      0.0378
    175  N         34.0070   -3.9290   36.0480 N.3   267  GLU267     -0.1231
    176  CA        34.2660   -4.9440   37.1050 C.3   267  GLU267      0.1699
    177  C         32.9280   -5.3870   37.7100 C.2   267  GLU267      0.2592
    178  O         32.7510   -6.5030   38.1360 O.2   267  GLU267     -0.2718
    179  CB        35.2150   -4.3870   38.1940 C.3   267  GLU267      0.0402
    180  CG        36.7020   -4.3940   37.8210 C.3   267  GLU267      0.1161
    181  CD        37.1730   -3.2820   36.8560 C.2   267  GLU267      0.3649
    182  OE1       38.3120   -3.3530   36.3720 O.co2 267  GLU267     -0.2457
    183  OE2       36.4480   -2.3130   36.5720 O.co2 267  GLU267     -0.2457
    184  N         31.9850   -4.4810   37.7070 N.am  268  GLN268     -0.1979
    185  CA        30.7220   -4.7230   38.3320 C.3   268  GLN268      0.1601
    186  C         29.9860   -5.5940   37.4050 C.2   268  GLN268      0.2287
    187  O         29.4090   -6.6040   37.8110 O.2   268  GLN268     -0.2864
    188  CB        29.9630   -3.3870   38.5840 C.3   268  GLN268      0.0394
    189  CG        30.7430   -2.5020   39.5430 C.3   268  GLN268      0.0908
    190  CD        30.0570   -1.2490   39.9860 C.2   268  GLN268      0.2608
    191  OE1       29.4680   -0.5030   39.1690 O.2   268  GLN268     -0.2717
    192  NE2       30.1510   -0.9850   41.2780 N.am  268  GLN268     -0.0878
    193  N         31.5000   -8.9620   37.5230 N.3   271  PHE271     -0.1241
    194  CA        31.0310   -9.3890   38.8100 C.3   271  PHE271      0.1605
    195  C         29.6580   -9.9800   38.7040 C.2   271  PHE271      0.2264
    196  O         29.4580  -11.0730   39.1530 O.2   271  PHE271     -0.2867
    197  CB        31.0310   -8.2540   39.8360 C.3   271  PHE271      0.0534
    198  CG        30.5090   -8.6800   41.1580 C.ar  271  PHE271     -0.0203
    199  CD1       31.2900   -9.4440   41.9900 C.ar  271  PHE271     -0.0042
    200  CD2       29.2090   -8.4000   41.5360 C.ar  271  PHE271     -0.0042
    201  CE1       30.7860   -9.8600   43.2060 C.ar  271  PHE271     -0.0003
    202  CE2       28.7010   -8.8370   42.7340 C.ar  271  PHE271     -0.0003
    203  CZ        29.4930   -9.5430   43.5860 C.ar  271  PHE271     -0.0000
@<TRIPOS>BOND
     1   162   161    2
     2   170   171    2
     3   170   169    1
     4   169   168    1
     5   169   172    1
     6   161   168   am
     7   161   160    1
     8   175   176    1
     9   182   181   ar
    10   183   181   ar
    11   172   173    1
    12   172   174    1
    13   160   159    1
    14   160   163    1
    15   181   180    1
    16   176   177    1
    17   176   179    1
    18   186   187    2
    19   186   185    1
    20   193   194    1
    21   184   177   am
    22   184   185    1
    23   177   178    2
    24   180   179    1
    25   164   163    1
    26   164   165    1
    27   185   188    1
    28   188   189    1
    29   195   194    1
    30   195   196    2
    31   194   197    1
    32   191   190    2
    33   165   167   am
    34   165   166    2
    35   151   152    1
    36   189   190    1
    37   197   198    1
    38   190   192   am
    39   152   153    1
    40   152   155    1
    41   137   136    1
    42   132   133    1
    43   133   134    1
    44   133   136    1
    45   158   156    1
    46   154   153    2
    47   135   134    2
    48   118   117    1
    49   118   119    1
    50   120   119    2
    51   156   155    1
    52   156   157    1
    53   134   139   am
    54   136   138    1
    55   198   200   ar
    56   198   199   ar
    57   119   121   am
    58   200   202   ar
    59   142   141    2
    60   199   201   ar
    61   139   140    1
    62   141   140    1
    63   121   122    1
    64   202   203   ar
    65   140   143    1
    66    57    55    1
    67   124   123    2
    68   201   203   ar
    69   123   122    1
    70   122   125    1
    71    56    55    1
    72    61    60    2
    73    55    52    1
    74   143   144    1
    75    68    67    2
    76    69    66    1
    77    69    70    1
    78    66    67    1
    79    66    65    1
    80   146   144   ar
    81   146   148   ar
    82   144   145   ar
    83   116   115    1
    84   125   126    1
    85    60    65   am
    86    60    59    1
    87    67    74   am
    88   126   127    1
    89    73    71   ar
    90   148   149   ar
    91    52    53    1
    92    52    51    1
    93    64    58    1
    94    64    63    1
    95    70    71    1
    96   109   108    1
    97    71    72   ar
    98    58    53   am
    99    58    59    1
   100    53    54    2
   101    62    59    1
   102    62    63    1
   103   145   147   ar
   104    74    75    1
   105   149   147   ar
   106   149   150    1
   107    91    90    1
   108   127   128    1
   109   115   112    1
   110   110   108    1
   111   128   129    2
   112   108   105    1
   113    75    76    1
   114    75    78    1
   115     8     6    1
   116    76    77    2
   117   111   112    1
   118    90    92    1
   119    90    87    1
   120   112   113    1
   121   129   131    1
   122   129   130    1
   123     7     5    1
   124   107   106    2
   125   105   106    1
   126   105   104    1
   127   113   114    2
   128    78    79    1
   129    88    89    2
   130    88    87    1
   131     6     5    1
   132    42    43   ar
   133    42    40   ar
   134     5     2    1
   135    43    41   ar
   136    87    86    1
   137     4     3    2
   138    79    81   ar
   139    79    80   ar
   140   104    95   am
   141    81    83   ar
   142    40    37   ar
   143    80    82   ar
   144    49    50    1
   145    49    48    1
   146    41    39   ar
   147     2     3    1
   148     2     1    1
   149    83    84   ar
   150    50    44    1
   151   100   102   ar
   152   100    98   ar
   153    95    96    2
   154    95    94    1
   155    82    84   ar
   156   102   103   ar
   157    84    85    1
   158    37    39   ar
   159    37    35   ar
   160    39    38   ar
   161    48    45    1
   162    93    94    1
   163    97    94    1
   164    97    98    1
   165    20    19    1
   166    18    19   ar
   167    18    16   ar
   168    47    46    2
   169    98    99   ar
   170    19    17   ar
   171    16    14   ar
   172    44    45    1
   173    44    32   am
   174    17    15   ar
   175   103   101   ar
   176    14    15   ar
   177    14    13    1
   178    24    23    2
   179    45    46    1
   180    35    34    1
   181    35    36   ar
   182    38    36   ar
   183    13    10    1
   184    31    34    1
   185    31    32    1
   186    31    30    1
   187    32    33    2
   188    99   101   ar
   189    23    30   am
   190    23    22    1
   191    10     9    1
   192    10    11    1
   193    12    11    2
   194    25    22    1
   195    25    26    1
   196    22    21    1
   197    28    27    2
   198    27    26    1
   199    27    29   am
