@<TRIPOS>MOLECULE
tmp/5h09A00.pdb
 171 158 0 0 0
SMALL
GASTEIGER

@<TRIPOS>ATOM
      1  N          5.8020   -4.9000    6.2690 N.3   189  LEU189     -0.1231
      2  CA         6.6680   -4.0620    5.4500 C.3   189  LEU189      0.1693
      3  C          6.4620   -2.5770    5.7010 C.2   189  LEU189      0.2593
      4  O          7.3780   -1.7800    5.4600 O.2   189  LEU189     -0.2718
      5  CB         6.4390   -4.3660    3.9680 C.3   189  LEU189      0.0284
      6  CG         6.6920   -5.8090    3.5240 C.3   189  LEU189      0.0019
      7  CD1        6.3500   -5.9750    2.0540 C.3   189  LEU189      0.0001
      8  CD2        8.1440   -6.2030    3.7900 C.3   189  LEU189      0.0001
      9  N          5.2860   -2.1840    6.1640 N.am  190  GLY190     -0.1942
     10  CA         5.0230   -0.7810    6.3960 C.3   190  GLY190      0.2014
     11  C          3.6500   -0.5930    7.0020 C.2   190  GLY190      0.2639
     12  O          2.7800   -1.4650    6.9180 O.2   190  GLY190     -0.2714
     13  N          3.4810    0.5650    7.6310 N.am  191  ALA191     -0.1963
     14  CA         2.2160    0.9690    8.2220 C.3   191  ALA191      0.1728
     15  C          1.8370    2.3290    7.6600 C.2   191  ALA191      0.2616
     16  O          2.6880    3.2150    7.5360 O.2   191  ALA191     -0.2715
     17  CB         2.3000    1.0280    9.7500 C.3   191  ALA191      0.0334
     18  N          0.5600    2.4860    7.3070 N.am  192  GLY192     -0.1955
     19  CA         0.0790    3.7070    6.6970 C.3   192  GLY192      0.1869
     20  C         -1.1610    4.2350    7.3970 C.2   192  GLY192      0.2309
     21  O         -1.6230    3.6770    8.3940 O.2   192  GLY192     -0.2863
     22  N          1.0300   -2.9590    5.0420 N.3   197  VAL197     -0.1245
     23  CA         1.4520   -3.8430    3.9630 C.3   197  VAL197      0.1561
     24  C          2.3450   -4.9270    4.5480 C.2   197  VAL197      0.2260
     25  O          3.2990   -4.6330    5.2810 O.2   197  VAL197     -0.2867
     26  CB         2.1830   -3.0930    2.8320 C.3   197  VAL197      0.0252
     27  CG1        2.6420   -4.0770    1.7600 C.3   197  VAL197      0.0019
     28  CG2        1.2780   -2.0350    2.2180 C.3   197  VAL197      0.0019
     29  N          2.5810   -9.9490   -1.6110 N.3   209  ALA209     -0.1245
     30  CA         2.3710   -8.8330   -0.7020 C.3   209  ALA209      0.1562
     31  C          0.8810   -8.6950   -0.4310 C.2   209  ALA209      0.2260
     32  O          0.0560   -8.9350   -1.3190 O.2   209  ALA209     -0.2867
     33  CB         2.9160   -7.5280   -1.2810 C.3   209  ALA209      0.0290
     34  N         -1.8440   -5.9310    1.2400 N.3   211  LYS211     -0.1245
     35  CA        -2.2570   -4.6830    1.8660 C.3   211  LYS211      0.1561
     36  C         -3.5100   -4.9550    2.6910 C.2   211  LYS211      0.2260
     37  O         -4.5270   -5.4130    2.1550 O.2   211  LYS211     -0.2867
     38  CB        -2.5150   -3.5890    0.8290 C.3   211  LYS211      0.0271
     39  CG        -2.9990   -2.2820    1.4550 C.3   211  LYS211      0.0035
     40  CD        -2.9140   -1.1000    0.4980 C.3   211  LYS211      0.0206
     41  CE        -1.4890   -0.5710    0.3940 C.3   211  LYS211      0.1093
     42  NZ        -1.4040    0.6830   -0.4100 N.3   211  LYS211     -0.1314
     43  N         -9.9200   -2.8330  -11.3650 N.3   230  MET230     -0.1245
     44  CA        -8.4730   -2.7760  -11.1660 C.3   230  MET230      0.1570
     45  C         -7.7860   -4.0180  -11.7140 C.2   230  MET230      0.2261
     46  O         -6.7580   -3.9200  -12.3920 O.2   230  MET230     -0.2867
     47  CB        -8.1490   -2.6310   -9.6810 C.3   230  MET230      0.0387
     48  CG        -8.5640   -1.3240   -9.0370 C.3   230  MET230      0.0595
     49  SD        -8.2990   -1.4740   -7.2630 S.3   230  MET230     -0.1393
     50  CE        -8.8050    0.1440   -6.6890 C.3   230  MET230      0.0692
     51  N          1.4110   -2.7300  -10.9740 N.3   239  VAL239     -0.1245
     52  CA         1.5140   -3.8840  -10.0920 C.3   239  VAL239      0.1561
     53  C          0.2920   -4.7730  -10.2820 C.2   239  VAL239      0.2260
     54  O         -0.8390   -4.2900  -10.4350 O.2   239  VAL239     -0.2867
     55  CB         1.6800   -3.4400   -8.6280 C.3   239  VAL239      0.0252
     56  CG1        0.3850   -2.8330   -8.0920 C.3   239  VAL239      0.0019
     57  CG2        2.1410   -4.6110   -7.7660 C.3   239  VAL239      0.0019
     58  N         -2.6930   -7.1710   -9.4440 N.3   241  LEU241     -0.1245
     59  CA        -3.6040   -7.6200   -8.3960 C.3   241  LEU241      0.1561
     60  C         -3.8720   -9.1080   -8.5740 C.2   241  LEU241      0.2260
     61  O         -4.3580   -9.5350   -9.6270 O.2   241  LEU241     -0.2867
     62  CB        -4.9240   -6.8530   -8.4340 C.3   241  LEU241      0.0270
     63  CG        -5.0200   -5.5050   -7.7300 C.3   241  LEU241      0.0019
     64  CD1       -4.3860   -4.4260   -8.5860 C.3   241  LEU241      0.0001
     65  CD2       -6.4710   -5.1730   -7.4230 C.3   241  LEU241      0.0001
     66  N         -5.8490   -6.9170    0.2210 N.3   252  ILE252     -0.1245
     67  CA        -5.5460   -6.8110   -1.2020 C.3   252  ILE252      0.1561
     68  C         -4.2360   -7.5450   -1.4440 C.2   252  ILE252      0.2260
     69  O         -3.2100   -7.2060   -0.8390 O.2   252  ILE252     -0.2867
     70  CB        -5.4480   -5.3490   -1.6620 C.3   252  ILE252      0.0252
     71  CG1       -6.7020   -4.5720   -1.2450 C.3   252  ILE252      0.0019
     72  CG2       -5.2480   -5.2870   -3.1690 C.3   252  ILE252      0.0019
     73  CD1       -6.6020   -3.0810   -1.4970 C.3   252  ILE252      0.0001
     74  N         -1.2520   -8.7720   -3.9650 N.3   254  THR254     -0.1203
     75  CA        -0.5500   -8.3760   -5.1750 C.3   254  THR254      0.1994
     76  C          0.7870   -9.1020   -5.2340 C.2   254  THR254      0.2618
     77  O          1.2100   -9.7480   -4.2720 O.2   254  THR254     -0.2717
     78  CB        -0.3010   -6.8580   -5.2180 C.3   254  THR254      0.1784
     79  OG1        0.7510   -6.5230   -4.2950 O.3   254  THR254     -0.2211
     80  CG2       -1.5670   -6.0830   -4.8510 C.3   254  THR254      0.0376
     81  N          1.4640   -8.9810   -6.3720 N.am  255  GLU255     -0.1965
     82  CA         2.8390   -9.4560   -6.4500 C.3   255  GLU255      0.1733
     83  C          3.7170   -8.6760   -5.4760 C.2   255  GLU255      0.2616
     84  O          3.4870   -7.4930   -5.2070 O.2   255  GLU255     -0.2715
     85  CB         3.3720   -9.3280   -7.8790 C.3   255  GLU255      0.0429
     86  CG         3.2860   -7.9320   -8.4610 C.3   255  GLU255      0.1163
     87  CD         3.7680   -7.8630   -9.9010 C.2   255  GLU255      0.3649
     88  OE1        4.5900   -8.7160  -10.3050 O.co2 255  GLU255     -0.2457
     89  OE2        3.3240   -6.9520  -10.6300 O.co2 255  GLU255     -0.2457
     90  N          4.7200   -9.3590   -4.9260 N.am  256  PHE256     -0.1960
     91  CA         5.6550   -8.7530   -3.9900 C.3   256  PHE256      0.1771
     92  C          6.7910   -8.0610   -4.7420 C.2   256  PHE256      0.2619
     93  O          7.3360   -8.6030   -5.7070 O.2   256  PHE256     -0.2715
     94  CB         6.2070   -9.8190   -3.0390 C.3   256  PHE256      0.0574
     95  CG         7.3700   -9.3610   -2.2130 C.ar  256  PHE256     -0.0200
     96  CD1        7.1720   -8.6270   -1.0550 C.ar  256  PHE256     -0.0042
     97  CD2        8.6690   -9.6920   -2.5800 C.ar  256  PHE256     -0.0042
     98  CE1        8.2480   -8.2150   -0.2870 C.ar  256  PHE256     -0.0003
     99  CE2        9.7420   -9.2810   -1.8220 C.ar  256  PHE256     -0.0003
    100  CZ         9.5350   -8.5430   -0.6760 C.ar  256  PHE256     -0.0000
    101  N          7.1420   -6.8580   -4.2940 N.am  257  MET257     -0.1977
    102  CA         8.1410   -6.0230   -4.9580 C.3   257  MET257      0.1605
    103  C          9.3150   -5.8210   -4.0070 C.2   257  MET257      0.2287
    104  O          9.1950   -5.1130   -3.0010 O.2   257  MET257     -0.2864
    105  CB         7.5290   -4.6910   -5.3950 C.3   257  MET257      0.0413
    106  CG         6.5030   -4.8230   -6.5170 C.3   257  MET257      0.0598
    107  SD         7.2600   -5.1730   -8.1190 S.3   257  MET257     -0.1393
    108  CE         6.8090   -6.8860   -8.3530 C.3   257  MET257      0.0692
    109  N         10.6000   -2.2790   -2.5330 N.3   260  GLY260     -0.1210
    110  CA         9.7010   -1.3360   -1.8890 C.3   260  GLY260      0.1956
    111  C          9.2480   -0.2210   -2.8170 C.2   260  GLY260      0.2612
    112  O          9.1530   -0.3840   -4.0370 O.2   260  GLY260     -0.2717
    113  N          8.9580    0.9340   -2.2250 N.am  261  SER261     -0.1952
    114  CA         8.4860    2.0440   -3.0330 C.3   261  SER261      0.1924
    115  C          9.6590    2.7620   -3.6860 C.2   261  SER261      0.2314
    116  O         10.8050    2.6860   -3.2310 O.2   261  SER261     -0.2863
    117  CB         7.6640    3.0320   -2.2020 C.3   261  SER261      0.2116
    118  OG         8.4740    3.7240   -1.2660 O.3   261  SER261     -0.2180
    119  N         11.2340    4.9660   -1.1440 N.3   264  ASP264     -0.1239
    120  CA        12.1920    4.2110   -0.3390 C.3   264  ASP264      0.1674
    121  C         13.4780    3.9740   -1.1120 C.2   264  ASP264      0.2266
    122  O         14.5820    4.1450   -0.5800 O.2   264  ASP264     -0.2867
    123  CB        11.6070    2.8580    0.0780 C.3   264  ASP264      0.1410
    124  CG        10.3660    2.9840    0.9370 C.2   264  ASP264      0.3668
    125  OD1       10.0660    4.0990    1.4120 O.co2 264  ASP264     -0.2456
    126  OD2        9.6870    1.9500    1.1250 O.co2 264  ASP264     -0.2456
    127  N          5.8030    7.5250   -3.5390 N.3   306  ALA306     -0.1245
    128  CA         5.4210    6.5430   -2.5270 C.3   306  ALA306      0.1562
    129  C          4.4910    5.4640   -3.0720 C.2   306  ALA306      0.2260
    130  O          4.3840    4.3950   -2.4590 O.2   306  ALA306     -0.2867
    131  CB         4.7530    7.2370   -1.3350 C.3   306  ALA306      0.0290
    132  N          6.2220    1.1800   -7.0200 N.3   309  LEU309     -0.1245
    133  CA         7.0130    0.1000   -6.4520 C.3   309  LEU309      0.1561
    134  C          8.1570   -0.2530   -7.3940 C.2   309  LEU309      0.2260
    135  O          8.1110    0.0300   -8.5910 O.2   309  LEU309     -0.2867
    136  CB         6.1480   -1.1370   -6.1830 C.3   309  LEU309      0.0270
    137  CG         4.8980   -0.9020   -5.3260 C.3   309  LEU309      0.0019
    138  CD1        4.0060   -2.1300   -5.3280 C.3   309  LEU309      0.0001
    139  CD2        5.2820   -0.5160   -3.8980 C.3   309  LEU309      0.0001
    140  N          1.3490    1.4550   -8.2680 N.3   319  ALA319     -0.1231
    141  CA         0.5180    0.8350   -7.2520 C.3   319  ALA319      0.1694
    142  C         -0.5760    1.8000   -6.8130 C.2   319  ALA319      0.2592
    143  O         -0.5300    3.0010   -7.0920 O.2   319  ALA319     -0.2718
    144  CB         1.3560    0.3960   -6.0420 C.3   319  ALA319      0.0304
    145  N         -1.5820    1.2390   -6.1350 N.am  320  ASP320     -0.1960
    146  CA        -2.6790    2.0020   -5.5250 C.3   320  ASP320      0.1840
    147  C         -3.5130    2.7590   -6.5510 C.2   320  ASP320      0.2622
    148  O         -4.1720    3.7480   -6.2100 O.2   320  ASP320     -0.2715
    149  CB        -2.1600    2.9790   -4.4610 C.3   320  ASP320      0.1450
    150  CG        -2.0030    2.3300   -3.1030 C.2   320  ASP320      0.3671
    151  OD1       -2.1480    1.0960   -3.0130 O.co2 320  ASP320     -0.2456
    152  OD2       -1.7490    3.0620   -2.1190 O.co2 320  ASP320     -0.2456
    153  N         -3.5070    2.3120   -7.8080 N.am  321  PHE321     -0.1974
    154  CA        -4.2780    2.9980   -8.8360 C.3   321  PHE321      0.1639
    155  C         -5.7660    2.8300   -8.5510 C.2   321  PHE321      0.2290
    156  O         -6.2570    1.7070   -8.3790 O.2   321  PHE321     -0.2864
    157  CB        -3.9160    2.5000  -10.2390 C.3   321  PHE321      0.0560
    158  CG        -3.6980    1.0140  -10.3430 C.ar  321  PHE321     -0.0200
    159  CD1       -4.7520    0.1640  -10.6530 C.ar  321  PHE321     -0.0042
    160  CD2       -2.4270    0.4710  -10.1890 C.ar  321  PHE321     -0.0042
    161  CE1       -4.5530   -1.2050  -10.7700 C.ar  321  PHE321     -0.0003
    162  CE2       -2.2190   -0.8960  -10.3020 C.ar  321  PHE321     -0.0003
    163  CZ        -3.2850   -1.7350  -10.5900 C.ar  321  PHE321     -0.0000
    164  N         -7.3100    3.4460   -5.8550 N.3   323  LEU323     -0.1245
    165  CA        -7.6500    3.0310   -4.4980 C.3   323  LEU323      0.1561
    166  C         -8.2480    4.1730   -3.6850 C.2   323  LEU323      0.2260
    167  O         -9.1380    3.9470   -2.8570 O.2   323  LEU323     -0.2867
    168  CB        -6.4160    2.4730   -3.7870 C.3   323  LEU323      0.0270
    169  CG        -6.6970    1.8580   -2.4100 C.3   323  LEU323      0.0019
    170  CD1       -7.6020    0.6470   -2.5370 C.3   323  LEU323      0.0001
    171  CD2       -5.3960    1.4790   -1.6980 C.3   323  LEU323      0.0001
@<TRIPOS>BOND
     1    46    45    2
     2    45    44    1
     3    43    44    1
     4    44    47    1
     5    51    52    1
     6   161   159   ar
     7   161   163   ar
     8   159   158   ar
     9    89    87   ar
    10   163   162   ar
    11    54    53    2
    12   158   157    1
    13   158   160   ar
    14    88    87   ar
    15   162   160   ar
    16    53    52    1
    17   157   154    1
    18    52    55    1
    19    87    86    1
    20    47    48    1
    21    61    60    2
    22    58    59    1
    23    48    49    1
    24   154   155    1
    25   154   153    1
    26    55    56    1
    27    55    57    1
    28   135   134    2
    29    64    63    1
    30    60    59    1
    31   155   156    2
    32    86    85    1
    33    62    59    1
    34    62    63    1
    35   108   107    1
    36   140   141    1
    37   107   106    1
    38    85    82    1
    39   153   147   am
    40    63    65    1
    41   134   133    1
    42    49    50    1
    43   141   142    1
    44   141   144    1
    45   143   142    2
    46   132   133    1
    47   142   145   am
    48   147   148    2
    49   147   146    1
    50   106   105    1
    51   133   136    1
    52    82    81    1
    53    82    83    1
    54    81    76   am
    55   136   137    1
    56   145   146    1
    57   164   165    1
    58    93    92    2
    59   146   149    1
    60    83    84    2
    61    83    90   am
    62   105   102    1
    63   138   137    1
    64   137   139    1
    65    76    75    1
    66    76    77    2
    67    78    75    1
    68    78    80    1
    69    78    79    1
    70    75    74    1
    71   102   101    1
    72   102   103    1
    73    90    91    1
    74    92   101   am
    75    92    91    1
    76   165   168    1
    77   165   166    1
    78   149   150    1
    79   112   111    2
    80   103   104    2
    81    91    94    1
    82   168   169    1
    83   115   116    2
    84   115   114    1
    85   166   167    2
    86   127   128    1
    87    72    70    1
    88   150   151   ar
    89   150   152   ar
    90   129   128    1
    91   129   130    2
    92    94    95    1
    93   114   113    1
    94   114   117    1
    95   111   113   am
    96   111   110    1
    97    97    95   ar
    98    97    99   ar
    99   170   169    1
   100   109   110    1
   101   128   131    1
   102   169   171    1
   103    95    96   ar
   104   117   118    1
   105    99   100   ar
   106    70    71    1
   107    70    67    1
   108    29    30    1
   109    73    71    1
   110    68    67    1
   111    68    69    2
   112    32    31    2
   113    33    30    1
   114    67    66    1
   115   119   120    1
   116   121   122    2
   117   121   120    1
   118    96    98   ar
   119    30    31    1
   120   100    98   ar
   121    42    41    1
   122   120   123    1
   123   123   124    1
   124    41    40    1
   125    40    39    1
   126    38    39    1
   127    38    35    1
   128   124   126   ar
   129   124   125   ar
   130    34    35    1
   131    27    26    1
   132    35    36    1
   133     7     6    1
   134    37    36    2
   135    28    26    1
   136    26    23    1
   137     6     8    1
   138     6     5    1
   139    23    24    1
   140    23    22    1
   141     5     2    1
   142    24    25    2
   143     2     3    1
   144     2     1    1
   145     4     3    2
   146     3     9   am
   147     9    10    1
   148    10    11    1
   149    19    18    1
   150    19    20    1
   151    12    11    2
   152    11    13   am
   153    18    15   am
   154    20    21    2
   155    16    15    2
   156    13    14    1
   157    15    14    1
   158    14    17    1
