@<TRIPOS>MOLECULE
tmp/5h0gA00.pdb
 184 170 0 0 0
SMALL
GASTEIGER

@<TRIPOS>ATOM
      1  N          5.4320   -5.2490    6.4020 N.3   189  LEU189     -0.1231
      2  CA         6.3290   -4.3860    5.6410 C.3   189  LEU189      0.1693
      3  C          6.1590   -2.9270    6.0310 C.2   189  LEU189      0.2593
      4  O          7.0620   -2.1180    5.8580 O.2   189  LEU189     -0.2718
      5  CB         6.0900   -4.5530    4.1450 C.3   189  LEU189      0.0284
      6  CG         6.3440   -5.9350    3.5420 C.3   189  LEU189      0.0019
      7  CD1        5.9020   -5.9600    2.0980 C.3   189  LEU189      0.0001
      8  CD2        7.8280   -6.3100    3.6670 C.3   189  LEU189      0.0001
      9  N          4.9850   -2.5900    6.5490 N.am  190  GLY190     -0.1942
     10  CA         4.7220   -1.2290    6.9710 C.3   190  GLY190      0.2014
     11  C          3.2940   -1.0400    7.4320 C.2   190  GLY190      0.2638
     12  O          2.4200   -1.8540    7.1400 O.2   190  GLY190     -0.2714
     13  N          3.0650    0.0370    8.1730 N.am  191  ALA191     -0.1977
     14  CA         1.7230    0.3870    8.6170 C.3   191  ALA191      0.1597
     15  C          1.4140    1.8090    8.1800 C.2   191  ALA191      0.2287
     16  O          2.2220    2.7170    8.3790 O.2   191  ALA191     -0.2864
     17  CB         1.5950    0.2390   10.1250 C.3   191  ALA191      0.0319
     18  N          0.7400   -3.2380    5.1350 N.3   197  VAL197     -0.1245
     19  CA         1.1310   -4.1300    4.0480 C.3   197  VAL197      0.1561
     20  C          2.0330   -5.2270    4.6020 C.2   197  VAL197      0.2260
     21  O          2.9610   -4.9520    5.3700 O.2   197  VAL197     -0.2867
     22  CB         1.8450   -3.3930    2.9030 C.3   197  VAL197      0.0252
     23  CG1        2.2510   -4.3710    1.8110 C.3   197  VAL197      0.0019
     24  CG2        0.9480   -2.2930    2.3250 C.3   197  VAL197      0.0019
     25  N          2.2790   -9.9860   -1.8210 N.3   209  ALA209     -0.1245
     26  CA         2.0820   -8.9100   -0.8660 C.3   209  ALA209      0.1562
     27  C          0.5930   -8.8240   -0.5630 C.2   209  ALA209      0.2260
     28  O         -0.2360   -9.0930   -1.4310 O.2   209  ALA209     -0.2867
     29  CB         2.6020   -7.5910   -1.4110 C.3   209  ALA209      0.0290
     30  N         -2.1650   -6.0830    1.1010 N.3   211  LYS211     -0.1245
     31  CA        -2.5070   -4.8210    1.7370 C.3   211  LYS211      0.1561
     32  C         -3.7410   -5.0660    2.5960 C.2   211  LYS211      0.2260
     33  O         -4.7780   -5.4960    2.0790 O.2   211  LYS211     -0.2867
     34  CB        -2.7630   -3.7150    0.7080 C.3   211  LYS211      0.0271
     35  CG        -3.2210   -2.3770    1.3420 C.3   211  LYS211      0.0035
     36  CD        -3.0950   -1.2060    0.3690 C.3   211  LYS211      0.0206
     37  CE        -1.6390   -0.7020    0.2950 C.3   211  LYS211      0.1093
     38  NZ        -1.5160    0.6460   -0.3500 N.3   211  LYS211     -0.1314
     39  N        -10.0960   -2.7060  -11.5220 N.3   230  MET230     -0.1245
     40  CA        -8.6500   -2.6900  -11.2840 C.3   230  MET230      0.1570
     41  C         -7.9680   -3.9370  -11.8210 C.2   230  MET230      0.2261
     42  O         -6.9250   -3.8530  -12.4480 O.2   230  MET230     -0.2867
     43  CB        -8.3440   -2.5840   -9.7890 C.3   230  MET230      0.0387
     44  CG        -8.8770   -1.3330   -9.1090 C.3   230  MET230      0.0595
     45  SD        -8.5390   -1.5030   -7.3530 S.3   230  MET230     -0.1393
     46  CE        -8.9080    0.1580   -6.7770 C.3   230  MET230      0.0692
     47  N          1.2600   -2.6500  -10.9690 N.3   239  VAL239     -0.1245
     48  CA         1.3640   -3.8110  -10.1150 C.3   239  VAL239      0.1561
     49  C          0.1430   -4.7090  -10.3400 C.2   239  VAL239      0.2260
     50  O         -0.9930   -4.2410  -10.4460 O.2   239  VAL239     -0.2867
     51  CB         1.5030   -3.4290   -8.6240 C.3   239  VAL239      0.0252
     52  CG1        0.2200   -2.8320   -8.0880 C.3   239  VAL239      0.0019
     53  CG2        1.8860   -4.6560   -7.7960 C.3   239  VAL239      0.0019
     54  N         -2.8140   -7.0710   -9.6320 N.3   241  LEU241     -0.1245
     55  CA        -3.7610   -7.4040   -8.5920 C.3   241  LEU241      0.1561
     56  C         -4.2170   -8.8490   -8.8240 C.2   241  LEU241      0.2260
     57  O         -4.8530   -9.1470   -9.8380 O.2   241  LEU241     -0.2867
     58  CB        -4.9300   -6.4100   -8.6210 C.3   241  LEU241      0.0270
     59  CG        -6.1300   -6.5690   -7.7020 C.3   241  LEU241      0.0019
     60  CD1       -5.6700   -6.7630   -6.2830 C.3   241  LEU241      0.0001
     61  CD2       -7.0510   -5.3530   -7.8210 C.3   241  LEU241      0.0001
     62  N         -6.0730   -7.0070    0.0780 N.3   252  ILE252     -0.1245
     63  CA        -5.7840   -6.8520   -1.3340 C.3   252  ILE252      0.1561
     64  C         -4.4810   -7.5930   -1.6140 C.2   252  ILE252      0.2260
     65  O         -3.4610   -7.2760   -1.0220 O.2   252  ILE252     -0.2867
     66  CB        -5.6470   -5.3660   -1.7250 C.3   252  ILE252      0.0252
     67  CG1       -6.9090   -4.5860   -1.3280 C.3   252  ILE252      0.0019
     68  CG2       -5.3480   -5.2240   -3.2050 C.3   252  ILE252      0.0019
     69  CD1       -6.7410   -3.0850   -1.3800 C.3   252  ILE252      0.0001
     70  N         -1.4660   -8.7630   -4.0610 N.3   254  THR254     -0.1203
     71  CA        -0.7680   -8.3720   -5.2730 C.3   254  THR254      0.1994
     72  C          0.5760   -9.0920   -5.3930 C.2   254  THR254      0.2618
     73  O          1.0220   -9.7500   -4.4600 O.2   254  THR254     -0.2717
     74  CB        -0.4910   -6.8560   -5.3160 C.3   254  THR254      0.1784
     75  OG1        0.5670   -6.5570   -4.3880 O.3   254  THR254     -0.2211
     76  CG2       -1.7680   -6.0360   -4.9610 C.3   254  THR254      0.0376
     77  N          1.2220   -8.9460   -6.5380 N.am  255  GLU255     -0.1965
     78  CA         2.5900   -9.4350   -6.6720 C.3   255  GLU255      0.1733
     79  C          3.4770   -8.7120   -5.6570 C.2   255  GLU255      0.2616
     80  O          3.2280   -7.5540   -5.3190 O.2   255  GLU255     -0.2715
     81  CB         3.1100   -9.2320   -8.0950 C.3   255  GLU255      0.0429
     82  CG         3.1690   -7.7830   -8.5400 C.3   255  GLU255      0.1163
     83  CD         3.6520   -7.6250   -9.9660 C.2   255  GLU255      0.3649
     84  OE1        4.6160   -8.3260  -10.3540 O.co2 255  GLU255     -0.2457
     85  OE2        3.0690   -6.8060  -10.7030 O.co2 255  GLU255     -0.2457
     86  N          4.4930   -9.4090   -5.1610 N.am  256  PHE256     -0.1960
     87  CA         5.4530   -8.8240   -4.2280 C.3   256  PHE256      0.1771
     88  C          6.5870   -8.0800   -4.9640 C.2   256  PHE256      0.2619
     89  O          7.1750   -8.5830   -5.9320 O.2   256  PHE256     -0.2715
     90  CB         6.0260   -9.9140   -3.3210 C.3   256  PHE256      0.0574
     91  CG         7.1200   -9.4460   -2.4260 C.ar  256  PHE256     -0.0200
     92  CD1        6.8300   -8.7570   -1.2660 C.ar  256  PHE256     -0.0042
     93  CD2        8.4460   -9.7120   -2.7330 C.ar  256  PHE256     -0.0042
     94  CE1        7.8400   -8.3300   -0.4280 C.ar  256  PHE256     -0.0003
     95  CE2        9.4630   -9.2840   -1.8970 C.ar  256  PHE256     -0.0003
     96  CZ         9.1600   -8.5960   -0.7480 C.ar  256  PHE256     -0.0000
     97  N          6.8800   -6.8680   -4.5100 N.am  257  MET257     -0.1977
     98  CA         7.8930   -6.0510   -5.1630 C.3   257  MET257      0.1605
     99  C          9.0730   -5.8780   -4.2060 C.2   257  MET257      0.2287
    100  O          8.9750   -5.2030   -3.1800 O.2   257  MET257     -0.2864
    101  CB         7.2990   -4.7070   -5.6030 C.3   257  MET257      0.0413
    102  CG         6.1920   -4.8700   -6.6620 C.3   257  MET257      0.0598
    103  SD         6.9180   -5.2940   -8.2540 S.3   257  MET257     -0.1393
    104  CE         7.4940   -3.6710   -8.7700 C.3   257  MET257      0.0692
    105  N         10.3910   -2.4350   -2.7530 N.3   260  GLY260     -0.1210
    106  CA         9.4480   -1.5750   -2.0410 C.3   260  GLY260      0.1956
    107  C          9.0640   -0.3270   -2.8080 C.2   260  GLY260      0.2612
    108  O          8.9910   -0.3370   -4.0270 O.2   260  GLY260     -0.2717
    109  N          8.8210    0.7630   -2.0920 N.am  261  SER261     -0.1952
    110  CA         8.3900    1.9910   -2.7330 C.3   261  SER261      0.1924
    111  C          9.5310    2.7040   -3.4330 C.2   261  SER261      0.2314
    112  O         10.6510    2.7580   -2.9140 O.2   261  SER261     -0.2863
    113  CB         7.7700    2.9240   -1.7000 C.3   261  SER261      0.2116
    114  OG         7.5070    4.1710   -2.2760 O.3   261  SER261     -0.2180
    115  N          9.8410    5.8220   -3.5910 N.3   263  LEU263     -0.1231
    116  CA        10.2720    6.8940   -2.6950 C.3   263  LEU263      0.1693
    117  C         11.3440    6.3750   -1.7470 C.2   263  LEU263      0.2592
    118  O         12.3900    7.0130   -1.5630 O.2   263  LEU263     -0.2718
    119  CB         9.0950    7.4600   -1.8970 C.3   263  LEU263      0.0284
    120  CG         9.4150    8.6390   -0.9590 C.3   263  LEU263      0.0019
    121  CD1       10.0460    9.7990   -1.7370 C.3   263  LEU263      0.0001
    122  CD2        8.1680    9.1300   -0.2200 C.3   263  LEU263      0.0001
    123  N         11.0990    5.2090   -1.1560 N.am  264  ASP264     -0.1974
    124  CA        12.1130    4.6320   -0.2590 C.3   264  ASP264      0.1709
    125  C         13.3700    4.2460   -1.0120 C.2   264  ASP264      0.2293
    126  O         14.4780    4.4280   -0.5050 O.2   264  ASP264     -0.2864
    127  CB        11.5620    3.4170    0.4650 C.3   264  ASP264      0.1436
    128  CG        10.4690    3.7830    1.4510 C.2   264  ASP264      0.3671
    129  OD1       10.6100    4.8120    2.1590 O.co2 264  ASP264     -0.2456
    130  OD2        9.4940    3.0180    1.5220 O.co2 264  ASP264     -0.2456
    131  N         15.7180    6.9850   -1.6750 N.3   267  LYS267     -0.1245
    132  CA        16.3560    7.4230   -0.4420 C.3   267  LYS267      0.1561
    133  C         17.2060    6.3190    0.1970 C.2   267  LYS267      0.2260
    134  O         17.6250    6.4420    1.3480 O.2   267  LYS267     -0.2867
    135  CB        15.2830    7.9230    0.5420 C.3   267  LYS267      0.0271
    136  CG        14.6200    9.2240    0.0730 C.3   267  LYS267      0.0035
    137  CD        13.7140    9.8500    1.1380 C.3   267  LYS267      0.0206
    138  CE        12.5160    8.9940    1.4630 C.3   267  LYS267      0.1093
    139  NZ        11.5710    9.6980    2.3960 N.3   267  LYS267     -0.1314
    140  N          5.6160    7.6460   -3.6170 N.3   306  ALA306     -0.1245
    141  CA         5.3060    6.6750   -2.5860 C.3   306  ALA306      0.1562
    142  C          4.4630    5.5150   -3.1170 C.2   306  ALA306      0.2260
    143  O          4.5020    4.4220   -2.5520 O.2   306  ALA306     -0.2867
    144  CB         4.5720    7.3520   -1.4010 C.3   306  ALA306      0.0290
    145  N          6.0660    1.2090   -7.0150 N.3   309  LEU309     -0.1245
    146  CA         6.8660    0.1450   -6.4190 C.3   309  LEU309      0.1561
    147  C          8.0030   -0.2280   -7.3700 C.2   309  LEU309      0.2260
    148  O          7.9300    0.0490   -8.5590 O.2   309  LEU309     -0.2867
    149  CB         6.0000   -1.0870   -6.1030 C.3   309  LEU309      0.0270
    150  CG         4.7740   -0.8360   -5.2190 C.3   309  LEU309      0.0019
    151  CD1        3.9430   -2.1140   -5.0950 C.3   309  LEU309      0.0001
    152  CD2        5.2070   -0.3330   -3.8440 C.3   309  LEU309      0.0001
    153  N          1.2340    1.4900   -8.2310 N.3   319  ALA319     -0.1231
    154  CA         0.3520    0.8660   -7.2490 C.3   319  ALA319      0.1694
    155  C         -0.7670    1.8070   -6.8310 C.2   319  ALA319      0.2592
    156  O         -0.7170    3.0040   -7.1110 O.2   319  ALA319     -0.2718
    157  CB         1.1430    0.4290   -6.0110 C.3   319  ALA319      0.0304
    158  N         -1.7650    1.2400   -6.1560 N.am  320  ASP320     -0.1960
    159  CA        -2.8720    1.9980   -5.5710 C.3   320  ASP320      0.1840
    160  C         -3.6790    2.7800   -6.5910 C.2   320  ASP320      0.2622
    161  O         -4.3280    3.7650   -6.2280 O.2   320  ASP320     -0.2715
    162  CB        -2.3580    2.9640   -4.4930 C.3   320  ASP320      0.1450
    163  CG        -2.1720    2.2880   -3.1410 C.2   320  ASP320      0.3671
    164  OD1       -2.2950    1.0520   -3.0740 O.co2 320  ASP320     -0.2456
    165  OD2       -1.9110    2.9920   -2.1310 O.co2 320  ASP320     -0.2456
    166  N         -3.6470    2.3500   -7.8510 N.am  321  PHE321     -0.1974
    167  CA        -4.4070    3.0410   -8.8810 C.3   321  PHE321      0.1639
    168  C         -5.8920    2.8720   -8.5630 C.2   321  PHE321      0.2290
    169  O         -6.3740    1.7560   -8.3530 O.2   321  PHE321     -0.2864
    170  CB        -4.0580    2.5470  -10.2960 C.3   321  PHE321      0.0560
    171  CG        -3.8870    1.0570  -10.4200 C.ar  321  PHE321     -0.0200
    172  CD1       -4.9720    0.2420  -10.7460 C.ar  321  PHE321     -0.0042
    173  CD2       -2.6340    0.4750  -10.2670 C.ar  321  PHE321     -0.0042
    174  CE1       -4.8210   -1.1320  -10.8710 C.ar  321  PHE321     -0.0003
    175  CE2       -2.4620   -0.8940  -10.3980 C.ar  321  PHE321     -0.0003
    176  CZ        -3.5570   -1.7080  -10.7020 C.ar  321  PHE321     -0.0000
    177  N         -7.4440    3.4540   -5.8520 N.3   323  LEU323     -0.1245
    178  CA        -7.8000    3.0310   -4.5020 C.3   323  LEU323      0.1561
    179  C         -8.4470    4.1420   -3.6670 C.2   323  LEU323      0.2260
    180  O         -9.3450    3.8850   -2.8750 O.2   323  LEU323     -0.2867
    181  CB        -6.5610    2.5040   -3.7650 C.3   323  LEU323      0.0270
    182  CG        -6.8260    1.8540   -2.4000 C.3   323  LEU323      0.0019
    183  CD1       -7.7890    0.6710   -2.5450 C.3   323  LEU323      0.0001
    184  CD2       -5.5300    1.4090   -1.7290 C.3   323  LEU323      0.0001
@<TRIPOS>BOND
     1    42    41    2
     2    41    40    1
     3    39    40    1
     4    40    43    1
     5    47    48    1
     6   174   172   ar
     7   174   176   ar
     8   172   171   ar
     9    85    83   ar
    10   176   175   ar
    11    50    49    2
    12   171   170    1
    13   171   173   ar
    14   175   173   ar
    15    84    83   ar
    16    49    48    1
    17   170   167    1
    18    48    51    1
    19    83    82    1
    20    57    56    2
    21    43    44    1
    22    54    55    1
    23    44    45    1
    24   167   168    1
    25   167   166    1
    26    56    55    1
    27   104   103    1
    28    51    52    1
    29    51    53    1
    30    58    55    1
    31    58    59    1
    32   168   169    2
    33   148   147    2
    34    82    81    1
    35   103   102    1
    36   153   154    1
    37    81    78    1
    38   166   160   am
    39    61    59    1
    40    59    60    1
    41   147   146    1
    42    45    46    1
    43   154   155    1
    44   154   157    1
    45   156   155    2
    46   145   146    1
    47   155   158   am
    48    78    77    1
    49    78    79    1
    50   102   101    1
    51   160   161    2
    52   160   159    1
    53    77    72   am
    54   146   149    1
    55   158   159    1
    56   149   150    1
    57    89    88    2
    58   177   178    1
    59    79    80    2
    60    79    86   am
    61   101    98    1
    62   159   162    1
    63    72    71    1
    64    72    73    2
    65    74    71    1
    66    74    76    1
    67    74    75    1
    68    71    70    1
    69   150   151    1
    70   150   152    1
    71    98    97    1
    72    98    99    1
    73    86    87    1
    74    88    97   am
    75    88    87    1
    76   178   181    1
    77   178   179    1
    78   162   163    1
    79    87    90    1
    80    99   100    2
    81   108   107    2
    82   181   182    1
    83   179   180    2
    84   140   141    1
    85   115   116    1
    86   111   112    2
    87   111   110    1
    88    90    91    1
    89    68    66    1
    90   163   164   ar
    91   163   165   ar
    92   142   141    1
    93   142   143    2
    94   107   109   am
    95   107   106    1
    96   105   106    1
    97    93    91   ar
    98    93    95   ar
    99   110   109    1
   100   110   113    1
   101   116   119    1
   102   116   117    1
   103   141   144    1
   104   183   182    1
   105    91    92   ar
   106   182   184    1
   107   114   113    1
   108    95    96   ar
   109   119   120    1
   110    25    26    1
   111   117   118    2
   112   117   123   am
   113   121   120    1
   114    66    63    1
   115    66    67    1
   116   131   132    1
   117    64    63    1
   118    64    65    2
   119    28    27    2
   120    29    26    1
   121    69    67    1
   122    63    62    1
   123    92    94   ar
   124   123   124    1
   125   125   126    2
   126   125   124    1
   127   120   122    1
   128    26    27    1
   129    96    94   ar
   130   132   133    1
   131   132   135    1
   132    38    37    1
   133   124   127    1
   134   136   135    1
   135   136   137    1
   136   133   134    2
   137    37    36    1
   138    36    35    1
   139   127   128    1
   140    34    35    1
   141    34    31    1
   142    30    31    1
   143   137   138    1
   144   128   130   ar
   145   128   129   ar
   146   138   139    1
   147    31    32    1
   148    23    22    1
   149    33    32    2
   150     7     6    1
   151    24    22    1
   152    22    19    1
   153     6     8    1
   154     6     5    1
   155    19    20    1
   156    19    18    1
   157     5     2    1
   158    20    21    2
   159     2     3    1
   160     2     1    1
   161     4     3    2
   162     3     9   am
   163     9    10    1
   164    10    11    1
   165    12    11    2
   166    11    13   am
   167    13    14    1
   168    15    16    2
   169    15    14    1
   170    14    17    1
