@<TRIPOS>MOLECULE
tmp/5h0tA00.pdb
 79 76 0 0 0
SMALL
GASTEIGER

@<TRIPOS>ATOM
      1  N         24.6960    8.3830   45.3020 N.3    20  ASN20      -0.1225
      2  CA        23.4310    8.4950   44.5740 C.3    20  ASN20       0.1785
      3  C         23.6080    8.5010   43.0450 C.2    20  ASN20       0.2598
      4  O         22.7060    8.1080   42.2810 O.2    20  ASN20      -0.2718
      5  CB        22.7230    9.7690   44.9500 C.3    20  ASN20       0.1169
      6  CG        21.2880    9.8060   44.5170 C.2    20  ASN20       0.2627
      7  OD1       20.6520    8.7730   44.2450 O.2    20  ASN20      -0.2716
      8  ND2       20.7500   11.0040   44.5260 N.am   20  ASN20      -0.0877
      9  N         24.7740    8.9120   42.5910 N.am   21  GLY21      -0.1942
     10  CA        25.1100    8.7190   41.2300 C.3    21  GLY21       0.2014
     11  C         25.0710    7.2960   40.7140 C.2    21  GLY21       0.2639
     12  O         24.9130    7.0910   39.5100 O.2    21  GLY21      -0.2714
     13  N         25.2690    6.3190   41.6150 N.am   22  LEU22      -0.1963
     14  CA        25.4350    4.9290   41.2190 C.3    22  LEU22       0.1728
     15  C         24.2010    4.0940   41.4630 C.2    22  LEU22       0.2616
     16  O         23.9690    3.1330   40.6800 O.2    22  LEU22      -0.2715
     17  CB        26.5740    4.3310   41.9760 C.3    22  LEU22       0.0311
     18  CG        27.5930    3.4150   41.3270 C.3    22  LEU22       0.0022
     19  CD1       27.6170    2.0750   41.9790 C.3    22  LEU22       0.0001
     20  CD2       27.4390    3.2140   39.8270 C.3    22  LEU22       0.0001
     21  N         23.4520    4.4120   42.5400 N.am   23  VAL23      -0.1963
     22  CA        22.2920    3.6050   42.9780 C.3    23  VAL23       0.1727
     23  C         21.2900    4.5430   43.6670 C.2    23  VAL23       0.2616
     24  O         21.7070    5.5860   44.2380 O.2    23  VAL23      -0.2715
     25  CB        22.7100    2.5380   44.0070 C.3    23  VAL23       0.0290
     26  CG1       23.7790    1.5780   43.4150 C.3    23  VAL23       0.0023
     27  CG2       23.2560    3.1520   45.3260 C.3    23  VAL23       0.0023
     28  N         19.9980    4.2060   43.6750 N.am   24  ASN24      -0.1972
     29  CA        18.9840    5.1160   44.2900 C.3    24  ASN24       0.1688
     30  C         18.6530    4.7750   45.6950 C.2    24  ASN24       0.2292
     31  O         18.0570    5.5670   46.3850 O.2    24  ASN24      -0.2864
     32  CB        17.6450    5.2110   43.5550 C.3    24  ASN24       0.1181
     33  CG        17.5400    4.2370   42.4450 C.2    24  ASN24       0.2629
     34  OD1       17.3030    3.0470   42.6830 O.2    24  ASN24      -0.2716
     35  ND2       17.7820    4.7030   41.2160 N.am   24  ASN24      -0.0877
     36  N         25.6690   -1.2960   41.1290 N.3    41  ASP41      -0.1225
     37  CA        24.7750   -0.7090   40.1540 C.3    41  ASP41       0.1805
     38  C         23.8790   -1.8770   39.6320 C.2    41  ASP41       0.2598
     39  O         24.2350   -3.0480   39.7300 O.2    41  ASP41      -0.2718
     40  CB        25.5520   -0.0470   39.0410 C.3    41  ASP41       0.1424
     41  CG        25.9820   -1.0390   37.9600 C.2    41  ASP41       0.3668
     42  OD1       26.9010   -1.8230   38.2370 O.co2  41  ASP41      -0.2456
     43  OD2       25.3850   -1.0180   36.8570 O.co2  41  ASP41      -0.2456
     44  N         22.7370   -1.5260   39.0760 N.am   42  SER42      -0.1952
     45  CA        21.8010   -2.5000   38.5430 C.3    42  SER42       0.1924
     46  C         22.3310   -3.4550   37.5040 C.2    42  SER42       0.2314
     47  O         21.9020   -4.5840   37.4170 O.2    42  SER42      -0.2863
     48  CB        20.5340   -1.8280   38.0640 C.3    42  SER42       0.2116
     49  OG        20.8600   -0.9480   37.0370 O.3    42  SER42      -0.2180
     50  N         30.7570    6.1530   31.5320 N.3   202  ARG202     -0.1231
     51  CA        29.5580    6.4360   32.3490 C.3   202  ARG202      0.1694
     52  C         29.8830    6.2690   33.8400 C.2   202  ARG202      0.2592
     53  O         29.5430    7.1170   34.6210 O.2   202  ARG202     -0.2718
     54  CB        28.4140    5.4740   31.9480 C.3   202  ARG202      0.0321
     55  CG        27.0370    5.9120   32.3950 C.3   202  ARG202      0.0489
     56  CD        25.9180    5.0510   31.8100 C.3   202  ARG202      0.2205
     57  NE        25.4080    4.0420   32.7480 N.pl3 202  ARG202     -0.0865
     58  CZ        24.7180    4.3490   33.8580 C.cat 202  ARG202      0.5346
     59  NH1       24.4850    5.6170   34.2350 N.pl3 202  ARG202      0.1354
     60  NH2       24.2480    3.3740   34.6290 N.pl3 202  ARG202      0.1354
     61  N         30.5760    5.1880   34.1900 N.am  203  PHE203     -0.1976
     62  CA        30.8250    4.8620   35.5650 C.3   203  PHE203      0.1639
     63  C         32.0220    5.6030   36.1080 C.2   203  PHE203      0.2290
     64  O         31.9820    6.1010   37.2560 O.2   203  PHE203     -0.2864
     65  CB        30.9800    3.3540   35.7560 C.3   203  PHE203      0.0560
     66  CG        29.7120    2.6210   35.5440 C.ar  203  PHE203     -0.0200
     67  CD1       28.7260    2.6740   36.4900 C.ar  203  PHE203     -0.0042
     68  CD2       29.4920    1.9200   34.4050 C.ar  203  PHE203     -0.0042
     69  CE1       27.4940    2.0500   36.2740 C.ar  203  PHE203     -0.0003
     70  CE2       28.2740    1.2890   34.1540 C.ar  203  PHE203     -0.0003
     71  CZ        27.3010    1.2980   35.0970 C.ar  203  PHE203     -0.0000
     72  N         30.7240    8.7340   37.1540 N.3   206  ILE206     -0.1245
     73  CA        30.0080    8.6760   38.4290 C.3   206  ILE206      0.1561
     74  C         30.9970    8.7190   39.5950 C.2   206  ILE206      0.2260
     75  O         30.7630    9.4350   40.6030 O.2   206  ILE206     -0.2867
     76  CB        29.1210    7.4390   38.5210 C.3   206  ILE206      0.0252
     77  CG1       28.0690    7.5220   37.4330 C.3   206  ILE206      0.0019
     78  CG2       28.4080    7.3830   39.8540 C.3   206  ILE206      0.0019
     79  CD1       27.2230    6.2820   37.2070 C.3   206  ILE206      0.0001
@<TRIPOS>BOND
     1    50    51    1
     2    56    55    1
     3    56    57    1
     4    54    51    1
     5    54    55    1
     6    51    52    1
     7    57    58    2
     8    52    61   am
     9    52    53    2
    10    58    59    1
    11    58    60    1
    12    70    68   ar
    13    70    71   ar
    14    61    62    1
    15    68    66   ar
    16    71    69   ar
    17    66    65    1
    18    66    67   ar
    19    62    65    1
    20    62    63    1
    21    63    64    2
    22    69    67   ar
    23    43    41   ar
    24    49    48    1
    25    72    73    1
    26    79    77    1
    27    47    46    2
    28    77    76    1
    29    46    45    1
    30    41    42   ar
    31    41    40    1
    32    48    45    1
    33    73    76    1
    34    73    74    1
    35    76    78    1
    36    45    44    1
    37    40    37    1
    38    44    38   am
    39    12    11    2
    40    74    75    2
    41    38    39    2
    42    38    37    1
    43    20    18    1
    44    37    36    1
    45    16    15    2
    46    11    10    1
    47    11    13   am
    48    35    33   am
    49    14    15    1
    50    14    13    1
    51    14    17    1
    52    10     9    1
    53    18    17    1
    54    18    19    1
    55    15    21   am
    56     4     3    2
    57    33    34    2
    58    33    32    1
    59    21    22    1
    60     9     3   am
    61    22    23    1
    62    22    25    1
    63     3     2    1
    64    26    25    1
    65    32    29    1
    66    23    28   am
    67    23    24    2
    68    28    29    1
    69    25    27    1
    70     7     6    2
    71    29    30    1
    72     6     8   am
    73     6     5    1
    74     2     5    1
    75     2     1    1
    76    30    31    2
