@<TRIPOS>MOLECULE
tmp/5h13A00.pdb
 140 133 0 0 0
SMALL
GASTEIGER

@<TRIPOS>ATOM
      1  N         22.8270   20.4950   19.0010 N.3    29  GLN29      -0.1231
      2  CA        23.6700   19.7890   18.0330 C.3    29  GLN29       0.1683
      3  C         22.8370   19.0130   17.0000 C.2    29  GLN29       0.2434
      4  O         21.7390   18.5850   17.3390 O.2    29  GLN29      -0.2733
      5  CB        24.6170   18.8170   18.7620 C.3    29  GLN29       0.0380
      6  CG        25.4610   19.4580   19.8700 C.3    29  GLN29       0.0905
      7  CD        26.2240   20.6590   19.3810 C.2    29  GLN29       0.2608
      8  OE1       27.1250   20.5450   18.5390 O.2    29  GLN29      -0.2717
      9  NE2       25.8470   21.8400   19.8710 N.am   29  GLN29      -0.0878
     10  N         23.3440   18.7940   15.7630 N.am   30  PRO30      -0.2729
     11  CA        22.5780   18.0090   14.7800 C.3    30  PRO30       0.1401
     12  C         22.1670   16.6200   15.2650 C.2    30  PRO30       0.2269
     13  O         22.9310   15.9630   15.9690 O.2    30  PRO30      -0.2865
     14  CB        23.5580   17.8710   13.6090 C.3    30  PRO30       0.0296
     15  CG        24.4750   19.0290   13.7280 C.3    30  PRO30       0.0237
     16  CD        24.6290   19.2550   15.1930 C.3    30  PRO30       0.0939
     17  N         21.5070   13.0140   13.9780 N.3    32  PHE32      -0.1241
     18  CA        21.9200   12.2760   12.7870 C.3    32  PHE32       0.1605
     19  C         21.0640   11.0790   12.4750 C.2    32  PHE32       0.2264
     20  O         21.0850   10.5760   11.3420 O.2    32  PHE32      -0.2867
     21  CB        23.3960   11.8700   12.8980 C.3    32  PHE32       0.0534
     22  CG        24.3490   13.0490   12.8290 C.ar   32  PHE32      -0.0203
     23  CD1       24.1930   14.0390   11.8610 C.ar   32  PHE32      -0.0042
     24  CD2       25.3480   13.2080   13.7780 C.ar   32  PHE32      -0.0042
     25  CE1       25.0590   15.1320   11.8050 C.ar   32  PHE32      -0.0003
     26  CE2       26.2200   14.3040   13.7220 C.ar   32  PHE32      -0.0003
     27  CZ        26.0720   15.2520   12.7280 C.ar   32  PHE32      -0.0000
     28  N         30.1020   11.1550   19.3100 N.3    75  ASN75      -0.1240
     29  CA        29.0900   11.6840   18.3990 C.3    75  ASN75       0.1653
     30  C         28.4500   10.4470   17.7680 C.2    75  ASN75       0.2266
     31  O         29.0770    9.8070   16.9220 O.2    75  ASN75      -0.2867
     32  CB        29.7360   12.5360   17.3000 C.3    75  ASN75       0.1155
     33  CG        30.5440   13.7180   17.7960 C.2    75  ASN75       0.2627
     34  OD1       30.0650   14.8570   17.8350 O.2    75  ASN75      -0.2716
     35  ND2       31.8160   13.4880   18.1040 N.am   75  ASN75      -0.0877
     36  N         26.1400    8.3400   15.3900 N.3    77  TYR77      -0.1241
     37  CA        25.6320    8.6330   14.0370 C.3    77  TYR77       0.1605
     38  C         24.5140    7.7460   13.6580 C.2    77  TYR77       0.2264
     39  O         23.8500    8.0070   12.6520 O.2    77  TYR77      -0.2867
     40  CB        26.7210    8.4080   12.9870 C.3    77  TYR77       0.0534
     41  CG        27.9490    9.2800   13.1160 C.ar   77  TYR77      -0.0201
     42  CD1       27.8390   10.6340   13.4280 C.ar   77  TYR77      -0.0009
     43  CD2       29.2110    8.7770   12.8440 C.ar   77  TYR77      -0.0009
     44  CE1       28.9640   11.4460   13.5270 C.ar   77  TYR77       0.0417
     45  CE2       30.3450    9.5830   12.9210 C.ar   77  TYR77       0.0417
     46  CZ        30.2160   10.9140   13.2780 C.ar   77  TYR77       0.1957
     47  OH        31.3210   11.7140   13.3340 O.3    77  TYR77      -0.2866
     48  N         31.3790    8.2090   16.1040 N.3    97  SER97      -0.1217
     49  CA        32.7330    8.6840   15.9100 C.3    97  SER97       0.1889
     50  C         33.8190    7.9180   16.6960 C.2    97  SER97       0.2288
     51  O         34.9060    7.7410   16.1550 O.2    97  SER97      -0.2866
     52  CB        32.8310   10.1840   16.1890 C.3    97  SER97       0.2089
     53  OG        32.5790   10.4450   17.5520 O.3    97  SER97      -0.2183
     54  N         35.5030    5.2130   13.2800 N.3   121  ALA121     -0.1245
     55  CA        34.1130    5.6730   13.2570 C.3   121  ALA121      0.1562
     56  C         33.1420    4.6990   12.5670 C.2   121  ALA121      0.2260
     57  O         33.4730    4.1480   11.5340 O.2   121  ALA121     -0.2867
     58  CB        34.0180    7.0310   12.6150 C.3   121  ALA121      0.0290
     59  N         29.5010    4.3340   10.7900 N.3   123  ASN123     -0.1240
     60  CA        28.5490    5.1420   10.0220 C.3   123  ASN123      0.1653
     61  C         27.1490    4.5760    9.9730 C.2   123  ASN123      0.2266
     62  O         26.1980    5.3220    9.7690 O.2   123  ASN123     -0.2867
     63  CB        29.0850    5.3610    8.6190 C.3   123  ASN123      0.1155
     64  CG        30.3660    6.1440    8.6390 C.2   123  ASN123      0.2627
     65  OD1       30.5610    7.0100    9.4750 O.2   123  ASN123     -0.2716
     66  ND2       31.2530    5.8750    7.7230 N.am  123  ASN123     -0.0877
     67  N         34.3760    3.7830    8.8250 N.3   140  LYS140     -0.1245
     68  CA        35.3110    4.7070    8.1830 C.3   140  LYS140      0.1561
     69  C         36.6160    3.9650    7.8040 C.2   140  LYS140      0.2260
     70  O         37.3680    4.4480    6.9600 O.2   140  LYS140     -0.2867
     71  CB        35.6200    5.8400    9.1920 C.3   140  LYS140      0.0271
     72  CG        36.4980    6.9590    8.6690 C.3   140  LYS140      0.0035
     73  CD        36.3740    8.2010    9.5400 C.3   140  LYS140      0.0206
     74  CE        37.1760    9.3340    8.9550 C.3   140  LYS140      0.1093
     75  NZ        36.9160   10.6190    9.6590 N.3   140  LYS140     -0.1314
     76  N         35.7460    4.9760    3.0500 N.3   167  GLU167     -0.1245
     77  CA        34.7260    4.9000    4.0780 C.3   167  GLU167      0.1567
     78  C         33.4400    4.2350    3.5620 C.2   167  GLU167      0.2260
     79  O         32.9180    4.6180    2.5150 O.2   167  GLU167     -0.2867
     80  CB        34.4600    6.3260    4.5340 C.3   167  GLU167      0.0388
     81  CG        33.6010    6.4840    5.7660 C.3   167  GLU167      0.1160
     82  CD        33.7990    7.7810    6.5320 C.2   167  GLU167      0.3649
     83  OE1       34.7990    8.4950    6.2820 O.co2 167  GLU167     -0.2457
     84  OE2       32.9800    8.0470    7.4370 O.co2 167  GLU167     -0.2457
     85  N         29.5750    3.9330    4.0170 N.3   169  LEU169     -0.1245
     86  CA        28.5980    4.8100    4.6610 C.3   169  LEU169      0.1561
     87  C         27.3000    4.1410    5.0180 C.2   169  LEU169      0.2260
     88  O         26.6010    4.5930    5.9370 O.2   169  LEU169     -0.2867
     89  CB        28.3120    5.9950    3.7320 C.3   169  LEU169      0.0270
     90  CG        29.4560    6.9950    3.5590 C.3   169  LEU169      0.0019
     91  CD1       29.0430    8.0390    2.5600 C.3   169  LEU169      0.0001
     92  CD2       29.8680    7.6490    4.9360 C.3   169  LEU169      0.0001
     93  N         26.6270   15.9280    1.9320 N.3   285  TRP285     -0.1227
     94  CA        26.8550   14.5540    2.3160 C.3   285  TRP285      0.1737
     95  C         26.0630   14.1310    3.5250 C.2   285  TRP285      0.2595
     96  O         25.7940   14.9300    4.4100 O.2   285  TRP285     -0.2718
     97  CB        28.3570   14.2850    2.5070 C.3   285  TRP285      0.0564
     98  CG        29.0980   15.3850    3.2080 C.ar  285  TRP285      0.0003
     99  CD1       29.2700   15.5340    4.5530 C.ar  285  TRP285      0.0946
    100  CD2       29.7440   16.5110    2.5930 C.ar  285  TRP285      0.0152
    101  NE1       30.0180   16.6640    4.8150 N.ar  285  TRP285     -0.2442
    102  CE2       30.3210   17.2830    3.6290 C.ar  285  TRP285      0.0810
    103  CE3       29.9150   16.9290    1.2630 C.ar  285  TRP285      0.0012
    104  CZ2       31.0610   18.4470    3.3750 C.ar  285  TRP285      0.0191
    105  CZ3       30.6710   18.0620    1.0100 C.ar  285  TRP285      0.0001
    106  CH2       31.2260   18.8140    2.0570 C.ar  285  TRP285      0.0015
    107  N         25.6930   12.8530    3.5520 N.am  286  TYR286     -0.1976
    108  CA        25.1330   12.1580    4.7040 C.3   286  TYR286      0.1639
    109  C         23.7060   12.5680    4.9900 C.2   286  TYR286      0.2290
    110  O         23.3790   13.1640    6.0150 O.2   286  TYR286     -0.2864
    111  CB        26.0730   12.2910    5.9410 C.3   286  TYR286      0.0560
    112  CG        27.5670   12.1630    5.6560 C.ar  286  TYR286     -0.0198
    113  CD1       28.0360   11.3650    4.6160 C.ar  286  TYR286     -0.0009
    114  CD2       28.5080   12.8100    6.4510 C.ar  286  TYR286     -0.0009
    115  CE1       29.4020   11.2720    4.3290 C.ar  286  TYR286      0.0417
    116  CE2       29.8790   12.6900    6.1990 C.ar  286  TYR286      0.0417
    117  CZ        30.3180   11.9130    5.1400 C.ar  286  TYR286      0.1957
    118  OH        31.6550   11.7670    4.8800 O.3   286  TYR286     -0.2866
    119  N         20.1500   10.5000    4.6860 N.3   288  ARG288     -0.1245
    120  CA        19.5830    9.1830    4.4820 C.3   288  ARG288      0.1563
    121  C         18.1330    9.2510    4.0560 C.2   288  ARG288      0.2260
    122  O         17.3920   10.0930    4.5520 O.2   288  ARG288     -0.2867
    123  CB        19.6350    8.4110    5.7970 C.3   288  ARG288      0.0307
    124  CG        21.0640    8.0430    6.2440 C.3   288  ARG288      0.0489
    125  CD        20.9390    7.3850    7.5910 C.3   288  ARG288      0.2205
    126  NE        22.2130    6.9140    8.1210 N.pl3 288  ARG288     -0.0865
    127  CZ        22.6260    7.1280    9.3660 C.cat 288  ARG288      0.5346
    128  NH1       21.9020    7.8750   10.1980 N.pl3 288  ARG288      0.1354
    129  NH2       23.7980    6.6660    9.7670 N.pl3 288  ARG288      0.1354
    130  N         18.2570   15.1130    8.3610 N.3   335  ARG335     -0.1245
    131  CA        19.2900   14.0800    8.1890 C.3   335  ARG335      0.1563
    132  C         18.7510   12.6480    8.0200 C.2   335  ARG335      0.2260
    133  O         19.4320   11.8280    7.4310 O.2   335  ARG335     -0.2867
    134  CB        20.2800   14.1360    9.3510 C.3   335  ARG335      0.0307
    135  CG        21.0100   15.4870    9.4180 C.3   335  ARG335      0.0489
    136  CD        22.2930   15.2900    8.6640 C.3   335  ARG335      0.2205
    137  NE        23.0770   16.4920    8.4780 N.pl3 335  ARG335     -0.0865
    138  CZ        24.1820   16.5070    7.7500 C.cat 335  ARG335      0.5346
    139  NH1       24.6310   15.3860    7.1910 N.pl3 335  ARG335      0.1354
    140  NH2       24.8580   17.6360    7.5840 N.pl3 335  ARG335      0.1354
@<TRIPOS>BOND
     1   105   103   ar
     2   105   106   ar
     3   103   100   ar
     4    93    94    1
     5   106   104   ar
     6    94    97    1
     7    94    95    1
     8    97    98    1
     9    79    78    2
    10    91    90    1
    11   100    98   ar
    12   100   102   ar
    13    76    77    1
    14    98    99   ar
    15   104   102   ar
    16    95   107   am
    17    95    96    2
    18   107   108    1
    19    90    89    1
    20    90    92    1
    21    78    77    1
    22   102   101   ar
    23    89    86    1
    24    85    86    1
    25   121   120    1
    26   121   122    2
    27    77    80    1
    28   115   113   ar
    29   115   117   ar
    30   120   119    1
    31   120   123    1
    32    80    81    1
    33    99   101   ar
    34   113   112   ar
    35    86    87    1
    36   108   109    1
    37   108   111    1
    38   118   117    1
    39   109   110    2
    40    87    88    2
    41   117   116   ar
    42   112   111    1
    43   112   114   ar
    44    81    82    1
    45   123   124    1
    46   116   114   ar
    47   124   125    1
    48    83    82   ar
    49    82    84   ar
    50    70    69    2
    51   139   138    1
    52   133   132    2
    53   140   138    1
    54   125   126    1
    55    66    64   am
    56   138   137    2
    57    69    68    1
    58   132   131    1
    59   126   127    2
    60    68    67    1
    61    68    71    1
    62   131   130    1
    63   131   134    1
    64   137   136    1
    65    63    64    1
    66    63    60    1
    67    64    65    2
    68   136   135    1
    69    72    71    1
    70    72    73    1
    71    74    73    1
    72    74    75    1
    73   134   135    1
    74   127   129    1
    75   127   128    1
    76    62    61    2
    77    61    60    1
    78    60    59    1
    79    20    19    2
    80    57    56    2
    81    25    23   ar
    82    25    27   ar
    83    23    22   ar
    84    19    18    1
    85    56    55    1
    86    58    55    1
    87    39    38    2
    88    27    26   ar
    89    18    21    1
    90    18    17    1
    91    22    21    1
    92    22    24   ar
    93    43    45   ar
    94    43    41   ar
    95    45    46   ar
    96    40    41    1
    97    40    37    1
    98    41    42   ar
    99    55    54    1
   100    46    47    1
   101    46    44   ar
   102    42    44   ar
   103    14    15    1
   104    14    11    1
   105    38    37    1
   106    26    24   ar
   107    15    16    1
   108    37    36    1
   109    11    12    1
   110    11    10    1
   111    16    10    1
   112    12    13    2
   113    10     3   am
   114    49    48    1
   115    49    52    1
   116    49    50    1
   117    51    50    2
   118    52    53    1
   119    31    30    2
   120     3     4    2
   121     3     2    1
   122    32    33    1
   123    32    29    1
   124    30    29    1
   125    33    34    2
   126    33    35   am
   127     2     5    1
   128     2     1    1
   129    29    28    1
   130     8     7    2
   131     5     6    1
   132     7     6    1
   133     7     9   am
