@<TRIPOS>MOLECULE
tmp/5h14A00.pdb
 141 135 0 0 0
SMALL
GASTEIGER

@<TRIPOS>ATOM
      1  N         38.1460   84.8070   -0.7830 N.3    20  PRO20      -0.2116
      2  CA        36.7820   84.2840   -0.5750 C.3    20  PRO20       0.1372
      3  C         36.7480   83.0220    0.2710 C.2    20  PRO20       0.2244
      4  O         37.6370   82.1880    0.1420 O.2    20  PRO20      -0.2868
      5  CB        36.2890   84.0050   -1.9970 C.3    20  PRO20       0.0268
      6  CG        37.0740   84.9290   -2.8530 C.3    20  PRO20       0.0207
      7  CD        38.4320   84.9760   -2.2260 C.3    20  PRO20       0.0892
      8  N         34.7050   79.7420    0.8420 N.3    22  PHE22      -0.1241
      9  CA        33.7140   78.9960    0.0560 C.3    22  PHE22       0.1605
     10  C         32.9040   78.0230    0.8570 C.2    22  PHE22       0.2264
     11  O         31.8080   77.6430    0.4250 O.2    22  PHE22      -0.2867
     12  CB        34.3940   78.2550   -1.1120 C.3    22  PHE22       0.0534
     13  CG        34.9960   79.1840   -2.1480 C.ar   22  PHE22      -0.0203
     14  CD1       34.1970   80.0640   -2.8690 C.ar   22  PHE22      -0.0042
     15  CD2       36.3630   79.1770   -2.4000 C.ar   22  PHE22      -0.0042
     16  CE1       34.7530   80.9100   -3.8360 C.ar   22  PHE22      -0.0003
     17  CE2       36.9130   80.0240   -3.3600 C.ar   22  PHE22      -0.0003
     18  CZ        36.1010   80.8760   -4.0790 C.ar   22  PHE22      -0.0000
     19  N         43.2190   76.0840   -3.7110 N.3    71  ASN71      -0.1240
     20  CA        42.0400   76.8570   -3.3610 C.3    71  ASN71       0.1653
     21  C         41.0240   75.8590   -2.8260 C.2    71  ASN71       0.2266
     22  O         40.4900   75.0780   -3.6130 O.2    71  ASN71      -0.2867
     23  CB        41.4990   77.6200   -4.5690 C.3    71  ASN71       0.1155
     24  CG        40.6230   78.7990   -4.1870 C.2    71  ASN71       0.2627
     25  OD1       40.0440   78.8670   -3.0970 O.2    71  ASN71      -0.2716
     26  ND2       40.4940   79.7580   -5.0790 N.am   71  ASN71      -0.0877
     27  N         37.6170   74.4110   -1.6870 N.3    73  TYR73      -0.1241
     28  CA        36.2310   74.7490   -1.9980 C.3    73  TYR73       0.1605
     29  C         35.2340   74.1340   -1.0520 C.2    73  TYR73       0.2264
     30  O         34.0740   74.5310   -1.0480 O.2    73  TYR73      -0.2867
     31  CB        35.8900   74.1900   -3.3890 C.3    73  TYR73       0.0534
     32  CG        36.6520   74.7700   -4.5540 C.ar   73  TYR73      -0.0201
     33  CD1       37.0950   76.0960   -4.5370 C.ar   73  TYR73      -0.0009
     34  CD2       36.8110   74.0490   -5.7270 C.ar   73  TYR73      -0.0009
     35  CE1       37.7700   76.6460   -5.6280 C.ar   73  TYR73       0.0417
     36  CE2       37.5120   74.5750   -6.8100 C.ar   73  TYR73       0.0417
     37  CZ        37.9840   75.8770   -6.7570 C.ar   73  TYR73       0.1957
     38  OH        38.6040   76.4000   -7.8550 O.3    73  TYR73      -0.2866
     39  N         39.5450   69.7640  -10.2560 N.3   117  ALA117     -0.1245
     40  CA        39.0090   70.3410   -9.0170 C.3   117  ALA117      0.1562
     41  C         37.8890   69.4880   -8.4010 C.2   117  ALA117      0.2260
     42  O         37.0970   68.8790   -9.1290 O.2   117  ALA117     -0.2867
     43  CB        38.4730   71.7410   -9.2970 C.3   117  ALA117      0.0290
     44  N         34.5920   69.8340   -6.2300 N.3   119  ASN119     -0.1240
     45  CA        33.6250   70.8820   -5.8890 C.3   119  ASN119      0.1653
     46  C         32.8630   70.6510   -4.6070 C.2   119  ASN119      0.2266
     47  O         32.3650   71.6200   -4.0240 O.2   119  ASN119     -0.2867
     48  CB        32.6580   71.1100   -7.0470 C.3   119  ASN119      0.1155
     49  CG        33.3300   71.6940   -8.2460 C.2   119  ASN119      0.2627
     50  OD1       34.1790   72.5790   -8.1250 O.2   119  ASN119     -0.2716
     51  ND2       33.0250   71.1700   -9.4250 N.am  119  ASN119     -0.0877
     52  N         35.1690   68.4400  -11.1720 N.3   136  LYS136     -0.1245
     53  CA        35.2400   69.1630  -12.4280 C.3   136  LYS136      0.1561
     54  C         35.5630   68.1470  -13.5720 C.2   136  LYS136      0.2260
     55  O         35.2930   68.4350  -14.7340 O.2   136  LYS136     -0.2867
     56  CB        36.3130   70.2820  -12.2970 C.3   136  LYS136      0.0271
     57  CG        36.7330   70.9720  -13.5950 C.3   136  LYS136      0.0035
     58  CD        37.3530   72.3250  -13.3220 C.3   136  LYS136      0.0206
     59  CE        37.4120   73.1580  -14.5820 C.3   136  LYS136      0.1093
     60  NZ        38.0920   74.4560  -14.3420 N.3   136  LYS136     -0.1314
     61  N         31.1440   69.4490  -15.5010 N.3   163  GLU163     -0.1245
     62  CA        31.4820   69.4310  -14.0750 C.3   163  GLU163      0.1567
     63  C         30.3090   69.0430  -13.2090 C.2   163  GLU163      0.2260
     64  O         29.1940   69.5020  -13.4470 O.2   163  GLU163     -0.2867
     65  CB        31.8860   70.8160  -13.6030 C.3   163  GLU163      0.0388
     66  CG        33.0680   71.4300  -14.3280 C.3   163  GLU163      0.1160
     67  CD        33.6030   72.5960  -13.5200 C.2   163  GLU163      0.3649
     68  OE1       34.0130   73.5920  -14.1500 O.co2 163  GLU163     -0.2457
     69  OE2       33.5950   72.5310  -12.2670 O.co2 163  GLU163     -0.2457
     70  N         28.8070   69.7100   -9.7390 N.3   165  LEU165     -0.1245
     71  CA        28.9730   70.8100   -8.7830 C.3   165  LEU165      0.1561
     72  C         28.5250   70.4790   -7.3740 C.2   165  LEU165      0.2260
     73  O         28.9800   71.1270   -6.4340 O.2   165  LEU165     -0.2867
     74  CB        28.2080   72.0310   -9.2900 C.3   165  LEU165      0.0270
     75  CG        28.7030   72.6390  -10.6090 C.3   165  LEU165      0.0019
     76  CD1       27.7510   73.7160  -11.0710 C.3   165  LEU165      0.0001
     77  CD2       30.0800   73.2640  -10.4450 C.3   165  LEU165      0.0001
     78  N         23.8830   74.2160   -9.3070 N.3   235  ASP235     -0.1239
     79  CA        25.0550   74.2870   -8.4210 C.3   235  ASP235      0.1674
     80  C         24.8440   73.8190   -6.9680 C.2   235  ASP235      0.2266
     81  O         25.7790   73.9040   -6.1670 O.2   235  ASP235     -0.2867
     82  CB        25.6400   75.7120   -8.4450 C.3   235  ASP235      0.1410
     83  CG        24.7150   76.8010   -7.9080 C.2   235  ASP235      0.3668
     84  OD1       23.4870   76.5450   -7.7980 O.co2 235  ASP235     -0.2456
     85  OD2       25.2120   77.9280   -7.6440 O.co2 235  ASP235     -0.2456
     86  N         27.0300   82.2630  -10.0360 N.3   289  TRP289     -0.1227
     87  CA        27.2960   80.8380   -9.8590 C.3   289  TRP289      0.1737
     88  C         27.9890   80.5420   -8.5420 C.2   289  TRP289      0.2595
     89  O         28.7130   81.3970   -8.0290 O.2   289  TRP289     -0.2718
     90  CB        28.1570   80.3000  -11.0220 C.3   289  TRP289      0.0564
     91  CG        27.4300   80.2660  -12.3250 C.ar  289  TRP289      0.0003
     92  CD1       27.8510   80.7790  -13.5150 C.ar  289  TRP289      0.0946
     93  CD2       26.1060   79.7680  -12.5420 C.ar  289  TRP289      0.0152
     94  NE1       26.8730   80.6180  -14.4670 N.ar  289  TRP289     -0.2442
     95  CE2       25.7750   80.0350  -13.8860 C.ar  289  TRP289      0.0810
     96  CE3       25.1590   79.1290  -11.7230 C.ar  289  TRP289      0.0012
     97  CZ2       24.5710   79.6160  -14.4470 C.ar  289  TRP289      0.0191
     98  CZ3       23.9490   78.7610  -12.2680 C.ar  289  TRP289      0.0001
     99  CH2       23.6760   78.9820  -13.6240 C.ar  289  TRP289      0.0015
    100  N         27.8280   79.2950   -8.0420 N.am  290  TYR290     -0.1962
    101  CA        28.4950   78.7710   -6.8450 C.3   290  TYR290      0.1771
    102  C         28.0040   79.3860   -5.5120 C.2   290  TYR290      0.2619
    103  O         28.7850   79.9530   -4.7520 O.2   290  TYR290     -0.2715
    104  CB        30.0310   78.8710   -6.9670 C.3   290  TYR290      0.0574
    105  CG        30.5790   78.5040   -8.3330 C.ar  290  TYR290     -0.0198
    106  CD1       30.6270   77.1780   -8.7550 C.ar  290  TYR290     -0.0009
    107  CD2       31.0830   79.4820   -9.1910 C.ar  290  TYR290     -0.0009
    108  CE1       31.1310   76.8360  -10.0160 C.ar  290  TYR290      0.0417
    109  CE2       31.5990   79.1500  -10.4470 C.ar  290  TYR290      0.0417
    110  CZ        31.6020   77.8270  -10.8610 C.ar  290  TYR290      0.1957
    111  OH        32.1320   77.4990  -12.0830 O.3   290  TYR290     -0.2866
    112  N         26.7160   79.2250   -5.2230 N.am  291  MET291     -0.1963
    113  CA        26.0870   79.7080   -3.9890 C.3   291  MET291      0.1736
    114  C         25.3160   78.5270   -3.4660 C.2   291  MET291      0.2616
    115  O         24.4360   78.0220   -4.1650 O.2   291  MET291     -0.2715
    116  CB        25.1790   80.9250   -4.2520 C.3   291  MET291      0.0427
    117  CG        25.9310   82.1040   -4.9000 C.3   291  MET291      0.0599
    118  SD        26.9890   83.0160   -3.7390 S.3   291  MET291     -0.1393
    119  CE        25.8250   84.0920   -3.0300 C.3   291  MET291      0.0692
    120  N         25.6300   78.0850   -2.2360 N.am  292  ARG292     -0.1977
    121  CA        24.9980   76.9070   -1.6550 C.3   292  ARG292      0.1597
    122  C         23.9400   77.1960   -0.6070 C.2   292  ARG292      0.2287
    123  O         24.1100   78.0950    0.2120 O.2   292  ARG292     -0.2864
    124  CB        26.0660   76.0080   -1.0160 C.3   292  ARG292      0.0334
    125  CG        27.0670   75.4710   -2.0140 C.3   292  ARG292      0.0492
    126  CD        27.6100   74.1710   -1.4830 C.3   292  ARG292      0.2205
    127  NE        28.7300   73.6530   -2.2570 N.pl3 292  ARG292     -0.0865
    128  CZ        28.6140   72.8760   -3.3320 C.cat 292  ARG292      0.5346
    129  NH1       27.4210   72.6320   -3.8610 N.pl3 292  ARG292      0.1354
    130  NH2       29.6920   72.4140   -3.9380 N.pl3 292  ARG292      0.1354
    131  N         28.7120   82.7060    0.4660 N.3   339  ARG339     -0.1245
    132  CA        28.9010   81.4670   -0.3040 C.3   339  ARG339      0.1563
    133  C         28.2170   80.2500    0.2950 C.2   339  ARG339      0.2260
    134  O         27.7460   79.3560   -0.4210 O.2   339  ARG339     -0.2867
    135  CB        30.4050   81.1890   -0.4810 C.3   339  ARG339      0.0307
    136  CG        31.1160   82.1840   -1.3890 C.3   339  ARG339      0.0489
    137  CD        30.7440   81.9510   -2.8490 C.3   339  ARG339      0.2205
    138  NE        31.2060   83.0560   -3.6890 N.pl3 339  ARG339     -0.0865
    139  CZ        30.9030   83.2040   -4.9700 C.cat 339  ARG339      0.5346
    140  NH1       31.3570   84.2470   -5.6450 N.pl3 339  ARG339      0.1354
    141  NH2       30.1350   82.3110   -5.5880 N.pl3 339  ARG339      0.1354
@<TRIPOS>BOND
     1    61    62    1
     2    55    54    2
     3    59    60    1
     4    59    58    1
     5    94    95   ar
     6    94    92   ar
     7    97    95   ar
     8    97    99   ar
     9    66    65    1
    10    66    67    1
    11    68    67   ar
    12    62    65    1
    13    62    63    1
    14    95    93   ar
    15    99    98   ar
    16    57    58    1
    17    57    56    1
    18    54    53    1
    19    67    69   ar
    20    92    91   ar
    21    64    63    2
    22    93    91   ar
    23    93    96   ar
    24    53    56    1
    25    53    52    1
    26    91    90    1
    27    98    96   ar
    28   111   110    1
    29    76    75    1
    30    90    87    1
    31   110   109   ar
    32   110   108   ar
    33    75    77    1
    34    75    74    1
    35   109   107   ar
    36    39    40    1
    37    86    87    1
    38   108   106   ar
    39    87    88    1
    40    70    71    1
    41    51    49   am
    42    78    79    1
    43    43    40    1
    44    74    71    1
    45   107   105   ar
    46    42    41    2
    47    40    41    1
    48    71    72    1
    49   106   105   ar
    50    88   100   am
    51    88    89    2
    52    82    79    1
    53    82    83    1
    54    79    80    1
    55   105   104    1
    56    49    50    2
    57    49    48    1
    58   100   101    1
    59    83    84   ar
    60    83    85   ar
    61    38    37    1
    62    72    73    2
    63    48    45    1
    64    80    81    2
    65   104   101    1
    66   101   102    1
    67    36    37   ar
    68    36    34   ar
    69    37    35   ar
    70    44    45    1
    71    45    46    1
    72    34    32   ar
    73   140   139    1
    74    35    33   ar
    75   141   139    1
    76   102   112   am
    77   102   103    2
    78   112   113    1
    79    26    24   am
    80   139   138    2
    81   117   116    1
    82   117   118    1
    83    46    47    2
    84    23    24    1
    85    23    20    1
    86    32    33   ar
    87    32    31    1
    88   116   113    1
    89    24    25    2
    90   115   114    2
    91    18    16   ar
    92    18    17   ar
    93   113   114    1
    94   130   128    1
    95   129   128    1
    96    16    14   ar
    97   118   119    1
    98    19    20    1
    99   138   137    1
   100    22    21    2
   101   114   120   am
   102    31    28    1
   103    20    21    1
   104    17    15   ar
   105   128   127    2
   106    14    13   ar
   107     6     7    1
   108     6     5    1
   109   137   136    1
   110    15    13   ar
   111   127   126    1
   112   120   121    1
   113     7     1    1
   114    13    12    1
   115   125   126    1
   116   125   124    1
   117    28    27    1
   118    28    29    1
   119     5     2    1
   120   121   124    1
   121   121   122    1
   122   136   135    1
   123    12     9    1
   124    29    30    2
   125     1     2    1
   126   122   123    2
   127     2     3    1
   128   135   132    1
   129   134   133    2
   130   132   133    1
   131   132   131    1
   132     9     8    1
   133     9    10    1
   134     4     3    2
   135    11    10    2
