@<TRIPOS>MOLECULE
tmp/5h15A00.pdb
 138 129 0 0 0
SMALL
GASTEIGER

@<TRIPOS>ATOM
      1  N         35.0150    7.6700   26.4570 N.3    18  PRO18      -0.2116
      2  CA        33.7100    8.3130   26.2090 C.3    18  PRO18       0.1372
      3  C         33.7590    9.6260   25.4450 C.2    18  PRO18       0.2244
      4  O         34.6840   10.4190   25.5850 O.2    18  PRO18      -0.2868
      5  CB        33.1410    8.5120   27.6180 C.3    18  PRO18       0.0268
      6  CG        33.8180    7.4560   28.4380 C.3    18  PRO18       0.0207
      7  CD        35.2130    7.4460   27.9040 C.3    18  PRO18       0.0892
      8  N         31.8810   13.0650   24.9770 N.3    20  PHE20      -0.1241
      9  CA        30.9790   13.8890   25.7810 C.3    20  PHE20       0.1605
     10  C         30.1600   14.8670   24.9770 C.2    20  PHE20       0.2264
     11  O         29.0610   15.2350   25.4010 O.2    20  PHE20      -0.2867
     12  CB        31.7460   14.6280   26.8910 C.3    20  PHE20       0.0534
     13  CG        32.4730   13.7290   27.8640 C.ar   20  PHE20      -0.0203
     14  CD1       31.7720   12.9810   28.8040 C.ar   20  PHE20      -0.0042
     15  CD2       33.8600   13.6510   27.8590 C.ar   20  PHE20      -0.0042
     16  CE1       32.4500   12.1490   29.7140 C.ar   20  PHE20      -0.0003
     17  CE2       34.5380   12.8560   28.7950 C.ar   20  PHE20      -0.0003
     18  CZ        33.8280   12.1180   29.7230 C.ar   20  PHE20      -0.0000
     19  N         40.8410   16.1630   29.2020 N.3    69  ASN69      -0.1240
     20  CA        39.5910   15.4930   28.8730 C.3    69  ASN69       0.1653
     21  C         38.5370   16.5550   28.5030 C.2    69  ASN69       0.2266
     22  O         38.0030   17.2390   29.3840 O.2    69  ASN69      -0.2867
     23  CB        39.1420   14.5710   30.0090 C.3    69  ASN69       0.1155
     24  CG        38.0380   13.5920   29.6450 C.2    69  ASN69       0.2627
     25  OD1       37.6020   13.4700   28.4750 O.2    69  ASN69      -0.2716
     26  ND2       37.5590   12.8650   30.6530 N.am   69  ASN69      -0.0877
     27  N         35.0760   18.1560   27.4400 N.3    71  TYR71      -0.1241
     28  CA        33.6920   17.8870   27.8110 C.3    71  TYR71       0.1605
     29  C         32.7090   18.5530   26.8640 C.2    71  TYR71       0.2264
     30  O         31.5260   18.2060   26.8550 O.2    71  TYR71      -0.2867
     31  CB        33.4110   18.4280   29.2290 C.3    71  TYR71       0.0534
     32  CG        34.2100   17.8140   30.3640 C.ar   71  TYR71      -0.0201
     33  CD1       34.5170   16.4510   30.3740 C.ar   71  TYR71      -0.0009
     34  CD2       34.5320   18.5600   31.4960 C.ar   71  TYR71      -0.0009
     35  CE1       35.2010   15.8690   31.4410 C.ar   71  TYR71       0.0417
     36  CE2       35.1900   17.9840   32.5840 C.ar   71  TYR71       0.0417
     37  CZ        35.5260   16.6380   32.5510 C.ar   71  TYR71       0.1957
     38  OH        36.1720   16.0640   33.6180 O.3    71  TYR71      -0.2866
     39  N         32.5700   22.8810   31.9600 N.3   117  ASN117     -0.1240
     40  CA        31.5300   21.9200   31.6610 C.3   117  ASN117      0.1653
     41  C         30.7660   22.2120   30.4020 C.2   117  ASN117      0.2266
     42  O         30.2090   21.2860   29.8160 O.2   117  ASN117     -0.2867
     43  CB        30.5900   21.7440   32.8570 C.3   117  ASN117      0.1155
     44  CG        31.2770   21.1650   34.0710 C.2   117  ASN117      0.2627
     45  OD1       31.9460   20.1380   33.9930 O.2   117  ASN117     -0.2716
     46  ND2       31.1390   21.8220   35.2260 N.am  117  ASN117     -0.0877
     47  N         33.3100   24.3450   37.0400 N.3   134  LYS134     -0.1245
     48  CA        33.3690   23.5900   38.2830 C.3   134  LYS134      0.1561
     49  C         33.6190   24.5600   39.4720 C.2   134  LYS134      0.2260
     50  O         33.2610   24.2540   40.6050 O.2   134  LYS134     -0.2867
     51  CB        34.4760   22.5140   38.1440 C.3   134  LYS134      0.0271
     52  CG        34.7560   21.7170   39.4050 C.3   134  LYS134      0.0035
     53  CD        35.3080   20.3340   39.1090 C.3   134  LYS134      0.0206
     54  CE        35.6550   19.6430   40.4060 C.3   134  LYS134      0.1093
     55  NZ        36.0910   18.2430   40.1950 N.3   134  LYS134     -0.1314
     56  N         29.2300   23.4080   41.0870 N.3   161  GLU161     -0.1245
     57  CA        29.5650   23.3800   39.6620 C.3   161  GLU161      0.1567
     58  C         28.4240   23.8410   38.8020 C.2   161  GLU161      0.2260
     59  O         27.3010   23.3720   38.9950 O.2   161  GLU161     -0.2867
     60  CB        29.8300   21.9400   39.1970 C.3   161  GLU161      0.0388
     61  CG        31.0450   21.2810   39.8040 C.3   161  GLU161      0.1160
     62  CD        31.6510   20.2590   38.8690 C.2   161  GLU161      0.3649
     63  OE1       31.8130   20.5680   37.6680 O.co2 161  GLU161     -0.2457
     64  OE2       31.9870   19.1540   39.3410 O.co2 161  GLU161     -0.2457
     65  N         26.7440   23.3190   35.4470 N.3   163  LEU163     -0.1245
     66  CA        26.8190   22.2090   34.4680 C.3   163  LEU163      0.1561
     67  C         26.4270   22.5970   33.0640 C.2   163  LEU163      0.2260
     68  O         26.9530   22.0380   32.1040 O.2   163  LEU163     -0.2867
     69  CB        25.9940   21.0040   34.9400 C.3   163  LEU163      0.0270
     70  CG        26.4700   20.3480   36.2500 C.3   163  LEU163      0.0019
     71  CD1       25.4160   19.3890   36.7810 C.3   163  LEU163      0.0001
     72  CD2       27.8470   19.6480   36.0700 C.3   163  LEU163      0.0001
     73  N         24.8370   21.8470   39.9430 N.3   179  MET179     -0.1245
     74  CA        24.8520   20.8720   41.0070 C.3   179  MET179      0.1570
     75  C         24.2240   21.3530   42.3020 C.2   179  MET179      0.2261
     76  O         24.0010   20.5320   43.1920 O.2   179  MET179     -0.2867
     77  CB        26.2700   20.3250   41.2460 C.3   179  MET179      0.0387
     78  CG        26.6920   19.3490   40.1860 C.3   179  MET179      0.0595
     79  SD        28.3810   18.7800   40.3160 S.3   179  MET179     -0.1393
     80  CE        28.2490   17.6540   41.6340 C.3   179  MET179      0.0692
     81  N         21.4080   19.2820   34.9860 N.3   226  ASP226     -0.1239
     82  CA        22.5500   19.0650   34.1060 C.3   226  ASP226      0.1674
     83  C         22.3810   19.5830   32.6890 C.2   226  ASP226      0.2266
     84  O         23.3750   19.6290   31.9760 O.2   226  ASP226     -0.2867
     85  CB        22.9700   17.5770   34.1080 C.3   226  ASP226      0.1410
     86  CG        21.9190   16.5850   33.6320 C.2   226  ASP226      0.3668
     87  OD1       20.7330   16.9690   33.5360 O.co2 226  ASP226     -0.2456
     88  OD2       22.2810   15.4320   33.3580 O.co2 226  ASP226     -0.2456
     89  N         24.5370   13.7650   34.0170 N.3   281  TYR281     -0.1227
     90  CA        25.3390   14.2700   32.8790 C.3   281  TYR281      0.1736
     91  C         24.9110   13.7300   31.4910 C.2   281  TYR281      0.2595
     92  O         25.7090   13.1410   30.7570 O.2   281  TYR281     -0.2718
     93  CB        26.8510   14.0420   33.1590 C.3   281  TYR281      0.0548
     94  CG        27.2290   14.4040   34.5850 C.ar  281  TYR281     -0.0200
     95  CD1       26.9870   15.6810   35.0890 C.ar  281  TYR281     -0.0009
     96  CD2       27.7170   13.4400   35.4630 C.ar  281  TYR281     -0.0009
     97  CE1       27.2360   15.9900   36.4240 C.ar  281  TYR281      0.0417
     98  CE2       27.9950   13.7460   36.7940 C.ar  281  TYR281      0.0417
     99  CZ        27.7380   15.0190   37.2740 C.ar  281  TYR281      0.1957
    100  OH        28.0170   15.3320   38.5790 O.3   281  TYR281     -0.2866
    101  N         23.6420   13.9750   31.1300 N.am  282  MET282     -0.1965
    102  CA        23.0220   13.5520   29.8600 C.3   282  MET282      0.1736
    103  C         22.3870   14.7960   29.2770 C.2   282  MET282      0.2616
    104  O         21.5120   15.3920   29.9110 O.2   282  MET282     -0.2715
    105  CB        21.9730   12.4510   30.1080 C.3   282  MET282      0.0427
    106  CG        22.5500   11.1670   30.7520 C.3   282  MET282      0.0599
    107  SD        23.6470   10.1630   29.7100 S.3   282  MET282     -0.1393
    108  CE        22.4850    9.2580   28.8440 C.3   282  MET282      0.0692
    109  N         22.8510   15.2200   28.0920 N.am  283  ARG283     -0.1977
    110  CA        22.3970   16.4530   27.4490 C.3   283  ARG283      0.1597
    111  C         21.2630   16.2480   26.4540 C.2   283  ARG283      0.2287
    112  O         21.2720   15.2640   25.7040 O.2   283  ARG283     -0.2864
    113  CB        23.5680   17.1190   26.7030 C.3   283  ARG283      0.0334
    114  CG        24.7240   17.5610   27.5720 C.3   283  ARG283      0.0492
    115  CD        25.2440   18.8970   27.0760 C.3   283  ARG283      0.2205
    116  NE        26.3290   19.4290   27.8980 N.pl3 283  ARG283     -0.0865
    117  CZ        26.1670   20.0930   29.0380 C.cat 283  ARG283      0.5346
    118  NH1       24.9490   20.2600   29.5550 N.pl3 283  ARG283      0.1354
    119  NH2       27.2180   20.5490   29.6960 N.pl3 283  ARG283      0.1354
    120  N         25.6290   10.5180   25.4400 N.3   330  ARG330     -0.1197
    121  CA        26.0100   11.7400   26.1950 C.3   330  ARG330      0.1779
    122  C         25.4590   12.9890   25.5660 C.2   330  ARG330      0.2305
    123  O         24.9720   13.8710   26.2790 O.2   330  ARG330     -0.2863
    124  CB        27.5390   11.8550   26.2880 C.2   330  ARG330     -0.0007
    125  CG        28.2420   11.1190   27.4590 C.2   330  ARG330      0.0176
    126  CD        27.4090   10.1560   28.2970 C.3   330  ARG330      0.2464
    127  NE        26.9670   10.7410   29.5610 N.pl3 330  ARG330     -0.0815
    128  CZ        27.0930   10.1620   30.7520 C.cat 330  ARG330      0.5349
    129  NH1       27.6560    8.9660   30.8600 N.pl3 330  ARG330      0.1354
    130  NH2       26.6510   10.7720   31.8430 N.pl3 330  ARG330      0.1354
    131  N         29.4110    6.6560   25.3990 N.3   346  ASP346     -0.1239
    132  CA        30.4360    6.2930   26.3870 C.3   346  ASP346      0.1674
    133  C         31.4560    5.2780   25.8370 C.2   346  ASP346      0.2266
    134  O         32.5780    5.2510   26.3360 O.2   346  ASP346     -0.2867
    135  CB        29.8110    5.7770   27.6880 C.3   346  ASP346      0.1410
    136  CG        29.4390    6.8520   28.6950 C.2   346  ASP346      0.3668
    137  OD1       29.7070    8.0510   28.4230 O.co2 346  ASP346     -0.2456
    138  OD2       28.9190    6.4980   29.7730 O.co2 346  ASP346     -0.2456
@<TRIPOS>BOND
     1     8     9    1
     2    10    11    2
     3    10     9    1
     4   131   132    1
     5   120   121    1
     6     3     4    2
     7     3     2    1
     8   122   121    1
     9   122   123    2
    10   112   111    2
    11     9    12    1
    12   133   134    2
    13   133   132    1
    14   121   124    1
    15     2     1    1
    16     2     5    1
    17   124   125    2
    18   132   135    1
    19   111   110    1
    20     1     7    1
    21   113   110    1
    22   113   114    1
    23    30    29    2
    24    29    28    1
    25    12    13    1
    26   115   114    1
    27   115   116    1
    28    27    28    1
    29   110   109    1
    30   125   126    1
    31     5     6    1
    32   135   136    1
    33    28    31    1
    34    15    13   ar
    35    15    17   ar
    36    13    14   ar
    37   116   117    2
    38     7     6    1
    39   109   103   am
    40   126   127    1
    41   137   136   ar
    42    25    24    2
    43    21    20    1
    44    21    22    2
    45   136   138   ar
    46    17    18   ar
    47    14    16   ar
    48   108   107    1
    49    20    19    1
    50    20    23    1
    51   117   118    1
    52   117   119    1
    53    31    32    1
    54   103   102    1
    55   103   104    2
    56   127   128    2
    57    24    23    1
    58    24    26   am
    59   107   106    1
    60    16    18   ar
    61    42    41    2
    62   102   105    1
    63   102   101    1
    64   105   106    1
    65    32    33   ar
    66    32    34   ar
    67    33    35   ar
    68    41    40    1
    69   128   129    1
    70   128   130    1
    71    92    91    2
    72   101    91   am
    73    35    37   ar
    74    91    90    1
    75    34    36   ar
    76    40    39    1
    77    40    43    1
    78    84    83    2
    79    68    67    2
    80    37    36   ar
    81    37    38    1
    82    83    82    1
    83    43    44    1
    84    90    93    1
    85    90    89    1
    86    67    66    1
    87    93    94    1
    88    88    86   ar
    89    87    86   ar
    90    86    85    1
    91    45    44    2
    92    44    46   am
    93    82    85    1
    94    82    81    1
    95    66    69    1
    96    66    65    1
    97    94    95   ar
    98    94    96   ar
    99    69    70    1
   100    95    97   ar
   101    96    98   ar
   102    72    70    1
   103    70    71    1
   104    97    99   ar
   105    98    99   ar
   106    47    48    1
   107    99   100    1
   108    63    62   ar
   109    51    48    1
   110    51    52    1
   111    48    49    1
   112    58    59    2
   113    58    57    1
   114    62    64   ar
   115    62    61    1
   116    53    52    1
   117    53    54    1
   118    60    57    1
   119    60    61    1
   120    49    50    2
   121    57    56    1
   122    73    74    1
   123    78    79    1
   124    78    77    1
   125    55    54    1
   126    79    80    1
   127    74    77    1
   128    74    75    1
   129    75    76    2
