@<TRIPOS>MOLECULE
tmp/5h17A00.pdb
 121 114 0 0 0
SMALL
GASTEIGER

@<TRIPOS>ATOM
      1  N         10.9170   10.2160    6.2090 N.3    19  PRO19      -0.2116
      2  CA        11.2110   11.5240    6.8330 C.3    19  PRO19       0.1372
      3  C         12.0150   11.4740    8.1320 C.2    19  PRO19       0.2244
      4  O         11.8310   10.5900    8.9650 O.2    19  PRO19      -0.2868
      5  CB         9.8230   12.1310    7.0730 C.3    19  PRO19       0.0268
      6  CG         8.8850   11.3730    6.1310 C.3    19  PRO19       0.0207
      7  CD         9.4530    9.9960    6.0790 C.3    19  PRO19       0.0892
      8  N         12.5720   13.3740   11.4480 N.3    21  PHE21      -0.1241
      9  CA        11.8100   14.3180   12.2650 C.3    21  PHE21       0.1605
     10  C         12.6230   15.0500   13.3010 C.2    21  PHE21       0.2264
     11  O         12.1540   16.0660   13.8310 O.2    21  PHE21      -0.2867
     12  CB        10.6090   13.6020   12.9230 C.3    21  PHE21       0.0534
     13  CG         9.5420   13.2350   11.9190 C.ar   21  PHE21      -0.0203
     14  CD1        8.7690   14.2200   11.3090 C.ar   21  PHE21      -0.0042
     15  CD2        9.3130   11.9030   11.5760 C.ar   21  PHE21      -0.0042
     16  CE1        7.7840   13.8770   10.3680 C.ar   21  PHE21      -0.0003
     17  CE2        8.3020   11.5570   10.6710 C.ar   21  PHE21      -0.0003
     18  CZ         7.5490   12.5450   10.0690 C.ar   21  PHE21      -0.0000
     19  N         10.2650   10.2800   16.6930 N.3    72  TYR72      -0.1241
     20  CA         9.9380   11.6860   16.4190 C.3    72  TYR72       0.1605
     21  C         10.9030   12.6620   17.0250 C.2    72  TYR72       0.2264
     22  O         10.8870   13.8270   16.6300 O.2    72  TYR72      -0.2867
     23  CB         8.5440   12.0320   16.9830 C.3    72  TYR72       0.0534
     24  CG         7.3750   11.3210   16.3460 C.ar   72  TYR72      -0.0201
     25  CD1        7.3040   11.1520   14.9650 C.ar   72  TYR72      -0.0009
     26  CD2        6.2750   10.9300   17.1070 C.ar   72  TYR72      -0.0009
     27  CE1        6.2080   10.5310   14.3690 C.ar   72  TYR72       0.0417
     28  CE2        5.1600   10.3380   16.5150 C.ar   72  TYR72       0.0417
     29  CZ         5.1370   10.1290   15.1470 C.ar   72  TYR72       0.1957
     30  OH         4.0460    9.5280   14.5610 O.3    72  TYR72      -0.2866
     31  N          5.8890   12.9460   21.3680 N.3   118  ASN118     -0.1240
     32  CA         6.2120   13.9620   20.3570 C.3   118  ASN118      0.1653
     33  C          7.5200   14.7110   20.5980 C.2   118  ASN118      0.2266
     34  O          8.1510   15.1510   19.6370 O.2   118  ASN118     -0.2867
     35  CB         5.0400   14.9420   20.2100 C.3   118  ASN118      0.1155
     36  CG         3.7720   14.2500   19.7210 C.2   118  ASN118      0.2627
     37  OD1        3.8250   13.3280   18.8900 O.2   118  ASN118     -0.2716
     38  ND2        2.6080   14.6340   20.2580 N.am  118  ASN118     -0.0877
     39  N         -3.2630   16.5680   21.8000 N.3   162  GLU162     -0.1245
     40  CA        -1.8320   16.2010   21.8160 C.3   162  GLU162      0.1567
     41  C         -0.9150   17.3190   22.3020 C.2   162  GLU162      0.2260
     42  O         -1.1020   18.4680   21.9030 O.2   162  GLU162     -0.2867
     43  CB        -1.3640   15.8380   20.3930 C.3   162  GLU162      0.0388
     44  CG        -1.9740   14.5780   19.8160 C.3   162  GLU162      0.1160
     45  CD        -1.0620   13.8400   18.8530 C.2   162  GLU162      0.3649
     46  OE1        0.1750   13.8760   19.0470 O.co2 162  GLU162     -0.2457
     47  OE2       -1.5930   13.1500   17.9550 O.co2 162  GLU162     -0.2457
     48  N          2.5170   18.8620   21.7650 N.3   164  LEU164     -0.1245
     49  CA         3.3990   18.8190   20.6000 C.3   164  LEU164      0.1561
     50  C          4.8390   19.2200   20.8870 C.2   164  LEU164      0.2260
     51  O          5.7580   18.7310   20.2340 O.2   164  LEU164     -0.2867
     52  CB         2.7950   19.6820   19.4600 C.3   164  LEU164      0.0270
     53  CG         1.5010   19.1480   18.8200 C.3   164  LEU164      0.0019
     54  CD1        1.0000   20.0770   17.7580 C.3   164  LEU164      0.0001
     55  CD2        1.6920   17.7490   18.2260 C.3   164  LEU164      0.0001
     56  N         -2.1040   20.7860   20.0180 N.3   180  MET180     -0.1245
     57  CA        -3.1930   20.7800   19.0410 C.3   180  MET180      0.1570
     58  C         -4.4440   21.5140   19.5060 C.2   180  MET180      0.2261
     59  O         -5.2980   21.8470   18.6720 O.2   180  MET180     -0.2867
     60  CB        -3.5360   19.3470   18.6080 C.3   180  MET180      0.0387
     61  CG        -2.4560   18.6600   17.7770 C.3   180  MET180      0.0595
     62  SD        -3.0520   17.0200   17.3110 S.3   180  MET180     -0.1393
     63  CE        -1.6750   16.4000   16.5030 C.3   180  MET180      0.0692
     64  N          3.0630   23.7950   17.2300 N.3   227  ASP227     -0.1239
     65  CA         3.9610   22.6530   17.0700 C.3   227  ASP227      0.1674
     66  C          5.3460   22.8570   17.6670 C.2   227  ASP227      0.2266
     67  O          6.0880   21.8890   17.8230 O.2   227  ASP227     -0.2867
     68  CB         4.0400   22.2110   15.5760 C.3   227  ASP227      0.1410
     69  CG         4.4000   23.2870   14.5650 C.2   227  ASP227      0.3668
     70  OD1        4.5470   24.4720   14.9680 O.co2 227  ASP227     -0.2456
     71  OD2        4.5660   22.9500   13.3800 O.co2 227  ASP227     -0.2456
     72  N          3.9410   20.5400   11.9290 N.3   282  TYR282     -0.1227
     73  CA         5.0960   19.7500   12.4170 C.3   282  TYR282      0.1736
     74  C          6.4680   20.1740   11.8630 C.2   282  TYR282      0.2595
     75  O          7.2190   19.3840   11.2660 O.2   282  TYR282     -0.2718
     76  CB         4.8310   18.2520   12.1960 C.3   282  TYR282      0.0548
     77  CG         3.4040   17.8730   12.5560 C.ar  282  TYR282     -0.0200
     78  CD1        2.8680   18.2020   13.8020 C.ar  282  TYR282     -0.0009
     79  CD2        2.5710   17.2460   11.6290 C.ar  282  TYR282     -0.0009
     80  CE1        1.5450   17.9200   14.1180 C.ar  282  TYR282      0.0417
     81  CE2        1.2480   16.9260   11.9460 C.ar  282  TYR282      0.0417
     82  CZ         0.7390   17.2760   13.1910 C.ar  282  TYR282      0.1957
     83  OH        -0.5480   16.9880   13.5410 O.3   282  TYR282     -0.2866
     84  N          6.8030   21.4260   12.1040 N.am  283  MET283     -0.1965
     85  CA         8.0560   22.0480   11.6560 C.3   283  MET283      0.1736
     86  C          8.6430   22.7850   12.8650 C.2   283  MET283      0.2616
     87  O          8.0290   23.7270   13.3820 O.2   283  MET283     -0.2715
     88  CB         7.8260   23.0170   10.4780 C.3   283  MET283      0.0427
     89  CG         7.1230   22.3900    9.2540 C.3   283  MET283      0.0599
     90  SD         8.1670   21.3910    8.1600 S.3   283  MET283     -0.1393
     91  CE         8.9620   22.6270    7.2780 C.3   283  MET283      0.0692
     92  N          9.8010   22.3200   13.3400 N.am  284  ARG284     -0.1977
     93  CA        10.4610   22.8880   14.5180 C.3   284  ARG284      0.1597
     94  C         11.3640   24.0490   14.1630 C.2   284  ARG284      0.2287
     95  O         12.0100   24.0230   13.1060 O.2   284  ARG284     -0.2864
     96  CB        11.3630   21.8320   15.1920 C.3   284  ARG284      0.0334
     97  CG        10.7430   20.4570   15.4920 C.3   284  ARG284      0.0492
     98  CD        10.1020   20.4390   16.8540 C.3   284  ARG284      0.2205
     99  NE         9.6800   19.1010   17.2650 N.pl3 284  ARG284     -0.0865
    100  CZ         8.7470   18.8770   18.1840 C.cat 284  ARG284      0.5346
    101  NH1        8.0890   19.8900   18.7330 N.pl3 284  ARG284      0.1354
    102  NH2        8.4220   17.6380   18.5170 N.pl3 284  ARG284      0.1354
    103  N         12.3480   19.4300    8.5860 N.3   331  ARG331     -0.1245
    104  CA        11.5740   19.1730    9.8170 C.3   331  ARG331      0.1563
    105  C         12.2010   19.7920   11.0850 C.2   331  ARG331      0.2260
    106  O         11.4880   20.2570   11.9780 O.2   331  ARG331     -0.2867
    107  CB        11.3390   17.6510    9.9890 C.3   331  ARG331      0.0307
    108  CG        10.4030   17.0270    8.9230 C.3   331  ARG331      0.0489
    109  CD         8.9360   17.4230    9.0930 C.3   331  ARG331      0.2205
    110  NE         8.1390   17.1280    7.8970 N.pl3 331  ARG331     -0.0865
    111  CZ         6.8500   17.4300    7.7450 C.cat 331  ARG331      0.5346
    112  NH1        6.2170   17.1120    6.6260 N.pl3 331  ARG331      0.1354
    113  NH2        6.1950   18.0870    8.6980 N.pl3 331  ARG331      0.1354
    114  N         12.3310   15.6250    4.9350 N.3   347  ASP347     -0.1239
    115  CA        11.2680   14.6730    4.6100 C.3   347  ASP347      0.1674
    116  C         11.6940   13.5410    3.6540 C.2   347  ASP347      0.2266
    117  O         11.0390   12.4960    3.6460 O.2   347  ASP347     -0.2867
    118  CB        10.0340   15.4030    4.0600 C.3   347  ASP347      0.1410
    119  CG         8.8780   15.5790    5.0320 C.2   347  ASP347      0.3668
    120  OD1        9.0170   15.1790    6.2070 O.co2 347  ASP347     -0.2456
    121  OD2        7.8280   16.0910    4.6100 O.co2 347  ASP347     -0.2456
@<TRIPOS>BOND
     1   117   116    2
     2   116   115    1
     3   118   115    1
     4   118   119    1
     5   121   119   ar
     6   115   114    1
     7   119   120   ar
     8     7     6    1
     9     7     1    1
    10     6     5    1
    11     1     2    1
    12   112   111    1
    13     2     5    1
    14     2     3    1
    15    91    90    1
    16   111   110    2
    17   111   113    1
    18   110   109    1
    19     3     4    2
    20    90    89    1
    21   103   104    1
    22   108   109    1
    23   108   107    1
    24    89    88    1
    25   104   107    1
    26   104   105    1
    27    18    16   ar
    28    18    17   ar
    29    16    14   ar
    30    88    85    1
    31    17    15   ar
    32   105   106    2
    33    75    74    2
    34    14    13   ar
    35     8     9    1
    36    15    13   ar
    37    79    81   ar
    38    79    77   ar
    39    85    84    1
    40    85    86    1
    41    74    84   am
    42    74    73    1
    43    13    12    1
    44    72    73    1
    45    81    82   ar
    46    76    73    1
    47    76    77    1
    48     9    12    1
    49     9    10    1
    50    77    78   ar
    51    86    92   am
    52    86    87    2
    53    95    94    2
    54    82    83    1
    55    82    80   ar
    56    10    11    2
    57    92    93    1
    58    71    69   ar
    59    78    80   ar
    60    94    93    1
    61    27    25   ar
    62    27    29   ar
    63    93    96    1
    64    30    29    1
    65    69    70   ar
    66    69    68    1
    67    25    24   ar
    68    29    28   ar
    69    96    97    1
    70    97    98    1
    71    68    65    1
    72    24    23    1
    73    24    26   ar
    74    20    19    1
    75    20    23    1
    76    20    21    1
    77    63    62    1
    78    28    26   ar
    79    22    21    2
    80    98    99    1
    81    65    64    1
    82    65    66    1
    83    99   100    2
    84    62    61    1
    85    66    67    2
    86    54    53    1
    87    61    60    1
    88    47    45   ar
    89   100   102    1
    90   100   101    1
    91    55    53    1
    92    60    57    1
    93    59    58    2
    94    53    52    1
    95    45    46   ar
    96    45    44    1
    97    37    36    2
    98    57    58    1
    99    57    56    1
   100    52    49    1
   101    34    33    2
   102    36    35    1
   103    36    38   am
   104    44    43    1
   105    35    32    1
   106    51    50    2
   107    32    33    1
   108    32    31    1
   109    43    40    1
   110    49    50    1
   111    49    48    1
   112    39    40    1
   113    40    41    1
   114    42    41    2
