@<TRIPOS>MOLECULE
tmp/5h18A00.pdb
 173 163 0 0 0
SMALL
GASTEIGER

@<TRIPOS>ATOM
      1  N          9.9840   10.5060   14.5360 N.3     8  VAL8       -0.1231
      2  CA        11.3030   11.1620   14.4740 C.3     8  VAL8        0.1692
      3  C         12.2610   10.1690   13.8090 C.2     8  VAL8        0.2592
      4  O         12.1840    8.9480   14.0470 O.2     8  VAL8       -0.2718
      5  CB        11.7510   11.7210   15.8220 C.3     8  VAL8        0.0266
      6  CG1       11.9020   10.6240   16.8330 C.3     8  VAL8        0.0020
      7  CG2       13.0530   12.4970   15.6770 C.3     8  VAL8        0.0020
      8  N         13.0910   10.7200   12.9300 N.am    9  ALA9       -0.1966
      9  CA        14.0220    9.9690   12.1080 C.3     9  ALA9        0.1728
     10  C         14.9510   10.9580   11.4190 C.2     9  ALA9        0.2617
     11  O         14.7350   12.1570   11.4850 O.2     9  ALA9       -0.2715
     12  CB        13.2870    9.1460   11.0620 C.3     9  ALA9        0.0334
     13  N         15.9460   10.4240   10.7210 N.am   10  SER10      -0.1936
     14  CA        16.8750   11.2190    9.9130 C.3    10  SER10       0.2055
     15  C         17.0310   10.5870    8.5360 C.2    10  SER10       0.2643
     16  O         16.9640    9.3840    8.3890 O.2    10  SER10      -0.2714
     17  CB        18.2420   11.2850   10.5910 C.3    10  SER10       0.2130
     18  OG        19.0490   12.2670    9.9680 O.3    10  SER10      -0.2179
     19  N         17.2620   11.4200    7.5380 N.am   11  GLY11      -0.1954
     20  CA        17.6940   10.9640    6.2470 C.3    11  GLY11       0.1869
     21  C         16.6420   11.0770    5.1690 C.2    11  GLY11       0.2309
     22  O         15.4220   11.1760    5.4230 O.2    11  GLY11      -0.2863
     23  N         15.6930    8.9200    2.6000 N.3    13  LEU13      -0.1231
     24  CA        14.7440    7.8300    2.4110 C.3    13  LEU13       0.1693
     25  C         13.7030    7.8360    3.5260 C.2    13  LEU13       0.2592
     26  O         12.4950    7.6620    3.2660 O.2    13  LEU13      -0.2718
     27  CB        15.4440    6.4930    2.3170 C.3    13  LEU13       0.0284
     28  CG        14.5040    5.3150    2.1200 C.3    13  LEU13       0.0019
     29  CD1       13.7500    5.3990    0.7980 C.3    13  LEU13       0.0001
     30  CD2       15.2920    4.0300    2.2490 C.3    13  LEU13       0.0001
     31  N         14.1280    8.0480    4.7610 N.am   14  TYR14      -0.1976
     32  CA        13.1680    8.0790    5.8700 C.3    14  TYR14       0.1639
     33  C         12.1860    9.2330    5.7560 C.2    14  TYR14       0.2290
     34  O         11.0260    9.0660    6.1780 O.2    14  TYR14      -0.2864
     35  CB        13.8710    8.0300    7.2370 C.3    14  TYR14       0.0560
     36  CG        13.9930    6.6360    7.7370 C.ar   14  TYR14      -0.0198
     37  CD1       14.7320    5.6720    7.0590 C.ar   14  TYR14      -0.0009
     38  CD2       13.2860    6.2490    8.8710 C.ar   14  TYR14      -0.0009
     39  CE1       14.8110    4.3660    7.5510 C.ar   14  TYR14       0.0417
     40  CE2       13.3640    4.9600    9.3660 C.ar   14  TYR14       0.0417
     41  CZ        14.1110    4.0280    8.6910 C.ar   14  TYR14       0.1957
     42  OH        14.1180    2.7520    9.2250 O.3    14  TYR14      -0.2866
     43  N         21.9410    8.3630   15.5030 N.3    74  GLN74      -0.1245
     44  CA        20.9250    7.3220   15.6960 C.3    74  GLN74       0.1566
     45  C         20.5110    7.2280   17.1640 C.2    74  GLN74       0.2260
     46  O         19.3240    7.0590   17.4870 O.2    74  GLN74      -0.2867
     47  CB        21.3960    5.9540   15.1970 C.3    74  GLN74       0.0367
     48  CG        20.2860    4.9140   15.1830 C.3    74  GLN74       0.0905
     49  CD        20.5790    3.6890   14.3170 C.2    74  GLN74       0.2608
     50  OE1       20.7240    2.5710   14.8330 O.2    74  GLN74      -0.2717
     51  NE2       20.6230    3.8840   12.9940 N.am   74  GLN74      -0.0878
     52  N         18.5060   10.3600   18.2730 N.3    77  ILE77      -0.1231
     53  CA        17.1130   10.1970   17.8340 C.3    77  ILE77       0.1692
     54  C         16.3580    9.1980   18.7230 C.2    77  ILE77       0.2592
     55  O         15.2170    9.4550   19.1060 O.2    77  ILE77      -0.2718
     56  CB        17.0550    9.8470   16.3410 C.3    77  ILE77       0.0266
     57  CG1       17.4350   11.1060   15.5610 C.3    77  ILE77       0.0019
     58  CG2       15.6670    9.3620   15.9390 C.3    77  ILE77       0.0020
     59  CD1       17.6860   10.8970   14.1020 C.3    77  ILE77       0.0001
     60  N         16.9950    8.0830   19.0640 N.am   78  TRP78      -0.1976
     61  CA        16.3910    7.1510   20.0170 C.3    78  TRP78       0.1640
     62  C         16.0900    7.8180   21.3500 C.2    78  TRP78       0.2290
     63  O         15.0430    7.5560   21.9340 O.2    78  TRP78      -0.2864
     64  CB        17.2660    5.9220   20.2390 C.3    78  TRP78       0.0576
     65  CG        17.2190    4.8860   19.1520 C.ar   78  TRP78       0.0006
     66  CD1       16.2370    4.6960   18.2140 C.ar   78  TRP78       0.0946
     67  CD2       18.1920    3.8740   18.9270 C.ar   78  TRP78       0.0152
     68  NE1       16.5440    3.6140   17.4190 N.ar   78  TRP78      -0.2442
     69  CE2       17.7510    3.0990   17.8280 C.ar   78  TRP78       0.0810
     70  CE3       19.4240    3.5680   19.5250 C.ar   78  TRP78       0.0012
     71  CZ2       18.4850    2.0110   17.3390 C.ar   78  TRP78       0.0191
     72  CZ3       20.1460    2.4900   19.0440 C.ar   78  TRP78       0.0001
     73  CH2       19.6760    1.7190   17.9650 C.ar   78  TRP78       0.0015
     74  N         12.9330    9.7270   21.0440 N.3    81  LYS81      -0.1245
     75  CA        11.7390    8.8720   21.0640 C.3    81  LYS81       0.1561
     76  C         11.2320    8.5640   22.4560 C.2    81  LYS81       0.2260
     77  O         10.0430    8.5110   22.6790 O.2    81  LYS81      -0.2867
     78  CB        12.0170    7.5190   20.4270 C.3    81  LYS81       0.0271
     79  CG        12.1390    7.5430   18.9430 C.3    81  LYS81       0.0035
     80  CD        12.2950    6.1520   18.3670 C.3    81  LYS81       0.0206
     81  CE        11.1650    5.1950   18.7150 C.3    81  LYS81       0.1093
     82  NZ        11.2830    3.8880   18.0300 N.3    81  LYS81      -0.1314
     83  N          6.6200    4.6140   13.5210 N.3   100  ASP100     -0.1239
     84  CA         7.8900    4.6520   12.8020 C.3   100  ASP100      0.1674
     85  C          7.6710    5.2680   11.4080 C.2   100  ASP100      0.2266
     86  O          6.6390    5.0520   10.7700 O.2   100  ASP100     -0.2867
     87  CB         8.4560    3.2290   12.6710 C.3   100  ASP100      0.1410
     88  CG         9.8890    3.0960   13.1120 C.2   100  ASP100      0.3668
     89  OD1       10.5450    4.0940   13.4870 O.co2 100  ASP100     -0.2456
     90  OD2       10.3240    1.9220   13.1260 O.co2 100  ASP100     -0.2456
     91  N          8.9770    4.4360    8.7030 N.3   102  ASP102     -0.1239
     92  CA         8.9140    3.3680    7.7100 C.3   102  ASP102      0.1674
     93  C          7.6660    2.5130    7.7850 C.2   102  ASP102      0.2266
     94  O          7.5880    1.4830    7.1160 O.2   102  ASP102     -0.2867
     95  CB        10.1830    2.5120    7.7110 C.3   102  ASP102      0.1410
     96  CG        10.4240    1.7530    8.9940 C.2   102  ASP102      0.3668
     97  OD1        9.9620    2.1940   10.0580 O.co2 102  ASP102     -0.2456
     98  OD2       11.1310    0.7020    8.9570 O.co2 102  ASP102     -0.2456
     99  N          8.4850   -4.6730   20.4080 N.3   153  ILE153     -0.1231
    100  CA         9.1290   -3.8600   19.3730 C.3   153  ILE153      0.1692
    101  C          8.7700   -2.3780   19.5540 C.2   153  ILE153      0.2593
    102  O          7.6310   -2.0390   19.8370 O.2   153  ILE153     -0.2718
    103  CB         8.7980   -4.4160   17.9530 C.3   153  ILE153      0.0266
    104  CG1        9.6910   -3.8030   16.8820 C.3   153  ILE153      0.0019
    105  CG2        7.3210   -4.2960   17.5820 C.3   153  ILE153      0.0020
    106  CD1        9.6310   -4.5590   15.5700 C.3   153  ILE153      0.0001
    107  N          9.7470   -1.4970   19.3450 N.am  154  SER154     -0.1938
    108  CA         9.5490   -0.0680   19.6140 C.3   154  SER154      0.2055
    109  C          9.1160    0.7580   18.4030 C.2   154  SER154      0.2642
    110  O          9.1410    1.9830   18.4600 O.2   154  SER154     -0.2714
    111  CB        10.8190    0.5100   20.2150 C.3   154  SER154      0.2130
    112  OG        11.8760    0.3230   19.3420 O.3   154  SER154     -0.2179
    113  N          8.6820    0.0900   17.3290 N.am  155  ALA155     -0.1977
    114  CA         8.2560    0.7960   16.1280 C.3   155  ALA155      0.1597
    115  C          6.9460    1.5470   16.3090 C.2   155  ALA155      0.2287
    116  O          6.7090    2.5470   15.6220 O.2   155  ALA155     -0.2864
    117  CB         8.1240   -0.2010   14.9900 C.3   155  ALA155      0.0319
    118  N         19.9800   -0.9530   22.0200 N.3   184  ASN184     -0.1240
    119  CA        18.9140   -0.3650   21.1970 C.3   184  ASN184      0.1653
    120  C         18.1000    0.4760   22.1370 C.2   184  ASN184      0.2266
    121  O         17.0860    0.0010   22.6280 O.2   184  ASN184     -0.2867
    122  CB        18.0390   -1.4420   20.5610 C.3   184  ASN184      0.1155
    123  CG        18.7590   -2.2090   19.4780 C.2   184  ASN184      0.2627
    124  OD1       19.1880   -1.6300   18.4760 O.2   184  ASN184     -0.2716
    125  ND2       18.8940   -3.5150   19.6630 N.am  184  ASN184     -0.0877
    126  N         15.9920    2.9280   22.4250 N.3   186  ASP186     -0.1225
    127  CA        14.5480    3.1670   22.3820 C.3   186  ASP186      0.1805
    128  C         13.7100    1.9460   22.7410 C.2   186  ASP186      0.2597
    129  O         12.5930    2.0950   23.2320 O.2   186  ASP186     -0.2718
    130  CB        14.1260    3.6800   20.9980 C.3   186  ASP186      0.1424
    131  CG        14.3600    2.6530   19.8940 C.2   186  ASP186      0.3668
    132  OD1       15.4400    2.0340   19.8980 O.co2 186  ASP186     -0.2456
    133  OD2       13.4790    2.5050   19.0130 O.co2 186  ASP186     -0.2456
    134  N         14.2440    0.7640   22.4660 N.am  187  GLN187     -0.1979
    135  CA        13.5360   -0.4920   22.6740 C.3   187  GLN187      0.1601
    136  C         13.9640   -1.1750   23.9770 C.2   187  GLN187      0.2287
    137  O         13.1280   -1.6700   24.7250 O.2   187  GLN187     -0.2864
    138  CB        13.8090   -1.3950   21.4790 C.3   187  GLN187      0.0394
    139  CG        12.9750   -2.6460   21.3740 C.3   187  GLN187      0.0908
    140  CD        13.1410   -3.2750   20.0130 C.2   187  GLN187      0.2608
    141  OE1       12.3810   -2.9690   19.0890 O.2   187  GLN187     -0.2717
    142  NE2       14.1490   -4.1110   19.8660 N.am  187  GLN187     -0.0878
    143  N          5.5910   -2.7120    9.8640 N.3   223  ASP223     -0.1239
    144  CA         6.9240   -2.1170   10.0660 C.3   223  ASP223      0.1674
    145  C          7.8650   -2.8090    9.1030 C.2   223  ASP223      0.2266
    146  O          7.8340   -4.0320    8.9830 O.2   223  ASP223     -0.2867
    147  CB         7.3540   -2.3460   11.5230 C.3   223  ASP223      0.1410
    148  CG         8.7410   -1.8230   11.8580 C.2   223  ASP223      0.3668
    149  OD1        9.2140   -0.8790   11.2060 O.co2 223  ASP223     -0.2456
    150  OD2        9.3360   -2.3680   12.8120 O.co2 223  ASP223     -0.2456
    151  N         10.9130   -3.7410    9.2870 N.3   225  CYS225     -0.1221
    152  CA        12.0750   -3.9530   10.1400 C.3   225  CYS225      0.1808
    153  C         13.1050   -4.8350    9.4350 C.2   225  CYS225      0.2601
    154  O         12.7780   -5.6530    8.5670 O.2   225  CYS225     -0.2717
    155  CB        11.6860   -4.5100   11.5210 C.3   225  CYS225      0.0970
    156  SG        11.3550   -6.2630   11.6560 S.3   225  CYS225     -0.0800
    157  N         14.3550   -4.5930    9.7570 N.am  226  ASN226     -0.1974
    158  CA        15.4490   -5.2030    9.0080 C.3   226  ASN226      0.1688
    159  C         15.4990   -6.6910    9.3010 C.2   226  ASN226      0.2292
    160  O         15.0940   -7.1330   10.3700 O.2   226  ASN226     -0.2864
    161  CB        16.7810   -4.5160    9.3210 C.3   226  ASN226      0.1181
    162  CG        16.8070   -3.0570    8.8720 C.2   226  ASN226      0.2629
    163  OD1       15.9710   -2.6190    8.0670 O.2   226  ASN226     -0.2716
    164  ND2       17.7690   -2.3020    9.3780 N.am  226  ASN226     -0.0877
    165  N         15.6910   -2.1440    2.0520 N.3   234  LYS234     -0.1245
    166  CA        14.4780   -1.5330    2.6700 C.3   234  LYS234      0.1561
    167  C         13.3580   -1.3280    1.6560 C.2   234  LYS234      0.2260
    168  O         12.1970   -1.6790    1.8810 O.2   234  LYS234     -0.2867
    169  CB        14.8340   -0.1840    3.3290 C.3   234  LYS234      0.0271
    170  CG        13.7360    0.4960    4.1450 C.3   234  LYS234      0.0035
    171  CD        13.3820   -0.2170    5.4360 C.3   234  LYS234      0.0206
    172  CE        14.0520    0.4140    6.6430 C.3   234  LYS234      0.1093
    173  NZ        13.5570   -0.2120    7.9030 N.3   234  LYS234     -0.1314
@<TRIPOS>BOND
     1    29    28    1
     2   167   168    2
     3   167   166    1
     4   165   166    1
     5    28    30    1
     6    28    27    1
     7    27    24    1
     8    24    23    1
     9    24    25    1
    10   166   169    1
    11    26    25    2
    12   169   170    1
    13    25    31   am
    14   170   171    1
    15    31    32    1
    16    21    22    2
    17    21    20    1
    18   171   172    1
    19    33    32    1
    20    33    34    2
    21    32    35    1
    22    20    19    1
    23   172   173    1
    24    37    39   ar
    25    37    36   ar
    26    94    93    2
    27    35    36    1
    28    19    15   am
    29    39    41   ar
    30    92    95    1
    31    92    93    1
    32    92    91    1
    33    95    96    1
    34    36    38   ar
    35   163   162    2
    36    16    15    2
    37    15    14    1
    38   154   153    2
    39    41    42    1
    40    41    40   ar
    41    38    40   ar
    42   162   161    1
    43   162   164   am
    44    98    96   ar
    45   146   145    2
    46    96    97   ar
    47   158   159    1
    48   158   161    1
    49   158   157    1
    50   145   144    1
    51   151   152    1
    52   159   160    2
    53   153   157   am
    54   153   152    1
    55   143   144    1
    56    14    17    1
    57    14    13    1
    58    18    17    1
    59   144   147    1
    60   152   155    1
    61    13    10   am
    62    86    85    2
    63    12     9    1
    64   149   148   ar
    65    85    84    1
    66    10    11    2
    67    10     9    1
    68   155   156    1
    69   147   148    1
    70   148   150   ar
    71     9     8    1
    72    87    84    1
    73    87    88    1
    74    84    83    1
    75     8     3   am
    76    51    49   am
    77    88    90   ar
    78    88    89   ar
    79     3     4    2
    80     3     2    1
    81    59    57    1
    82    49    50    2
    83    49    48    1
    84     2     1    1
    85     2     5    1
    86   117   114    1
    87    48    47    1
    88    47    44    1
    89    43    44    1
    90    57    56    1
    91   106   104    1
    92   116   115    2
    93     7     5    1
    94    44    45    1
    95     5     6    1
    96    58    56    1
    97   114   115    1
    98   114   113    1
    99    56    53    1
   100   104   103    1
   101    45    46    2
   102   113   109   am
   103    71    69   ar
   104    71    73   ar
   105    68    69   ar
   106    68    66   ar
   107   105   103    1
   108    69    67   ar
   109    53    52    1
   110    53    54    1
   111   103   100    1
   112    73    72   ar
   113    82    81    1
   114    66    65   ar
   115    80    81    1
   116    80    79    1
   117   109   110    2
   118   109   108    1
   119   124   123    2
   120    54    60   am
   121    54    55    2
   122    67    65   ar
   123    67    70   ar
   124    79    78    1
   125   133   131   ar
   126    72    70   ar
   127    60    61    1
   128   141   140    2
   129    65    64    1
   130   112   111    1
   131   107   101   am
   132   107   108    1
   133   100   101    1
   134   100    99    1
   135   123   125   am
   136   123   122    1
   137   101   102    2
   138   108   111    1
   139   142   140   am
   140   131   132   ar
   141   131   130    1
   142   140   139    1
   143    61    64    1
   144    61    62    1
   145    78    75    1
   146   122   119    1
   147   130   127    1
   148    74    75    1
   149    75    76    1
   150   119   118    1
   151   119   120    1
   152    62    63    2
   153   139   138    1
   154   138   135    1
   155   120   121    2
   156   127   126    1
   157   127   128    1
   158    76    77    2
   159   134   135    1
   160   134   128   am
   161   135   136    1
   162   128   129    2
   163   136   137    2
