@<TRIPOS>MOLECULE
tmp/5h19A00.pdb
 136 129 0 0 0
SMALL
GASTEIGER

@<TRIPOS>ATOM
      1  N         12.4090    8.9600    5.4690 N.3    18  PRO18      -0.2116
      2  CA        12.5540   10.3420    5.9490 C.3    18  PRO18       0.1372
      3  C         13.2900   10.4980    7.2740 C.2    18  PRO18       0.2244
      4  O         13.3050    9.5880    8.0960 O.2    18  PRO18      -0.2868
      5  CB        11.1100   10.8150    6.0840 C.3    18  PRO18       0.0268
      6  CG        10.3550    9.9760    5.1240 C.3    18  PRO18       0.0207
      7  CD        10.9910    8.6340    5.2050 C.3    18  PRO18       0.0892
      8  N         13.4420   12.9320   10.5800 N.3    20  PHE20      -0.1241
      9  CA        12.5720   13.8600   11.2760 C.3    20  PHE20       0.1605
     10  C         13.2520   14.6830   12.3390 C.2    20  PHE20       0.2264
     11  O         12.7900   15.7860   12.6320 O.2    20  PHE20      -0.2867
     12  CB        11.3630   13.1200   11.8610 C.3    20  PHE20       0.0534
     13  CG        10.4840   12.4540   10.8190 C.ar   20  PHE20      -0.0203
     14  CD1       10.1490   13.1150    9.6390 C.ar   20  PHE20      -0.0042
     15  CD2        9.9700   11.1800   11.0320 C.ar   20  PHE20      -0.0042
     16  CE1        9.3240   12.5090    8.6830 C.ar   20  PHE20      -0.0003
     17  CE2        9.1540   10.5670   10.0720 C.ar   20  PHE20      -0.0003
     18  CZ         8.8250   11.2420    8.9090 C.ar   20  PHE20      -0.0000
     19  N          8.3540    4.4810   14.4560 N.3    69  ASN69      -0.1240
     20  CA         8.7500    5.7130   13.7680 C.3    69  ASN69       0.1653
     21  C          9.2740    6.6960   14.7980 C.2    69  ASN69       0.2266
     22  O          8.4970    7.1950   15.6090 O.2    69  ASN69      -0.2867
     23  CB         7.6160    6.2950   12.9400 C.3    69  ASN69       0.1155
     24  CG         8.1130    6.8850   11.6470 C.2    69  ASN69       0.2627
     25  OD1        8.9970    7.7590   11.6230 O.2    69  ASN69      -0.2716
     26  ND2        7.6020    6.3740   10.5410 N.am   69  ASN69      -0.0877
     27  N         10.5090   10.0550   16.2830 N.3    71  TYR71      -0.1241
     28  CA        10.2660   11.4660   15.9430 C.3    71  TYR71       0.1605
     29  C         11.2020   12.3970   16.6730 C.2    71  TYR71       0.2264
     30  O         11.2730   13.5730   16.3190 O.2    71  TYR71      -0.2867
     31  CB         8.8250   11.8750   16.3170 C.3    71  TYR71       0.0534
     32  CG         7.7120   11.1290   15.6240 C.ar   71  TYR71      -0.0201
     33  CD1        7.6790   11.0150   14.2330 C.ar   71  TYR71      -0.0009
     34  CD2        6.6100   10.6690   16.3390 C.ar   71  TYR71      -0.0009
     35  CE1        6.6380   10.3450   13.5880 C.ar   71  TYR71       0.0417
     36  CE2        5.5590   10.0110   15.7050 C.ar   71  TYR71       0.0417
     37  CZ         5.5830    9.8410   14.3310 C.ar   71  TYR71       0.1957
     38  OH         4.5440    9.1940   13.7150 O.3    71  TYR71      -0.2866
     39  N          5.9350   12.7960   20.8380 N.3   117  ASN117     -0.1225
     40  CA         6.3410   13.8320   19.8800 C.3   117  ASN117      0.1785
     41  C          7.6870   14.4830   20.2180 C.2   117  ASN117      0.2597
     42  O          8.3850   14.9310   19.3110 O.2   117  ASN117     -0.2718
     43  CB         5.2480   14.9200   19.7670 C.3   117  ASN117      0.1169
     44  CG         4.0800   14.4870   18.9090 C.2   117  ASN117      0.2627
     45  OD1        4.2590   13.9150   17.8290 O.2   117  ASN117     -0.2716
     46  ND2        2.8640   14.7680   19.3430 N.am  117  ASN117     -0.0877
     47  N          8.0300   14.5530   21.5050 N.am  118  GLU118     -0.1979
     48  CA         9.2560   15.1860   21.9610 C.3   118  GLU118      0.1602
     49  C          9.7840   14.6630   23.2920 C.2   118  GLU118      0.2287
     50  O          9.0130   14.2840   24.1820 O.2   118  GLU118     -0.2864
     51  CB         9.0610   16.7200   22.0450 C.3   118  GLU118      0.0415
     52  CG        10.3670   17.4880   21.9090 C.3   118  GLU118      0.1163
     53  CD        10.2600   18.9090   21.4060 C.2   118  GLU118      0.3649
     54  OE1        9.4360   19.6730   21.9590 O.co2 118  GLU118     -0.2457
     55  OE2       11.0240   19.2690   20.4810 O.co2 118  GLU118     -0.2457
     56  N          0.8680   12.2600   22.4670 N.3   134  LYS134     -0.1245
     57  CA        -0.4290   12.3430   21.8050 C.3   134  LYS134      0.1561
     58  C         -1.5480   11.9660   22.7980 C.2   134  LYS134      0.2260
     59  O         -2.7100   12.2370   22.5180 O.2   134  LYS134     -0.2867
     60  CB        -0.4770   11.4110   20.5810 C.3   134  LYS134      0.0271
     61  CG         0.4250   11.8510   19.4400 C.3   134  LYS134      0.0035
     62  CD         0.0430   11.1390   18.1490 C.3   134  LYS134      0.0206
     63  CE         1.0430   11.4550   17.0720 C.3   134  LYS134      0.1093
     64  NZ         0.6080   10.9560   15.7410 N.3   134  LYS134     -0.1314
     65  N          2.3370   18.5110   21.3830 N.3   163  LEU163     -0.1231
     66  CA         3.2770   18.4530   20.2530 C.3   163  LEU163      0.1693
     67  C          4.6920   18.8490   20.6230 C.2   163  LEU163      0.2592
     68  O          5.6490   18.3940   19.9820 O.2   163  LEU163     -0.2718
     69  CB         2.7670   19.3590   19.1020 C.3   163  LEU163      0.0284
     70  CG         1.3320   19.1150   18.5960 C.3   163  LEU163      0.0019
     71  CD1        0.9870   20.0230   17.4460 C.3   163  LEU163      0.0001
     72  CD2        1.1330   17.7050   18.1590 C.3   163  LEU163      0.0001
     73  N          4.8310   19.7080   21.6470 N.am  164  SER164     -0.1952
     74  CA         6.1490   20.2010   22.0180 C.3   164  SER164      0.1924
     75  C          6.1570   20.7140   23.4520 C.2   164  SER164      0.2314
     76  O          5.1060   21.0200   24.0260 O.2   164  SER164     -0.2863
     77  CB         6.5550   21.3340   21.0660 C.3   164  SER164      0.2116
     78  OG         7.9030   21.7710   21.1930 O.3   164  SER164     -0.2180
     79  N          2.9500   23.6130   17.1010 N.3   228  ASP228     -0.1239
     80  CA         3.8090   22.4100   17.0040 C.3   228  ASP228      0.1674
     81  C          5.2560   22.5890   17.4760 C.2   228  ASP228      0.2266
     82  O          6.0210   21.6210   17.4390 O.2   228  ASP228     -0.2867
     83  CB         3.7490   21.8340   15.5850 C.3   228  ASP228      0.1410
     84  CG         4.4230   22.6640   14.5260 C.2   228  ASP228      0.3668
     85  OD1        4.7480   23.8510   14.8100 O.co2 228  ASP228     -0.2456
     86  OD2        4.7050   22.1140   13.4430 O.co2 228  ASP228     -0.2456
     87  N          4.4510   19.7460   11.9890 N.3   283  TYR283     -0.1227
     88  CA         5.6700   19.0450   12.4180 C.3   283  TYR283      0.1736
     89  C          6.9540   19.6010   11.7840 C.2   283  TYR283      0.2595
     90  O          7.7580   18.8700   11.1870 O.2   283  TYR283     -0.2718
     91  CB         5.5350   17.5140   12.2070 C.3   283  TYR283      0.0548
     92  CG         4.2930   16.9190   12.8430 C.ar  283  TYR283     -0.0200
     93  CD1        4.1030   16.9580   14.2260 C.ar  283  TYR283     -0.0009
     94  CD2        3.3060   16.3120   12.0650 C.ar  283  TYR283     -0.0009
     95  CE1        2.9520   16.4310   14.8120 C.ar  283  TYR283      0.0417
     96  CE2        2.1590   15.7670   12.6440 C.ar  283  TYR283      0.0417
     97  CZ         1.9920   15.8180   14.0200 C.ar  283  TYR283      0.1957
     98  OH         0.8620   15.2910   14.6020 O.3   283  TYR283     -0.2866
     99  N          7.1410   20.9070   11.9170 N.am  284  MET284     -0.1965
    100  CA         8.3410   21.6000   11.4220 C.3   284  MET284      0.1736
    101  C          8.9310   22.3370   12.6150 C.2   284  MET284      0.2616
    102  O          8.2880   23.2310   13.1370 O.2   284  MET284     -0.2715
    103  CB         8.0190   22.5590   10.2600 C.3   284  MET284      0.0427
    104  CG         7.4190   21.8560    9.0190 C.3   284  MET284      0.0599
    105  SD         8.6010   20.8180    8.1020 S.3   284  MET284     -0.1393
    106  CE         9.4430   22.0710    7.1800 C.3   284  MET284      0.0692
    107  N         10.1470   21.9600   13.0570 N.am  285  ARG285     -0.1977
    108  CA        10.7180   22.5230   14.2870 C.3   285  ARG285      0.1597
    109  C         11.7900   23.5610   14.0480 C.2   285  ARG285      0.2287
    110  O         12.5470   23.4440   13.0750 O.2   285  ARG285     -0.2864
    111  CB        11.3260   21.3910   15.1320 C.3   285  ARG285      0.0334
    112  CG        10.3280   20.3660   15.6780 C.3   285  ARG285      0.0492
    113  CD        11.0860   19.0470   15.7050 C.3   285  ARG285      0.2205
    114  NE        10.6050   18.1230   16.7040 N.pl3 285  ARG285     -0.0865
    115  CZ        10.7820   16.8110   16.6360 C.cat 285  ARG285      0.5346
    116  NH1       11.3950   16.2700   15.5880 N.pl3 285  ARG285      0.1354
    117  NH2       10.3060   16.0260   17.5860 N.pl3 285  ARG285      0.1354
    118  N         12.9220   19.1660    8.3640 N.3   329  ARG329     -0.1245
    119  CA        12.1130   18.9190    9.5670 C.3   329  ARG329      0.1563
    120  C         12.7010   19.5320   10.8380 C.2   329  ARG329      0.2260
    121  O         11.9640   19.9680   11.7340 O.2   329  ARG329     -0.2867
    122  CB        11.9290   17.3900    9.7490 C.3   329  ARG329      0.0307
    123  CG        11.0540   16.7440    8.6620 C.3   329  ARG329      0.0489
    124  CD         9.5690   16.9430    8.9410 C.3   329  ARG329      0.2205
    125  NE         8.7450   16.6690    7.7540 N.pl3 329  ARG329     -0.0865
    126  CZ         7.4550   16.9620    7.6510 C.cat 329  ARG329      0.5346
    127  NH1        6.7880   16.6660    6.5420 N.pl3 329  ARG329      0.1354
    128  NH2        6.8160   17.5450    8.6610 N.pl3 329  ARG329      0.1354
    129  N         12.9490   15.2340    4.7300 N.3   345  ASP345     -0.1239
    130  CA        11.9570   14.1930    4.4020 C.3   345  ASP345      0.1674
    131  C         12.4220   13.2110    3.3390 C.2   345  ASP345      0.2266
    132  O         11.8260   12.1480    3.1980 O.2   345  ASP345     -0.2867
    133  CB        10.6580   14.8540    3.8730 C.3   345  ASP345      0.1410
    134  CG         9.7070   15.1980    4.9890 C.2   345  ASP345      0.3668
    135  OD1        9.9560   14.7570    6.1410 O.co2 345  ASP345     -0.2456
    136  OD2        8.6940   15.8640    4.7140 O.co2 345  ASP345     -0.2456
@<TRIPOS>BOND
     1   132   131    2
     2   131   130    1
     3   133   130    1
     4   133   134    1
     5   130   129    1
     6   136   134   ar
     7   134   135   ar
     8     6     7    1
     9     6     5    1
    10     7     1    1
    11     1     2    1
    12     2     5    1
    13     2     3    1
    14   127   126    1
    15   106   105    1
    16     3     4    2
    17   126   125    2
    18   126   128    1
    19   125   124    1
    20   105   104    1
    21   118   119    1
    22   123   124    1
    23   123   122    1
    24    16    18   ar
    25    16    14   ar
    26    18    17   ar
    27   104   103    1
    28   119   122    1
    29   119   120    1
    30    14    13   ar
    31    17    15   ar
    32   103   100    1
    33    26    24   am
    34     8     9    1
    35    13    15   ar
    36    13    12    1
    37   120   121    2
    38    90    89    2
    39     9    12    1
    40     9    10    1
    41   100    99    1
    42   100   101    1
    43    25    24    2
    44    24    23    1
    45    89    99   am
    46    89    88    1
    47    87    88    1
    48    94    96   ar
    49    94    92   ar
    50    91    88    1
    51    91    92    1
    52    10    11    2
    53   101   107   am
    54   101   102    2
    55    96    97   ar
    56    92    93   ar
    57    23    20    1
    58   107   108    1
    59   110   109    2
    60    86    84   ar
    61    35    33   ar
    62    35    37   ar
    63    38    37    1
    64    20    19    1
    65    20    21    1
    66    97    98    1
    67    97    95   ar
    68   109   108    1
    69    93    95   ar
    70    33    32   ar
    71   108   111    1
    72    37    36   ar
    73    84    85   ar
    74    84    83    1
    75    21    22    2
    76   111   112    1
    77    83    80    1
    78   116   115    1
    79    32    31    1
    80    32    34   ar
    81   112   113    1
    82   113   114    1
    83    36    34   ar
    84    64    63    1
    85    28    27    1
    86    28    31    1
    87    28    29    1
    88    30    29    2
    89   115   114    2
    90   115   117    1
    91    80    79    1
    92    80    81    1
    93    63    62    1
    94    82    81    2
    95    71    70    1
    96    45    44    2
    97    62    61    1
    98    72    70    1
    99    70    69    1
   100    44    46   am
   101    44    43    1
   102    69    66    1
   103    42    41    2
   104    61    60    1
   105    43    40    1
   106    40    41    1
   107    40    39    1
   108    68    67    2
   109    41    47   am
   110    66    67    1
   111    66    65    1
   112    55    53   ar
   113    60    57    1
   114    67    73   am
   115    77    78    1
   116    77    74    1
   117    53    52    1
   118    53    54   ar
   119    47    48    1
   120    73    74    1
   121    57    56    1
   122    57    58    1
   123    52    51    1
   124    48    51    1
   125    48    49    1
   126    74    75    1
   127    59    58    2
   128    49    50    2
   129    75    76    2
