@<TRIPOS>MOLECULE
tmp/5h1mA00.pdb
 126 117 0 0 0
SMALL
GASTEIGER

@<TRIPOS>ATOM
      1  N         15.6870   40.1700   55.1990 N.3   341  TYR341     -0.1241
      2  CA        15.5560   38.9360   55.9680 C.3   341  TYR341      0.1605
      3  C         16.1080   39.0300   57.3860 C.2   341  TYR341      0.2264
      4  O         15.4440   38.6240   58.3390 O.2   341  TYR341     -0.2867
      5  CB        16.2540   37.7800   55.2480 C.3   341  TYR341      0.0534
      6  CG        15.5600   37.2980   53.9940 C.ar  341  TYR341     -0.0201
      7  CD1       14.4600   36.4500   54.0650 C.ar  341  TYR341     -0.0009
      8  CD2       16.0210   37.6700   52.7340 C.ar  341  TYR341     -0.0009
      9  CE1       13.8270   35.9990   52.9160 C.ar  341  TYR341      0.0417
     10  CE2       15.3970   37.2220   51.5800 C.ar  341  TYR341      0.0417
     11  CZ        14.3000   36.3890   51.6770 C.ar  341  TYR341      0.1957
     12  OH        13.6800   35.9440   50.5320 O.3   341  TYR341     -0.2866
     13  N         18.5070   29.5330   58.1130 N.3   432  TYR432     -0.1227
     14  CA        17.6040   30.4460   58.8070 C.3   432  TYR432      0.1736
     15  C         18.2350   31.0610   60.0450 C.2   432  TYR432      0.2596
     16  O         17.7760   32.0910   60.5330 O.2   432  TYR432     -0.2718
     17  CB        16.3080   29.7320   59.2000 C.3   432  TYR432      0.0548
     18  CG        15.3650   29.4910   58.0430 C.ar  432  TYR432     -0.0200
     19  CD1       14.6530   30.5410   57.4760 C.ar  432  TYR432     -0.0009
     20  CD2       15.1830   28.2170   57.5210 C.ar  432  TYR432     -0.0009
     21  CE1       13.7890   30.3310   56.4190 C.ar  432  TYR432      0.0417
     22  CE2       14.3220   27.9960   56.4640 C.ar  432  TYR432      0.0417
     23  CZ        13.6260   29.0570   55.9160 C.ar  432  TYR432      0.1957
     24  OH        12.7640   28.8450   54.8620 O.3   432  TYR432     -0.2866
     25  N         19.2860   30.4320   60.5570 N.am  433  THR433     -0.1953
     26  CA        19.8880   30.8950   61.7980 C.3   433  THR433      0.1897
     27  C         21.3860   30.6510   61.8470 C.2   433  THR433      0.2313
     28  O         21.8760   29.6120   61.4080 O.2   433  THR433     -0.2863
     29  CB        19.2430   30.2110   63.0230 C.3   433  THR433      0.1794
     30  OG1       17.8230   30.1360   62.8450 O.3   433  THR433     -0.2208
     31  CG2       19.5560   30.9860   64.2950 C.3   433  THR433      0.0378
     32  N         19.6430   24.8690   59.2270 N.3   454  GLY454     -0.1210
     33  CA        19.0080   24.9060   57.9220 C.3   454  GLY454      0.1956
     34  C         17.5730   24.4180   57.9580 C.2   454  GLY454      0.2612
     35  O         17.1490   23.7810   58.9220 O.2   454  GLY454     -0.2717
     36  N         16.8270   24.7120   56.8960 N.am  455  GLY455     -0.1956
     37  CA        15.4240   24.3480   56.8130 C.3   455  GLY455      0.1869
     38  C         15.1500   22.8560   56.8950 C.2   455  GLY455      0.2309
     39  O         14.0320   22.4420   57.1940 O.2   455  GLY455     -0.2863
     40  N         14.7970   24.0590   63.9420 N.3   492  THR492     -0.1203
     41  CA        14.4510   25.2280   63.1410 C.3   492  THR492      0.1994
     42  C         15.0050   26.5340   63.7130 C.2   492  THR492      0.2617
     43  O         14.8290   27.5990   63.1210 O.2   492  THR492     -0.2717
     44  CB        12.9270   25.3640   62.9940 C.3   492  THR492      0.1784
     45  OG1       12.3190   25.3700   64.2920 O.3   492  THR492     -0.2211
     46  CG2       12.3670   24.2080   62.1770 C.3   492  THR492      0.0376
     47  N         15.6810   26.4490   64.8550 N.am  493  GLU493     -0.1979
     48  CA        16.2080   27.6390   65.5130 C.3   493  GLU493      0.1602
     49  C         17.2830   27.2920   66.5360 C.2   493  GLU493      0.2287
     50  O         17.1650   26.3050   67.2600 O.2   493  GLU493     -0.2864
     51  CB        15.0690   28.4160   66.1840 C.3   493  GLU493      0.0415
     52  CG        15.5060   29.5740   67.0800 C.3   493  GLU493      0.1163
     53  CD        16.0350   30.7720   66.3050 C.2   493  GLU493      0.3649
     54  OE1       16.0800   30.7150   65.0590 O.co2 493  GLU493     -0.2457
     55  OE2       16.4060   31.7780   66.9500 O.co2 493  GLU493     -0.2457
     56  N          5.9250   25.4040   64.2780 N.3   532  LEU532     -0.1245
     57  CA         7.3540   25.6070   64.0110 C.3   532  LEU532      0.1561
     58  C          7.9610   26.8230   64.7260 C.2   532  LEU532      0.2260
     59  O          7.4810   27.9490   64.5840 O.2   532  LEU532     -0.2867
     60  CB         7.5770   25.7320   62.4980 C.3   532  LEU532      0.0270
     61  CG         9.0150   25.7290   61.9720 C.3   532  LEU532      0.0019
     62  CD1        9.0910   24.9700   60.6620 C.3   532  LEU532      0.0001
     63  CD2        9.5390   27.1450   61.7890 C.3   532  LEU532      0.0001
     64  N         10.3030   29.7870   65.2380 N.3   534  ASN534     -0.1240
     65  CA        10.9930   30.6900   64.3210 C.3   534  ASN534      0.1653
     66  C         12.1490   31.4480   64.9570 C.2   534  ASN534      0.2266
     67  O         13.1490   31.7370   64.3020 O.2   534  ASN534     -0.2867
     68  CB        10.0060   31.6970   63.7380 C.3   534  ASN534      0.1155
     69  CG         9.0240   31.0640   62.7850 C.2   534  ASN534      0.2627
     70  OD1        9.4120   30.3590   61.8540 O.2   534  ASN534     -0.2716
     71  ND2        7.7390   31.3080   63.0150 N.am  534  ASN534     -0.0877
     72  N          4.9130   29.8620   64.6130 N.3   557  ASN557     -0.1240
     73  CA         3.9160   30.1450   63.5890 C.3   557  ASN557      0.1653
     74  C          2.5710   30.5320   64.2000 C.2   557  ASN557      0.2266
     75  O          1.6880   31.0310   63.5040 O.2   557  ASN557     -0.2867
     76  CB         3.7600   28.9510   62.6480 C.3   557  ASN557      0.1155
     77  CG         4.8990   28.8510   61.6440 C.2   557  ASN557      0.2627
     78  OD1        5.5510   29.8470   61.3250 O.2   557  ASN557     -0.2716
     79  ND2        5.1370   27.6490   61.1360 N.am  557  ASN557     -0.0877
     80  N          2.0010   34.7860   62.4110 N.3   593  LYS593     -0.1245
     81  CA         3.2210   34.1420   62.8850 C.3   593  LYS593      0.1561
     82  C          4.2900   35.1510   63.3080 C.2   593  LYS593      0.2260
     83  O          4.3820   36.2530   62.7640 O.2   593  LYS593     -0.2867
     84  CB         3.7780   33.1970   61.8140 C.3   593  LYS593      0.0271
     85  CG         4.1970   33.8680   60.5230 C.3   593  LYS593      0.0035
     86  CD         4.5300   32.8430   59.4420 C.3   593  LYS593      0.0206
     87  CE         3.3020   32.0270   59.0400 C.3   593  LYS593      0.1093
     88  NZ         3.5920   31.0680   57.9320 N.3   593  LYS593     -0.1314
     89  N          8.1070   36.1070   63.4970 N.3   595  THR595     -0.1218
     90  CA         9.3470   35.8080   62.7880 C.3   595  THR595      0.1862
     91  C         10.6010   36.1310   63.5960 C.2   595  THR595      0.2287
     92  O         11.6580   35.5450   63.3610 O.2   595  THR595     -0.2866
     93  CB         9.4230   36.5770   61.4570 C.3   595  THR595      0.1770
     94  OG1        9.3440   37.9830   61.7150 O.3   595  THR595     -0.2211
     95  CG2        8.2810   36.1670   60.5370 C.3   595  THR595      0.0375
     96  N          4.0320   38.5180   60.9960 N.3   612  TYR612     -0.1241
     97  CA         3.4680   38.4790   59.6520 C.3   612  TYR612      0.1605
     98  C          2.2060   39.3320   59.5440 C.2   612  TYR612      0.2264
     99  O          1.6700   39.5140   58.4520 O.2   612  TYR612     -0.2867
    100  CB         3.1520   37.0360   59.2500 C.3   612  TYR612      0.0534
    101  CG         4.1220   36.4350   58.2590 C.ar  612  TYR612     -0.0201
    102  CD1        5.4840   36.6780   58.3540 C.ar  612  TYR612     -0.0009
    103  CD2        3.6740   35.6080   57.2370 C.ar  612  TYR612     -0.0009
    104  CE1        6.3730   36.1260   57.4510 C.ar  612  TYR612      0.0417
    105  CE2        4.5550   35.0530   56.3310 C.ar  612  TYR612      0.0417
    106  CZ         5.9030   35.3140   56.4420 C.ar  612  TYR612      0.1957
    107  OH         6.7840   34.7610   55.5410 O.3   612  TYR612     -0.2866
    108  N          5.1120   41.8810   55.4130 N.3   636  ARG636     -0.1245
    109  CA         5.2320   41.0390   56.5970 C.3   636  ARG636      0.1563
    110  C          6.6570   41.0620   57.1490 C.2   636  ARG636      0.2260
    111  O          7.6150   40.7530   56.4370 O.2   636  ARG636     -0.2867
    112  CB         4.8020   39.6120   56.2590 C.3   636  ARG636      0.0307
    113  CG         3.4190   39.5550   55.6270 C.3   636  ARG636      0.0489
    114  CD         3.1560   38.2270   54.9550 C.3   636  ARG636      0.2205
    115  NE         4.0920   37.9750   53.8650 N.pl3 636  ARG636     -0.0865
    116  CZ         4.0720   36.8830   53.1090 C.cat 636  ARG636      0.5346
    117  NH1        3.1600   35.9440   53.3240 N.pl3 636  ARG636      0.1354
    118  NH2        4.9640   36.7280   52.1390 N.pl3 636  ARG636      0.1354
    119  N         10.1610   40.3850   58.8860 N.3   638  LEU638     -0.1245
    120  CA        11.0240   39.2140   58.8860 C.3   638  LEU638      0.1561
    121  C         12.0860   39.3010   59.9750 C.2   638  LEU638      0.2260
    122  O         12.6510   38.2900   60.3930 O.2   638  LEU638     -0.2867
    123  CB        11.6920   39.0560   57.5190 C.3   638  LEU638      0.0270
    124  CG        10.7380   38.8680   56.3370 C.3   638  LEU638      0.0019
    125  CD1       11.4830   38.9680   55.0130 C.3   638  LEU638      0.0001
    126  CD2       10.0270   37.5320   56.4580 C.3   638  LEU638      0.0001
@<TRIPOS>BOND
     1    12    11    1
     2    10    11   ar
     3    10     8   ar
     4    11     9   ar
     5   118   116    1
     6     8     6   ar
     7     9     7   ar
     8   116   117    1
     9   116   115    2
    10   115   114    1
    11     6     7   ar
    12     6     5    1
    13    24    23    1
    14   114   113    1
    15   125   124    1
    16     1     2    1
    17     5     2    1
    18   108   109    1
    19   107   106    1
    20   113   112    1
    21    23    21   ar
    22    23    22   ar
    23     2     3    1
    24   112   109    1
    25   105   106   ar
    26   105   103   ar
    27   124   126    1
    28   124   123    1
    29    21    19   ar
    30   111   110    2
    31   106   104   ar
    32    22    20   ar
    33   109   110    1
    34    37    38    1
    35    37    36    1
    36    38    39    2
    37    36    34   am
    38   103   101   ar
    39     3     4    2
    40   104   102   ar
    41    19    18   ar
    42   123   120    1
    43    20    18   ar
    44    33    34    1
    45    33    32    1
    46    88    87    1
    47    34    35    2
    48    18    17    1
    49    13    14    1
    50   101   102   ar
    51   101   100    1
    52    99    98    2
    53    14    17    1
    54    14    15    1
    55   119   120    1
    56   120   121    1
    57    87    86    1
    58   100    97    1
    59    86    85    1
    60    98    97    1
    61    97    96    1
    62   121   122    2
    63    15    16    2
    64    15    25   am
    65    85    84    1
    66    95    93    1
    67    25    26    1
    68    62    61    1
    69    79    77   am
    70    78    77    2
    71    28    27    2
    72    93    94    1
    73    93    90    1
    74    77    76    1
    75    63    61    1
    76    26    27    1
    77    26    29    1
    78    84    81    1
    79    70    69    2
    80    61    60    1
    81    46    44    1
    82    80    81    1
    83    60    57    1
    84    76    73    1
    85    83    82    2
    86    69    71   am
    87    69    68    1
    88    90    89    1
    89    90    91    1
    90    30    29    1
    91    81    82    1
    92    44    41    1
    93    44    45    1
    94    29    31    1
    95    43    42    2
    96    41    42    1
    97    41    40    1
    98    92    91    2
    99    75    74    2
   100    73    74    1
   101    73    72    1
   102    42    47   am
   103    68    65    1
   104    57    56    1
   105    57    58    1
   106    67    66    2
   107    65    66    1
   108    65    64    1
   109    59    58    2
   110    47    48    1
   111    54    53   ar
   112    48    51    1
   113    48    49    1
   114    51    52    1
   115    53    55   ar
   116    53    52    1
   117    49    50    2
