@<TRIPOS>MOLECULE
tmp/5h1wA00.pdb
 106 96 0 0 0
SMALL
GASTEIGER

@<TRIPOS>ATOM
      1  N         -5.3750   -5.5810    4.5800 N.3    71  GLY71      -0.1225
      2  CA        -6.1450   -6.4240    3.6760 C.3    71  GLY71       0.1811
      3  C         -6.6740   -7.7120    4.2770 C.2    71  GLY71       0.2280
      4  O         -7.7230   -8.2170    3.8470 O.2    71  GLY71      -0.2866
      5  N         -9.8980  -10.3020    3.8190 N.3    75  LEU75      -0.1245
      6  CA        -9.7110  -11.6880    3.3710 C.3    75  LEU75       0.1561
      7  C        -10.0430  -12.7180    4.4520 C.2    75  LEU75       0.2260
      8  O        -10.6270  -13.7570    4.1590 O.2    75  LEU75      -0.2867
      9  CB        -8.2760  -11.8790    2.8730 C.3    75  LEU75       0.0270
     10  CG        -7.9920  -11.1280    1.5650 C.3    75  LEU75       0.0019
     11  CD1       -6.5420  -11.3310    1.1790 C.3    75  LEU75       0.0001
     12  CD2       -8.9210  -11.5930    0.4530 C.3    75  LEU75       0.0001
     13  N         -2.8950    1.6280    4.8720 N.3   111  ILE111     -0.1245
     14  CA        -3.2400    1.2700    3.5050 C.3   111  ILE111      0.1561
     15  C         -4.6920    0.8210    3.3890 C.2   111  ILE111      0.2260
     16  O         -5.1520   -0.0730    4.1090 O.2   111  ILE111     -0.2867
     17  CB        -2.3350    0.1620    2.9840 C.3   111  ILE111      0.0252
     18  CG1       -0.8850    0.6550    2.9950 C.3   111  ILE111      0.0019
     19  CG2       -2.7890   -0.2580    1.5780 C.3   111  ILE111      0.0019
     20  CD1        0.1260   -0.4410    2.6830 C.3   111  ILE111      0.0001
     21  N         -6.5630   -1.0180    0.8910 N.3   113  GLY113     -0.1210
     22  CA        -6.5430   -1.8890   -0.2730 C.3   113  GLY113      0.1956
     23  C         -7.8290   -2.6870   -0.3150 C.2   113  GLY113      0.2611
     24  O         -8.9040   -2.1040   -0.4250 O.2   113  GLY113     -0.2717
     25  N         -7.7200   -4.0090   -0.1820 N.am  114  LEU114     -0.1979
     26  CA        -8.9000   -4.8920   -0.2170 C.3   114  LEU114      0.1596
     27  C         -9.9740   -4.5890    0.8300 C.2   114  LEU114      0.2287
     28  O        -11.1490   -4.9430    0.6460 O.2   114  LEU114     -0.2864
     29  CB        -8.4540   -6.3460   -0.0530 C.3   114  LEU114      0.0297
     30  CG        -7.6590   -6.9220   -1.2200 C.3   114  LEU114      0.0022
     31  CD1       -7.0700   -8.2590   -0.8110 C.3   114  LEU114      0.0001
     32  CD2       -8.5400   -7.0590   -2.4450 C.3   114  LEU114      0.0001
     33  N         -5.0990    2.1560   -2.5590 N.3   150  GLU150     -0.1245
     34  CA        -4.3180    1.4230   -3.5490 C.3   150  GLU150      0.1567
     35  C         -5.2080    0.7990   -4.6150 C.2   150  GLU150      0.2260
     36  O         -5.9920   -0.1120   -4.3170 O.2   150  GLU150     -0.2867
     37  CB        -3.4850    0.3400   -2.8570 C.3   150  GLU150      0.0388
     38  CG        -2.6920   -0.5350   -3.8260 C.3   150  GLU150      0.1160
     39  CD        -1.8420   -1.5590   -3.0870 C.2   150  GLU150      0.3649
     40  OE1       -2.1250   -1.8270   -1.8980 O.co2 150  GLU150     -0.2457
     41  OE2       -0.8970   -2.0850   -3.7000 O.co2 150  GLU150     -0.2457
     42  N         -6.1680   -1.7710   -7.3280 N.3   152  LEU152     -0.1245
     43  CA        -5.7850   -3.1840   -7.4220 C.3   152  LEU152      0.1561
     44  C         -6.3180   -3.7490   -8.7140 C.2   152  LEU152      0.2260
     45  O         -7.2830   -3.2250   -9.2560 O.2   152  LEU152     -0.2867
     46  CB        -6.3510   -3.9850   -6.2520 C.3   152  LEU152      0.0270
     47  CG        -5.9550   -3.5280   -4.8570 C.3   152  LEU152      0.0019
     48  CD1       -6.8130   -4.2630   -3.8440 C.3   152  LEU152      0.0001
     49  CD2       -4.4830   -3.8030   -4.6120 C.3   152  LEU152      0.0001
     50  N         -8.6380   -9.0140   -8.2310 N.3   156  GLU156     -0.1245
     51  CA        -8.7120   -8.8190   -6.7830 C.3   156  GLU156      0.1567
     52  C         -9.9340   -7.9990   -6.3920 C.2   156  GLU156      0.2260
     53  O        -10.5150   -8.2050   -5.3170 O.2   156  GLU156     -0.2867
     54  CB        -7.4270   -8.1620   -6.2610 C.3   156  GLU156      0.0388
     55  CG        -6.2060   -9.0460   -6.5520 C.3   156  GLU156      0.1160
     56  CD        -5.0000   -8.7640   -5.6880 C.2   156  GLU156      0.3649
     57  OE1       -5.0950   -7.9700   -4.7220 O.co2 156  GLU156     -0.2457
     58  OE2       -3.9430   -9.3700   -5.9720 O.co2 156  GLU156     -0.2457
     59  N          0.9390    0.5980   -7.2300 N.3   183  ASP183     -0.1239
     60  CA         1.6340   -0.6840   -7.1190 C.3   183  ASP183      0.1674
     61  C          1.9810   -1.1580   -8.5240 C.2   183  ASP183      0.2266
     62  O          1.1020   -1.3020   -9.3500 O.2   183  ASP183     -0.2867
     63  CB         0.7420   -1.6860   -6.3710 C.3   183  ASP183      0.1410
     64  CG         1.3540   -3.0750   -6.2440 C.2   183  ASP183      0.3668
     65  OD1        1.8390   -3.6280   -7.2490 O.co2 183  ASP183     -0.2456
     66  OD2        1.2800   -3.6530   -5.1470 O.co2 183  ASP183     -0.2456
     67  N          0.1430   -4.2460  -10.0170 N.3   186  HIS186     -0.1241
     68  CA        -1.2400   -3.9610  -10.4130 C.3   186  HIS186      0.1621
     69  C         -1.3120   -3.0150  -11.6080 C.2   186  HIS186      0.2264
     70  O         -2.1390   -3.2200  -12.4990 O.2   186  HIS186     -0.2867
     71  CB        -2.0310   -3.3950   -9.2180 C.3   186  HIS186      0.0745
     72  CG        -2.1780   -4.3830   -8.1060 C.ar  186  HIS186      0.0817
     73  ND1       -2.8100   -5.6000   -8.2760 N.ar  186  HIS186     -0.2268
     74  CD2       -1.7290   -4.3690   -6.8280 C.ar  186  HIS186      0.1154
     75  CE1       -2.7530   -6.2840   -7.1470 C.ar  186  HIS186      0.1986
     76  NE2       -2.1050   -5.5600   -6.2480 N.ar  186  HIS186     -0.2212
     77  N          4.4020    0.8320   -4.1540 N.3   209  HIS209     -0.1241
     78  CA         4.6890   -0.5880   -4.0140 C.3   209  HIS209      0.1621
     79  C          5.3490   -1.0880   -5.2690 C.2   209  HIS209      0.2264
     80  O          4.8620   -0.8220   -6.3510 O.2   209  HIS209     -0.2867
     81  CB         3.4070   -1.3840   -3.7890 C.3   209  HIS209      0.0745
     82  CG         3.0230   -1.5240   -2.3530 C.ar  209  HIS209      0.0817
     83  ND1        1.9260   -2.2550   -1.9590 N.ar  209  HIS209     -0.2268
     84  CD2        3.6120   -1.0750   -1.2190 C.ar  209  HIS209      0.1154
     85  CE1        1.8270   -2.2100   -0.6400 C.ar  209  HIS209      0.1986
     86  NE2        2.8400   -1.5010   -0.1690 N.ar  209  HIS209     -0.2212
     87  N          5.2520  -10.4320  -10.2750 N.3   215  ARG215     -0.1245
     88  CA         5.2710  -10.1620   -8.8370 C.3   215  ARG215      0.1563
     89  C          6.4880  -10.7810   -8.1410 C.2   215  ARG215      0.2260
     90  O          6.5150  -10.8880   -6.9200 O.2   215  ARG215     -0.2867
     91  CB         3.9580  -10.6260   -8.1620 C.3   215  ARG215      0.0307
     92  CG         3.5140   -9.6420   -7.0910 C.3   215  ARG215      0.0489
     93  CD         2.0800   -9.8600   -6.6340 C.3   215  ARG215      0.2205
     94  NE         1.6750   -8.7400   -5.7780 N.pl3 215  ARG215     -0.0865
     95  CZ         0.4940   -8.6480   -5.1890 C.cat 215  ARG215      0.5346
     96  NH1       -0.4060   -9.6020   -5.3650 N.pl3 215  ARG215      0.1354
     97  NH2        0.2170   -7.5900   -4.4290 N.pl3 215  ARG215      0.1354
     98  N          6.9970   -5.0690   -2.2780 N.3   244  GLU244     -0.1245
     99  CA         5.9120   -5.9790   -1.9120 C.3   244  GLU244      0.1567
    100  C          5.8630   -7.0600   -2.9690 C.2   244  GLU244      0.2260
    101  O          5.1170   -6.9500   -3.9370 O.2   244  GLU244     -0.2867
    102  CB         4.5630   -5.2550   -1.8270 C.3   244  GLU244      0.0388
    103  CG         3.4910   -6.1560   -1.2030 C.3   244  GLU244      0.1160
    104  CD         2.0600   -5.8550   -1.6200 C.2   244  GLU244      0.3649
    105  OE1        1.8210   -5.1950   -2.6440 O.co2 244  GLU244     -0.2457
    106  OE2        1.1470   -6.3200   -0.8990 O.co2 244  GLU244     -0.2457
@<TRIPOS>BOND
     1    70    69    2
     2    69    68    1
     3    68    67    1
     4    68    71    1
     5    87    88    1
     6    62    61    2
     7    45    44    2
     8    71    72    1
     9    88    91    1
    10    88    89    1
    11    44    43    1
    12    61    60    1
    13    73    72   ar
    14    73    75   ar
    15    50    51    1
    16    91    92    1
    17    89    90    2
    18    72    74   ar
    19    43    42    1
    20    43    46    1
    21    65    64   ar
    22    59    60    1
    23    75    76   ar
    24    60    63    1
    25    92    93    1
    26    74    76   ar
    27    51    52    1
    28    51    54    1
    29    93    94    1
    30    55    54    1
    31    55    56    1
    32    52    53    2
    33    63    64    1
    34    80    79    2
    35    46    47    1
    36    64    66   ar
    37    58    56   ar
    38    94    95    2
    39    56    57   ar
    40    96    95    1
    41    79    78    1
    42    95    97    1
    43    47    49    1
    44    47    48    1
    45    35    36    2
    46    35    34    1
    47    77    78    1
    48    78    81    1
    49   101   100    2
    50    38    39    1
    51    38    37    1
    52    81    82    1
    53    41    39   ar
    54    34    37    1
    55    34    33    1
    56    39    40   ar
    57   100    99    1
    58   105   104   ar
    59    32    30    1
    60    82    83   ar
    61    82    84   ar
    62    98    99    1
    63    83    85   ar
    64    99   102    1
    65   102   103    1
    66   104   103    1
    67   104   106   ar
    68    30    31    1
    69    30    29    1
    70    84    86   ar
    71    85    86   ar
    72    24    23    2
    73    23    22    1
    74    23    25   am
    75    22    21    1
    76    26    25    1
    77    26    29    1
    78    26    27    1
    79    12    10    1
    80    28    27    2
    81    11    10    1
    82    10     9    1
    83    19    17    1
    84    20    18    1
    85     9     6    1
    86    17    18    1
    87    17    14    1
    88     6     5    1
    89     6     7    1
    90    15    14    1
    91    15    16    2
    92    14    13    1
    93     2     3    1
    94     2     1    1
    95     4     3    2
    96     8     7    2
