@<TRIPOS>MOLECULE
tmp/5h1wA01.pdb
 92 88 0 0 0
SMALL
GASTEIGER

@<TRIPOS>ATOM
      1  N         -0.7230    2.8360   13.7520 N.3   103  ALA103     -0.1231
      2  CA         0.0210    3.6790   12.8060 C.3   103  ALA103      0.1694
      3  C          0.5400    4.9540   13.4560 C.2   103  ALA103      0.2592
      4  O          1.6350    5.4270   13.1350 O.2   103  ALA103     -0.2718
      5  CB        -0.8470    4.0170   11.6010 C.3   103  ALA103      0.0304
      6  N         -0.2380    5.4910   14.3910 N.am  104  GLY104     -0.1957
      7  CA         0.1240    6.7160   15.0770 C.3   104  GLY104      0.1869
      8  C          1.3520    6.5490   15.9530 C.2   104  GLY104      0.2309
      9  O          2.0900    7.5060   16.1800 O.2   104  GLY104     -0.2863
     10  N          4.1660    6.6910   13.1180 N.3   107  GLY107     -0.1210
     11  CA         4.1430    7.6640   12.0430 C.3   107  GLY107      0.1956
     12  C          3.9370    7.0010   10.6830 C.2   107  GLY107      0.2612
     13  O          4.4550    7.4640    9.6650 O.2   107  GLY107     -0.2717
     14  N          3.1520    5.9280   10.6720 N.am  108  ALA108     -0.1965
     15  CA         2.9550    5.1120    9.4700 C.3   108  ALA108      0.1728
     16  C          1.6800    5.4710    8.7210 C.2   108  ALA108      0.2616
     17  O          0.7310    5.9670    9.3150 O.2   108  ALA108     -0.2715
     18  CB         2.9170    3.6520    9.8400 C.3   108  ALA108      0.0334
     19  N          1.6760    5.1990    7.4160 N.am  109  LEU109     -0.1977
     20  CA         0.4800    5.3160    6.5910 C.3   109  LEU109      0.1596
     21  C         -0.3990    4.1000    6.8110 C.2   109  LEU109      0.2287
     22  O          0.1090    3.0240    7.1100 O.2   109  LEU109     -0.2864
     23  CB         0.8520    5.4170    5.1080 C.3   109  LEU109      0.0297
     24  CG         1.7150    6.6130    4.7020 C.3   109  LEU109      0.0022
     25  CD1        2.2340    6.4550    3.2950 C.3   109  LEU109      0.0001
     26  CD2        0.8350    7.8440    4.8090 C.3   109  LEU109      0.0001
     27  N         -4.8960   12.4530   13.2440 N.3   144  HIS144     -0.1226
     28  CA        -3.5700   12.4860   12.6400 C.3   144  HIS144      0.1752
     29  C         -3.3540   11.4390   11.5490 C.2   144  HIS144      0.2596
     30  O         -2.4140   11.5480   10.7610 O.2   144  HIS144     -0.2718
     31  CB        -2.5190   12.3090   13.7330 C.3   144  HIS144      0.0759
     32  CG        -2.6530   13.2980   14.8530 C.ar  144  HIS144      0.0818
     33  ND1       -2.4450   14.6480   14.6800 N.ar  144  HIS144     -0.2268
     34  CD2       -2.9930   13.1320   16.1540 C.ar  144  HIS144      0.1154
     35  CE1       -2.6370   15.2730   15.8300 C.ar  144  HIS144      0.1986
     36  NE2       -2.9690   14.3750   16.7410 N.ar  144  HIS144     -0.2212
     37  N         -4.2310   10.4450   11.4870 N.am  145  ALA145     -0.1966
     38  CA        -4.0230    9.3090   10.5730 C.3   145  ALA145      0.1728
     39  C         -4.0010    9.7350    9.1110 C.2   145  ALA145      0.2616
     40  O         -4.7810   10.5830    8.6830 O.2   145  ALA145     -0.2715
     41  CB        -5.0990    8.2440   10.7930 C.3   145  ALA145      0.0334
     42  N         -3.0930    9.1390    8.3450 N.am  146  LYS146     -0.1977
     43  CA        -3.0620    9.3850    6.9090 C.3   146  LYS146      0.1596
     44  C         -3.2720    8.0760    6.2050 C.2   146  LYS146      0.2287
     45  O         -2.7150    7.0490    6.6060 O.2   146  LYS146     -0.2864
     46  CB        -1.7400   10.0160    6.4700 C.3   146  LYS146      0.0298
     47  CG        -1.5440   11.4380    6.9300 C.3   146  LYS146      0.0038
     48  CD        -0.3140   12.0110    6.2430 C.3   146  LYS146      0.0206
     49  CE         0.3690   13.0550    7.0880 C.3   146  LYS146      0.1093
     50  NZ         1.5930   13.5450    6.3890 N.3   146  LYS146     -0.1314
     51  N         -6.3810   16.2170    2.5080 N.3   176  ASN176     -0.1225
     52  CA        -4.9860   15.9090    2.2250 C.3   176  ASN176      0.1785
     53  C         -4.4900   14.7580    3.0870 C.2   176  ASN176      0.2597
     54  O         -3.3370   14.3480    2.9690 O.2   176  ASN176     -0.2718
     55  CB        -4.0820   17.1390    2.3870 C.3   176  ASN176      0.1169
     56  CG        -4.0150   17.6580    3.8090 C.2   176  ASN176      0.2627
     57  OD1       -4.5800   17.0790    4.7360 O.2   176  ASN176     -0.2716
     58  ND2       -3.3100   18.7720    3.9860 N.am  176  ASN176     -0.0877
     59  N         -5.3600   14.2240    3.9470 N.am  177  ARG177     -0.1979
     60  CA        -4.9660   13.0620    4.7380 C.3   177  ARG177      0.1597
     61  C         -5.2670   11.7540    4.0120 C.2   177  ARG177      0.2287
     62  O         -5.1030   10.6720    4.5780 O.2   177  ARG177     -0.2864
     63  CB        -5.6370   13.0920    6.1120 C.3   177  ARG177      0.0334
     64  CG        -4.9870   14.1050    7.0390 C.3   177  ARG177      0.0492
     65  CD        -5.2910   13.8040    8.4890 C.3   177  ARG177      0.2205
     66  NE        -6.6860   14.0740    8.8030 N.pl3 177  ARG177     -0.0865
     67  CZ        -7.4900   13.2430    9.4730 C.cat 177  ARG177      0.5346
     68  NH1       -8.7340   13.6050    9.7250 N.pl3 177  ARG177      0.1354
     69  NH2       -7.0660   12.0500    9.8800 N.pl3 177  ARG177      0.1354
     70  N          1.3900    9.1420   -2.3670 N.3   206  TYR206     -0.1241
     71  CA         1.9300    9.1800   -1.0110 C.3   206  TYR206      0.1605
     72  C          2.8210    7.9820   -0.6810 C.2   206  TYR206      0.2264
     73  O          3.6320    8.0470    0.2440 O.2   206  TYR206     -0.2867
     74  CB         0.7980    9.2250    0.0220 C.3   206  TYR206      0.0534
     75  CG         0.0770   10.5430    0.1870 C.ar  206  TYR206     -0.0201
     76  CD1        0.3260   11.6210   -0.6570 C.ar  206  TYR206     -0.0009
     77  CD2       -0.8570   10.7010    1.2080 C.ar  206  TYR206     -0.0009
     78  CE1       -0.3530   12.8280   -0.4900 C.ar  206  TYR206      0.0417
     79  CE2       -1.5350   11.8990    1.3840 C.ar  206  TYR206      0.0417
     80  CZ        -1.2800   12.9540    0.5330 C.ar  206  TYR206      0.1957
     81  OH        -1.9640   14.1380    0.7150 O.3   206  TYR206     -0.2866
     82  N          9.1870   10.0080   -1.0640 N.3   239  ARG239     -0.1245
     83  CA         8.7230    9.1920    0.0490 C.3   239  ARG239      0.1563
     84  C          9.2080    7.7570   -0.1370 C.2   239  ARG239      0.2260
     85  O         10.2880    7.5420   -0.6710 O.2   239  ARG239     -0.2867
     86  CB         7.2050    9.2940    0.1650 C.3   239  ARG239      0.0307
     87  CG         6.7980   10.7700    0.2450 C.3   239  ARG239      0.0489
     88  CD         5.4520   11.0020    0.8880 C.3   239  ARG239      0.2205
     89  NE         5.1610   12.4370    0.9880 N.pl3 239  ARG239     -0.0865
     90  CZ         5.5790   13.2270    1.9800 C.cat 239  ARG239      0.5346
     91  NH1        6.3090   12.7380    2.9740 N.pl3 239  ARG239      0.1354
     92  NH2        5.2640   14.5170    1.9800 N.pl3 239  ARG239      0.1354
@<TRIPOS>BOND
     1    70    71    1
     2    82    83    1
     3    71    72    1
     4    71    74    1
     5    72    73    2
     6    85    84    2
     7    76    78   ar
     8    76    75   ar
     9    78    80   ar
    10    84    83    1
    11    74    75    1
    12    83    86    1
    13    86    87    1
    14    75    77   ar
    15    87    88    1
    16    80    81    1
    17    80    79   ar
    18    88    89    1
    19    89    90    2
    20    77    79   ar
    21    90    92    1
    22    90    91    1
    23    52    55    1
    24    52    51    1
    25    52    53    1
    26    55    56    1
    27    54    53    2
    28    53    59   am
    29    25    24    1
    30    56    58   am
    31    56    57    2
    32    59    60    1
    33    61    62    2
    34    61    60    1
    35    24    26    1
    36    24    23    1
    37    60    63    1
    38    23    20    1
    39    63    64    1
    40    44    45    2
    41    44    43    1
    42    48    47    1
    43    48    49    1
    44    50    49    1
    45    46    43    1
    46    46    47    1
    47    20    21    1
    48    20    19    1
    49    21    22    2
    50    43    42    1
    51    64    65    1
    52    19    16   am
    53    42    39   am
    54    65    66    1
    55    40    39    2
    56    16    17    2
    57    16    15    1
    58    66    67    2
    59    39    38    1
    60    15    18    1
    61    15    14    1
    62    67    68    1
    63    67    69    1
    64    13    12    2
    65    38    41    1
    66    38    37    1
    67    14    12   am
    68    12    11    1
    69    30    29    2
    70    37    29   am
    71    29    28    1
    72     5     2    1
    73    11    10    1
    74    28    27    1
    75    28    31    1
    76     2     3    1
    77     2     1    1
    78     4     3    2
    79     3     6   am
    80    31    32    1
    81     6     7    1
    82    33    32   ar
    83    33    35   ar
    84    32    34   ar
    85     7     8    1
    86    35    36   ar
    87     8     9    2
    88    34    36   ar
