@<TRIPOS>MOLECULE
tmp/5h1zA01.pdb
 140 126 0 0 0
SMALL
GASTEIGER

@<TRIPOS>ATOM
      1  N        -42.7780    7.2920   20.8480 N.3    67  ILE67      -0.1231
      2  CA       -44.0960    7.9270   21.1650 C.3    67  ILE67       0.1692
      3  C        -45.2120    7.8290   20.1090 C.2    67  ILE67       0.2592
      4  O        -46.3350    8.2650   20.3910 O.2    67  ILE67      -0.2718
      5  CB       -43.9480    9.4230   21.5840 C.3    67  ILE67       0.0266
      6  CG1      -43.6140   10.3300   20.3990 C.3    67  ILE67       0.0019
      7  CG2      -42.8670    9.5720   22.6440 C.3    67  ILE67       0.0020
      8  CD1      -44.7980   11.0630   19.8500 C.3    67  ILE67       0.0001
      9  N        -44.9030    7.2970   18.9160 N.am   68  THR68      -0.1953
     10  CA       -45.9170    6.8060   17.9420 C.3    68  THR68       0.1897
     11  C        -45.7920    5.3040   17.7890 C.2    68  THR68       0.2313
     12  O        -44.7760    4.7380   18.1720 O.2    68  THR68      -0.2863
     13  CB       -45.6650    7.3630   16.5380 C.3    68  THR68       0.1794
     14  OG1      -44.3510    6.9770   16.1220 O.3    68  THR68      -0.2208
     15  CG2      -45.7720    8.8670   16.5420 C.3    68  THR68       0.0378
     16  N        -44.6190    3.5520   15.6040 N.3    70  ALA70      -0.1245
     17  CA       -43.3290    3.1820   15.0040 C.3    70  ALA70       0.1562
     18  C        -42.2160    3.0160   16.0170 C.2    70  ALA70       0.2260
     19  O        -42.1960    3.7160   17.0350 O.2    70  ALA70      -0.2867
     20  CB       -42.8980    4.2420   14.0070 C.3    70  ALA70       0.0290
     21  N        -35.6790   14.4650   21.1240 N.3    84  MET84      -0.1245
     22  CA       -37.0360   15.0550   21.3800 C.3    84  MET84       0.1570
     23  C        -37.5160   15.0280   22.8260 C.2    84  MET84       0.2261
     24  O        -37.8250   13.9520   23.3470 O.2    84  MET84      -0.2867
     25  CB       -38.1400   14.3550   20.5630 C.3    84  MET84       0.0387
     26  CG       -38.0180   14.5270   19.0760 C.3    84  MET84       0.0595
     27  SD       -38.8630   13.3260   18.0500 S.3    84  MET84      -0.1393
     28  CE       -40.3940   13.1240   18.9390 C.3    84  MET84       0.0692
     29  N        -40.4460   15.5140   23.9040 N.3    86  ILE86      -0.1245
     30  CA       -41.7050   14.7720   23.9790 C.3    86  ILE86       0.1561
     31  C        -41.4370   13.2850   24.2140 C.2    86  ILE86       0.2260
     32  O        -42.3090   12.5660   24.7290 O.2    86  ILE86      -0.2867
     33  CB       -42.5670   14.9560   22.7100 C.3    86  ILE86       0.0252
     34  CG1      -44.0250   14.5430   22.9620 C.3    86  ILE86       0.0019
     35  CG2      -42.0020   14.1760   21.5330 C.3    86  ILE86       0.0019
     36  CD1      -44.9690   14.9300   21.8380 C.3    86  ILE86       0.0001
     37  N        -43.0280   14.0070    8.1820 N.3   167  ASP167     -0.1239
     38  CA       -42.9620   13.1850    9.4010 C.3   167  ASP167      0.1674
     39  C        -44.3560   12.6320    9.7040 C.2   167  ASP167      0.2266
     40  O        -44.9360   12.8680   10.7600 O.2   167  ASP167     -0.2867
     41  CB       -42.4620   14.0080   10.5740 C.3   167  ASP167      0.1410
     42  CG       -41.1310   14.6690   10.2930 C.2   167  ASP167      0.3668
     43  OD1      -40.9730   15.8470   10.6790 O.co2 167  ASP167     -0.2456
     44  OD2      -40.2480   14.0340    9.6650 O.co2 167  ASP167     -0.2456
     45  N        -44.5880    9.4530    9.7430 N.3   169  ALA169     -0.1231
     46  CA       -43.9010    8.1720    9.8300 C.3   169  ALA169      0.1694
     47  C        -44.7280    7.1740   10.6400 C.2   169  ALA169      0.2592
     48  O        -44.4290    5.9790   10.6290 O.2   169  ALA169     -0.2718
     49  CB       -42.4940    8.3280   10.3940 C.3   169  ALA169      0.0304
     50  N        -45.7660    7.6590   11.3300 N.am  170  GLY170     -0.1957
     51  CA       -46.9970    6.9040   11.4380 C.3   170  GLY170      0.1869
     52  C        -47.4270    6.7570    9.9800 C.2   170  GLY170      0.2309
     53  O        -48.1920    7.5760    9.4800 O.2   170  GLY170     -0.2863
     54  N        -42.1150    4.9210    7.9350 N.3   173  GLU173     -0.1245
     55  CA       -41.2470    3.8270    8.3350 C.3   173  GLU173      0.1567
     56  C        -42.1640    2.6460    8.5790 C.2   173  GLU173      0.2260
     57  O        -42.6110    2.4110    9.7040 O.2   173  GLU173     -0.2867
     58  CB       -40.3690    4.1640    9.5540 C.3   173  GLU173      0.0388
     59  CG       -39.0070    4.7780    9.2040 C.3   173  GLU173      0.1160
     60  CD       -38.0260    3.8030    8.5360 C.2   173  GLU173      0.3649
     61  OE1      -37.0110    3.4230    9.1710 O.co2 173  GLU173     -0.2457
     62  OE2      -38.2480    3.4360    7.3550 O.co2 173  GLU173     -0.2457
     63  N        -35.6660   10.2330    4.0830 N.3   184  ARG184     -0.1245
     64  CA       -36.2810   11.0120    5.1750 C.3   184  ARG184      0.1563
     65  C        -35.1810   11.4760    6.1070 C.2   184  ARG184      0.2260
     66  O        -35.2160   12.6070    6.5720 O.2   184  ARG184     -0.2867
     67  CB       -37.3050   10.2190    5.9850 C.3   184  ARG184      0.0307
     68  CG       -38.1200   11.0480    6.9820 C.3   184  ARG184      0.0489
     69  CD       -38.9420   10.1430    7.8900 C.3   184  ARG184      0.2205
     70  NE       -39.6360   10.8200    8.9950 N.pl3 184  ARG184     -0.0865
     71  CZ       -39.1010   11.1580   10.1770 C.cat 184  ARG184      0.5346
     72  NH1      -37.8230   10.9450   10.4650 N.pl3 184  ARG184      0.1354
     73  NH2      -39.8610   11.7470   11.0890 N.pl3 184  ARG184      0.1354
     74  N        -37.1740   18.9390   15.1400 N.3   234  ILE234     -0.1231
     75  CA       -38.1760   18.0990   14.4420 C.3   234  ILE234      0.1692
     76  C        -39.5340   18.2370   15.1540 C.2   234  ILE234      0.2591
     77  O        -40.5690   18.4540   14.5110 O.2   234  ILE234     -0.2718
     78  CB       -37.7950   16.5970   14.3510 C.3   234  ILE234      0.0266
     79  CG1      -36.7210   16.3990   13.2810 C.3   234  ILE234      0.0019
     80  CG2      -39.0190   15.7150   14.0460 C.3   234  ILE234      0.0020
     81  CD1      -36.1040   15.0100   13.2550 C.3   234  ILE234      0.0001
     82  N        -39.5040   18.1040   16.4810 N.am  235  LEU235     -0.1980
     83  CA       -40.7050   18.2020   17.3020 C.3   235  LEU235      0.1596
     84  C        -41.3350   19.5540   17.0960 C.2   235  LEU235      0.2287
     85  O        -42.5110   19.6540   16.7090 O.2   235  LEU235     -0.2864
     86  CB       -40.3810   17.9830   18.7840 C.3   235  LEU235      0.0297
     87  CG       -41.3130   18.5530   19.8490 C.3   235  LEU235      0.0022
     88  CD1      -42.6700   17.8830   19.7960 C.3   235  LEU235      0.0001
     89  CD2      -40.6870   18.3710   21.2140 C.3   235  LEU235      0.0001
     90  N        -43.0680   20.2470   13.6670 N.3   238  VAL238     -0.1231
     91  CA       -44.3280   19.5320   13.4660 C.3   238  VAL238      0.1692
     92  C        -45.3900   20.1230   14.3850 C.2   238  VAL238      0.2592
     93  O        -46.4780   20.4600   13.9270 O.2   238  VAL238     -0.2718
     94  CB       -44.2570   18.0010   13.7190 C.3   238  VAL238      0.0266
     95  CG1      -45.5130   17.3280   13.1650 C.3   238  VAL238      0.0020
     96  CG2      -43.0230   17.3580   13.1020 C.3   238  VAL238      0.0020
     97  N        -45.0770   20.2610   15.6680 N.am  239  GLY239     -0.1957
     98  CA       -46.0390   20.8220   16.6090 C.3   239  GLY239      0.1869
     99  C        -46.5350   22.1750   16.1290 C.2   239  GLY239      0.2309
    100  O        -47.7470   22.3890   15.9580 O.2   239  GLY239     -0.2863
    101  N        -50.1290   20.7410   13.0430 N.3   243  THR243     -0.1218
    102  CA       -51.2350   20.4860   13.9350 C.3   243  THR243      0.1862
    103  C        -52.2820   21.5670   13.7650 C.2   243  THR243      0.2287
    104  O        -53.4820   21.2830   13.7200 O.2   243  THR243     -0.2866
    105  CB       -50.7480   20.5010   15.3870 C.3   243  THR243      0.1770
    106  OG1      -50.2020   21.7930   15.6960 O.3   243  THR243     -0.2211
    107  CG2      -49.6650   19.4470   15.5990 C.3   243  THR243      0.0375
    108  N        -53.7500   15.1250   15.8240 N.3   286  LEU286     -0.1245
    109  CA       -52.9900   13.9020   16.0130 C.3   286  LEU286      0.1561
    110  C        -53.9300   12.9080   16.6160 C.2   286  LEU286      0.2260
    111  O        -54.3810   13.0760   17.7240 O.2   286  LEU286     -0.2867
    112  CB       -51.7930   14.1190   16.9080 C.3   286  LEU286      0.0270
    113  CG       -50.6910   14.8740   16.1690 C.3   286  LEU286      0.0019
    114  CD1      -50.8290   16.3870   16.2690 C.3   286  LEU286      0.0001
    115  CD2      -49.3490   14.4620   16.7290 C.3   286  LEU286      0.0001
    116  N        -51.2640    9.1690   20.2810 N.3   289  MET289     -0.1245
    117  CA       -49.9050    9.0410   20.7860 C.3   289  MET289      0.1570
    118  C        -49.7470    7.6550   21.4690 C.2   289  MET289      0.2261
    119  O        -50.7450    7.0080   21.8910 O.2   289  MET289     -0.2867
    120  CB       -49.6390   10.1500   21.7730 C.3   289  MET289      0.0387
    121  CG       -49.6240   11.5390   21.1600 C.3   289  MET289      0.0595
    122  SD       -48.0160   12.0660   20.5510 S.3   289  MET289     -0.1393
    123  CE       -47.0560   11.9380   22.0730 C.3   289  MET289      0.0692
    124  N        -49.9970   19.7210   25.3960 N.3   350  CYS350     -0.1235
    125  CA       -49.2800   20.4670   24.3870 C.3   350  CYS350      0.1677
    126  C        -48.8450   21.8010   24.9120 C.2   350  CYS350      0.2270
    127  O        -49.6890   22.6350   25.1690 O.2   350  CYS350     -0.2867
    128  CB       -50.1840   20.6810   23.1860 C.3   350  CYS350      0.0956
    129  SG       -49.3800   21.5660   21.8550 S.3   350  CYS350     -0.0801
    130  N        -51.0560    8.4840   12.6090 N.3   387  PHE387     -0.1241
    131  CA       -50.5210    9.5970   13.4280 C.3   387  PHE387      0.1605
    132  C        -51.0910   10.9870   13.1160 C.2   387  PHE387      0.2264
    133  O        -51.8180   11.5500   13.9440 O.2   387  PHE387     -0.2867
    134  CB       -48.9990    9.6370   13.3490 C.3   387  PHE387      0.0534
    135  CG       -48.3660   10.5620   14.3420 C.ar  387  PHE387     -0.0203
    136  CD1      -48.6680   10.4710   15.6880 C.ar  387  PHE387     -0.0042
    137  CD2      -47.4440   11.5110   13.9320 C.ar  387  PHE387     -0.0042
    138  CE1      -48.0610   11.3110   16.5970 C.ar  387  PHE387     -0.0003
    139  CE2      -46.8440   12.3700   14.8360 C.ar  387  PHE387     -0.0003
    140  CZ       -47.1440   12.2610   16.1710 C.ar  387  PHE387     -0.0000
@<TRIPOS>BOND
     1    63    64    1
     2    64    67    1
     3    64    65    1
     4    67    68    1
     5    65    66    2
     6    68    69    1
     7    62    60   ar
     8    69    70    1
     9    54    55    1
    10    37    38    1
    11    55    56    1
    12    55    58    1
    13    60    61   ar
    14    60    59    1
    15    56    57    2
    16    70    71    2
    17    59    58    1
    18    38    39    1
    19    38    41    1
    20    53    52    2
    21    44    42   ar
    22    39    40    2
    23    45    46    1
    24    46    49    1
    25    46    47    1
    26    52    51    1
    27    71    72    1
    28    71    73    1
    29    42    41    1
    30    42    43   ar
    31    48    47    2
    32    47    50   am
    33    50    51    1
    34   130   131    1
    35   101   102    1
    36    96    94    1
    37   132   131    1
    38   132   133    2
    39    95    94    1
    40    81    79    1
    41    79    78    1
    42   134   131    1
    43   134   135    1
    44    91    90    1
    45    91    94    1
    46    91    92    1
    47   104   103    2
    48   103   102    1
    49    93    92    2
    50   137   135   ar
    51   137   139   ar
    52   102   105    1
    53    20    17    1
    54    80    78    1
    55   135   136   ar
    56    78    75    1
    57    92    97   am
    58    75    74    1
    59    75    76    1
    60    77    76    2
    61   139   140   ar
    62    17    16    1
    63    17    18    1
    64    76    82   am
    65   105   107    1
    66   105   106    1
    67    97    98    1
    68   136   138   ar
    69   108   109    1
    70   100    99    2
    71   109   110    1
    72   109   112    1
    73    18    19    2
    74    14    13    1
    75    99    98    1
    76   113   114    1
    77   113   115    1
    78   113   112    1
    79   140   138   ar
    80    82    83    1
    81    13    15    1
    82    13    10    1
    83   110   111    2
    84    85    84    2
    85    84    83    1
    86    83    86    1
    87    11    10    1
    88    11    12    2
    89    10     9    1
    90    27    28    1
    91    27    26    1
    92    86    87    1
    93     9     3   am
    94    26    25    1
    95    88    87    1
    96    87    89    1
    97     8     6    1
    98     3     4    2
    99     3     2    1
   100   116   117    1
   101     6     5    1
   102   122   121    1
   103   122   123    1
   104    25    22    1
   105   117   118    1
   106   117   120    1
   107     1     2    1
   108    21    22    1
   109   121   120    1
   110     2     5    1
   111    22    23    1
   112   118   119    2
   113    35    33    1
   114     5     7    1
   115    36    34    1
   116   129   128    1
   117    33    34    1
   118    33    30    1
   119    23    24    2
   120   128   125    1
   121    29    30    1
   122    30    31    1
   123    31    32    2
   124   125   126    1
   125   125   124    1
   126   126   127    2
