@<TRIPOS>MOLECULE
tmp/5h20A00.pdb
 103 104 0 0 0
SMALL
GASTEIGER

@<TRIPOS>ATOM
      1  N         37.6150  -17.9060   -0.9490 N.3    26  TYR26      -0.1227
      2  CA        36.4260  -18.5020   -0.3560 C.3    26  TYR26       0.1736
      3  C         36.4350  -18.1570    1.1320 C.2    26  TYR26       0.2595
      4  O         37.5070  -17.9410    1.7280 O.2    26  TYR26      -0.2718
      5  CB        36.4210  -20.0330   -0.5330 C.3    26  TYR26       0.0548
      6  CG        36.4730  -20.5590   -1.9720 C.ar   26  TYR26      -0.0200
      7  CD1       35.3560  -20.4760   -2.8200 C.ar   26  TYR26      -0.0009
      8  CD2       37.6280  -21.1670   -2.4680 C.ar   26  TYR26      -0.0009
      9  CE1       35.4030  -20.9680   -4.1220 C.ar   26  TYR26       0.0417
     10  CE2       37.6840  -21.6580   -3.7710 C.ar   26  TYR26       0.0417
     11  CZ        36.5670  -21.5610   -4.5870 C.ar   26  TYR26       0.1957
     12  OH        36.6210  -22.0370   -5.8720 O.3    26  TYR26      -0.2866
     13  N         35.2480  -18.0940    1.7330 N.am   27  ALA27      -0.1966
     14  CA        35.1090  -17.9420    3.1810 C.3    27  ALA27       0.1728
     15  C         36.0110  -18.8960    3.9920 C.2    27  ALA27       0.2616
     16  O         36.6330  -18.4780    4.9680 O.2    27  ALA27      -0.2715
     17  CB        33.6490  -18.0870    3.5930 C.3    27  ALA27       0.0334
     18  N         36.0740  -20.1570    3.5630 N.am   28  SER28      -0.1950
     19  CA        36.9890  -21.1760    4.0980 C.3    28  SER28       0.1924
     20  C         38.4760  -20.8170    4.0040 C.2    28  SER28       0.2314
     21  O         39.2600  -21.2680    4.8360 O.2    28  SER28      -0.2863
     22  CB        36.7500  -22.5280    3.4180 C.3    28  SER28       0.2116
     23  OG        36.8320  -22.3950    1.9970 O.3    28  SER28      -0.2180
     24  N         30.1080  -15.2370    8.2330 N.3    47  TYR47      -0.1241
     25  CA        29.1240  -15.1770    7.1360 C.3    47  TYR47       0.1605
     26  C         28.2870  -13.8780    7.0900 C.2    47  TYR47       0.2264
     27  O         28.1960  -13.2800    6.0060 O.2    47  TYR47      -0.2867
     28  CB        28.2420  -16.4420    7.0880 C.3    47  TYR47       0.0534
     29  CG        28.9410  -17.7190    6.6220 C.ar   47  TYR47      -0.0201
     30  CD1       30.3330  -17.7590    6.3950 C.ar   47  TYR47      -0.0009
     31  CD2       28.2120  -18.9010    6.4210 C.ar   47  TYR47      -0.0009
     32  CE1       30.9660  -18.9210    5.9720 C.ar   47  TYR47       0.0417
     33  CE2       28.8450  -20.0720    5.9980 C.ar   47  TYR47       0.0417
     34  CZ        30.2250  -20.0710    5.7790 C.ar   47  TYR47       0.1957
     35  OH        30.8840  -21.2090    5.3670 O.3    47  TYR47      -0.2866
     36  N         30.5570  -10.8580    5.8310 N.3    50  LEU50      -0.1245
     37  CA        30.7570  -10.9790    4.3960 C.3    50  LEU50       0.1561
     38  C         29.5380  -10.4430    3.6390 C.2    50  LEU50       0.2260
     39  O         29.6860   -9.6290    2.7170 O.2    50  LEU50      -0.2867
     40  CB        31.0250  -12.4390    4.0070 C.3    50  LEU50       0.0270
     41  CG        32.2420  -13.1480    4.5920 C.3    50  LEU50       0.0019
     42  CD1       32.2060  -14.6070    4.1530 C.3    50  LEU50       0.0001
     43  CD2       33.5320  -12.4600    4.1630 C.3    50  LEU50       0.0001
     44  N         29.8190  -17.1490   -8.1600 N.3    63  TRP63      -0.1241
     45  CA        29.5940  -18.5450   -7.7970 C.3    63  TRP63       0.1605
     46  C         30.5500  -19.4640   -8.5750 C.2    63  TRP63       0.2264
     47  O         30.6830  -19.3440   -9.7940 O.2    63  TRP63      -0.2867
     48  CB        28.1500  -18.9440   -8.0850 C.3    63  TRP63       0.0550
     49  CG        27.1330  -18.2390   -7.2500 C.ar   63  TRP63       0.0003
     50  CD1       26.3950  -17.1450   -7.6030 C.ar   63  TRP63       0.0946
     51  CD2       26.7250  -18.5900   -5.9180 C.ar   63  TRP63       0.0152
     52  NE1       25.5560  -16.7920   -6.5760 N.ar   63  TRP63      -0.2442
     53  CE2       25.7350  -17.6610   -5.5280 C.ar   63  TRP63       0.0810
     54  CE3       27.0990  -19.6030   -5.0200 C.ar   63  TRP63       0.0012
     55  CZ2       25.1050  -17.7110   -4.2670 C.ar   63  TRP63       0.0191
     56  CZ3       26.4680  -19.6650   -3.7650 C.ar   63  TRP63       0.0001
     57  CH2       25.4800  -18.7230   -3.4060 C.ar   63  TRP63       0.0015
     58  N         28.6880  -28.3580   -3.7420 N.3    70  PRO70      -0.2103
     59  CA        27.7360  -27.2600   -3.9210 C.3    70  PRO70       0.1489
     60  C         28.4010  -26.0090   -4.5170 C.2    70  PRO70       0.2418
     61  O         29.6430  -25.9560   -4.5910 O.2    70  PRO70      -0.2734
     62  CB        27.2680  -26.9810   -2.4790 C.3    70  PRO70       0.0282
     63  CG        28.4590  -27.3230   -1.6590 C.3    70  PRO70       0.0208
     64  CD        29.0070  -28.5600   -2.3120 C.3    70  PRO70       0.0893
     65  N         27.5920  -25.0160   -4.9610 N.am   71  PRO71      -0.2718
     66  CA        28.1740  -23.7300   -5.3910 C.3    71  PRO71       0.1535
     67  C         28.8280  -22.9720   -4.2360 C.2    71  PRO71       0.2598
     68  O         28.2590  -22.8860   -3.1390 O.2    71  PRO71      -0.2715
     69  CB        26.9620  -22.9430   -5.9020 C.3    71  PRO71       0.0310
     70  CG        25.9640  -23.9860   -6.2890 C.3    71  PRO71       0.0237
     71  CD        26.1510  -25.1040   -5.3030 C.3    71  PRO71       0.0939
     72  N         30.0190  -22.4390   -4.4880 N.am   72  ARG72      -0.1964
     73  CA        30.7950  -21.7480   -3.4690 C.3    72  ARG72       0.1729
     74  C         30.9700  -20.2910   -3.8840 C.2    72  ARG72       0.2616
     75  O         31.1720  -20.0030   -5.0680 O.2    72  ARG72      -0.2715
     76  CB        32.1550  -22.4220   -3.2890 C.3    72  ARG72       0.0348
     77  CG        32.0980  -23.9050   -2.9320 C.3    72  ARG72       0.0492
     78  CD        33.4950  -24.5020   -2.8720 C.3    72  ARG72       0.2205
     79  NE        34.1830  -24.0830   -1.6570 N.pl3  72  ARG72      -0.0865
     80  CZ        35.5040  -24.0160   -1.4940 C.cat  72  ARG72       0.5346
     81  NH1       36.3350  -24.3550   -2.4750 N.pl3  72  ARG72       0.1354
     82  NH2       35.9980  -23.6050   -0.3310 N.pl3  72  ARG72       0.1354
     83  N         30.8500  -19.3850   -2.9180 N.am   73  LYS73      -0.1977
     84  CA        31.0030  -17.9550   -3.1510 C.3    73  LYS73       0.1596
     85  C         32.4910  -17.6160   -3.1630 C.2    73  LYS73       0.2287
     86  O         33.2430  -17.9750   -2.2580 O.2    73  LYS73      -0.2864
     87  CB        30.2640  -17.1330   -2.0910 C.3    73  LYS73       0.0298
     88  CG        28.7380  -17.1010   -2.2130 C.3    73  LYS73       0.0038
     89  CD        28.1470  -16.4500   -0.9730 C.3    73  LYS73       0.0206
     90  CE        26.6240  -16.5070   -0.9410 C.3    73  LYS73       0.1093
     91  NZ        25.9680  -15.1680   -0.9750 N.3    73  LYS73      -0.1314
     92  N         35.0040  -14.6210   -3.2190 N.3    75  TYR75      -0.1241
     93  CA        34.9130  -13.2230   -2.8390 C.3    75  TYR75       0.1605
     94  C         36.1650  -12.4790   -3.2350 C.2    75  TYR75       0.2264
     95  O         37.2700  -13.0100   -3.1420 O.2    75  TYR75      -0.2867
     96  CB        34.7550  -13.1060   -1.3160 C.3    75  TYR75       0.0534
     97  CG        33.4230  -13.4920   -0.7110 C.ar   75  TYR75      -0.0201
     98  CD1       32.3940  -12.5480   -0.5760 C.ar   75  TYR75      -0.0009
     99  CD2       33.2160  -14.7800   -0.1850 C.ar   75  TYR75      -0.0009
    100  CE1       31.1820  -12.8800    0.0120 C.ar   75  TYR75       0.0417
    101  CE2       32.0080  -15.1210    0.4210 C.ar   75  TYR75       0.0417
    102  CZ        30.9950  -14.1690    0.5180 C.ar   75  TYR75       0.1957
    103  OH        29.7960  -14.4840    1.1290 O.3    75  TYR75      -0.2866
@<TRIPOS>BOND
     1    47    46    2
     2    46    45    1
     3    44    45    1
     4    48    45    1
     5    48    49    1
     6    50    49   ar
     7    50    52   ar
     8    49    51   ar
     9    52    53   ar
    10    70    69    1
    11    70    71    1
    12    51    53   ar
    13    51    54   ar
    14    69    66    1
    15    12    11    1
    16    53    55   ar
    17    66    65    1
    18    66    67    1
    19    71    65    1
    20    75    74    2
    21    54    56   ar
    22    65    60   am
    23    61    60    2
    24    11     9   ar
    25    11    10   ar
    26    60    59    1
    27    72    67   am
    28    72    73    1
    29    55    57   ar
    30    67    68    2
    31     9     7   ar
    32    59    58    1
    33    59    62    1
    34    74    73    1
    35    74    83   am
    36    10     8   ar
    37    56    57   ar
    38    58    64    1
    39    73    76    1
    40    76    77    1
    41    94    95    2
    42    94    93    1
    43    92    93    1
    44    85    84    1
    45    85    86    2
    46    84    83    1
    47    84    87    1
    48    77    78    1
    49    78    79    1
    50    93    96    1
    51     7     6   ar
    52    62    63    1
    53    81    80    1
    54     8     6   ar
    55    64    63    1
    56    88    87    1
    57    88    89    1
    58     6     5    1
    59    79    80    2
    60    80    82    1
    61    96    97    1
    62    91    90    1
    63    89    90    1
    64     1     2    1
    65    97    98   ar
    66    97    99   ar
    67    98   100   ar
    68     5     2    1
    69     2     3    1
    70    99   101   ar
    71   100   102   ar
    72   101   102   ar
    73   102   103    1
    74     3     4    2
    75     3    13   am
    76    13    14    1
    77    23    22    1
    78    39    38    2
    79    14    17    1
    80    14    15    1
    81    22    19    1
    82    18    15   am
    83    18    19    1
    84    38    37    1
    85    15    16    2
    86    20    19    1
    87    20    21    2
    88    40    37    1
    89    40    41    1
    90    42    41    1
    91    43    41    1
    92    37    36    1
    93    35    34    1
    94    34    32   ar
    95    34    33   ar
    96    32    30   ar
    97    33    31   ar
    98    27    26    2
    99    30    29   ar
   100    31    29   ar
   101    29    28    1
   102    28    25    1
   103    26    25    1
   104    25    24    1
