@<TRIPOS>MOLECULE
tmp/5h21A00.pdb
 126 122 0 0 0
SMALL
GASTEIGER

@<TRIPOS>ATOM
      1  N        -29.9140   -0.3250   80.1750 N.3    39  TRP39      -0.1228
      2  CA       -30.3030   -1.5860   80.7970 C.3    39  TRP39       0.1722
      3  C        -29.1420   -2.5130   81.1540 C.2    39  TRP39       0.2437
      4  O        -29.2630   -3.2010   82.1840 O.2    39  TRP39      -0.2733
      5  CB       -31.3400   -2.3090   79.9130 C.3    39  TRP39       0.0563
      6  CG       -30.8850   -2.6460   78.5260 C.ar   39  TRP39       0.0003
      7  CD1      -31.0780   -1.9020   77.3900 C.ar   39  TRP39       0.0946
      8  CD2      -30.1520   -3.8070   78.1230 C.ar   39  TRP39       0.0152
      9  NE1      -30.5080   -2.5370   76.3100 N.ar   39  TRP39      -0.2442
     10  CE2      -29.9330   -3.7060   76.7370 C.ar   39  TRP39       0.0810
     11  CE3      -29.6540   -4.9250   78.8030 C.ar   39  TRP39       0.0012
     12  CZ2      -29.2480   -4.6760   76.0200 C.ar   39  TRP39       0.0191
     13  CZ3      -28.9670   -5.8850   78.0900 C.ar   39  TRP39       0.0001
     14  CH2      -28.7790   -5.7640   76.7110 C.ar   39  TRP39       0.0015
     15  N        -28.0210   -2.5780   80.4200 N.am   40  PRO40      -0.2718
     16  CA       -26.9200   -3.4400   80.8820 C.3    40  PRO40       0.1535
     17  C        -26.3000   -2.9760   82.1840 C.2    40  PRO40       0.2598
     18  O        -25.6030   -3.7610   82.8430 O.2    40  PRO40      -0.2715
     19  CB       -25.8960   -3.3680   79.7420 C.3    40  PRO40       0.0310
     20  CG       -26.6920   -2.9170   78.5330 C.3    40  PRO40       0.0237
     21  CD       -27.6910   -1.9470   79.1240 C.3    40  PRO40       0.0939
     22  N        -26.5530   -1.7350   82.5820 N.am   41  PHE41      -0.1974
     23  CA       -25.8310   -1.0910   83.6630 C.3    41  PHE41       0.1639
     24  C        -26.6890   -0.8930   84.9040 C.2    41  PHE41       0.2290
     25  O        -26.2350   -0.2560   85.8580 O.2    41  PHE41      -0.2864
     26  CB       -25.2670    0.2420   83.1440 C.3    41  PHE41       0.0560
     27  CG       -24.3990    0.0760   81.9250 C.ar   41  PHE41      -0.0200
     28  CD1      -23.0890   -0.3680   82.0490 C.ar   41  PHE41      -0.0042
     29  CD2      -24.9020    0.3000   80.6510 C.ar   41  PHE41      -0.0042
     30  CE1      -22.2900   -0.5660   80.9330 C.ar   41  PHE41      -0.0003
     31  CE2      -24.1020    0.1090   79.5150 C.ar   41  PHE41      -0.0003
     32  CZ       -22.7940   -0.3190   79.6530 C.ar   41  PHE41      -0.0000
     33  N        -27.7970   -3.0910   87.0990 N.3    43  GLN43      -0.1245
     34  CA       -27.6120   -4.0980   88.1360 C.3    43  GLN43       0.1566
     35  C        -26.1940   -4.6240   88.0400 C.2    43  GLN43       0.2260
     36  O        -25.5660   -4.5260   86.9790 O.2    43  GLN43      -0.2867
     37  CB       -28.6150   -5.2590   87.9900 C.3    43  GLN43       0.0367
     38  CG       -28.5350   -6.0040   86.6670 C.3    43  GLN43       0.0905
     39  CD       -29.1920   -5.2370   85.5400 C.2    43  GLN43       0.2608
     40  OE1      -30.3060   -4.7300   85.6900 O.2    43  GLN43      -0.2717
     41  NE2      -28.4830   -5.0930   84.4320 N.am   43  GLN43      -0.0878
     42  N        -23.1380   -6.9380   87.2580 N.3    45  VAL45      -0.1245
     43  CA       -22.9160   -7.9740   86.2560 C.3    45  VAL45       0.1561
     44  C        -23.1010   -9.3450   86.8990 C.2    45  VAL45       0.2260
     45  O        -22.4520   -9.6840   87.8980 O.2    45  VAL45      -0.2867
     46  CB       -21.5250   -7.8200   85.6290 C.3    45  VAL45       0.0252
     47  CG1      -21.2150   -9.0290   84.7570 C.3    45  VAL45       0.0019
     48  CG2      -21.4390   -6.5420   84.8210 C.3    45  VAL45       0.0019
     49  N        -24.9570  -14.1920   82.4830 N.3    50  LEU50      -0.1245
     50  CA       -24.4610  -13.6430   81.2260 C.3    50  LEU50       0.1561
     51  C        -23.3820  -14.5020   80.5810 C.2    50  LEU50       0.2260
     52  O        -22.9230  -14.1630   79.4780 O.2    50  LEU50      -0.2867
     53  CB       -23.9220  -12.2290   81.4570 C.3    50  LEU50       0.0270
     54  CG       -24.9730  -11.1670   81.7520 C.3    50  LEU50       0.0019
     55  CD1      -24.3130   -9.8250   82.0110 C.3    50  LEU50       0.0001
     56  CD2      -25.9450  -11.0570   80.5780 C.3    50  LEU50       0.0001
     57  N        -20.2430  -14.9910   81.4600 N.3    52  LEU52      -0.1245
     58  CA       -18.9780  -14.2650   81.4500 C.3    52  LEU52       0.1561
     59  C        -18.1480  -14.7840   82.6190 C.2    52  LEU52       0.2260
     60  O        -17.9620  -14.0920   83.6320 O.2    52  LEU52      -0.2867
     61  CB       -19.2030  -12.7590   81.5560 C.3    52  LEU52       0.0270
     62  CG       -20.1970  -12.1670   80.5630 C.3    52  LEU52       0.0019
     63  CD1      -20.4560  -10.7010   80.8640 C.3    52  LEU52       0.0001
     64  CD2      -19.6490  -12.3370   79.1620 C.3    52  LEU52       0.0001
     65  N        -15.4160  -12.4950   83.8990 N.3    55  TYR55      -0.1241
     66  CA       -15.6720  -11.0760   84.1550 C.3    55  TYR55       0.1605
     67  C        -14.9690  -10.6120   85.4190 C.2    55  TYR55       0.2264
     68  O        -14.2170   -9.6290   85.3920 O.2    55  TYR55      -0.2867
     69  CB       -17.1660  -10.7760   84.2770 C.3    55  TYR55       0.0534
     70  CG       -17.3750   -9.2910   84.4770 C.ar   55  TYR55      -0.0201
     71  CD1      -17.1790   -8.4240   83.4290 C.ar   55  TYR55      -0.0009
     72  CD2      -17.7050   -8.7630   85.7190 C.ar   55  TYR55      -0.0009
     73  CE1      -17.3240   -7.0660   83.5970 C.ar   55  TYR55       0.0417
     74  CE2      -17.8570   -7.3900   85.8960 C.ar   55  TYR55       0.0417
     75  CZ       -17.6800   -6.5560   84.8070 C.ar   55  TYR55       0.1957
     76  OH       -17.8170   -5.1790   84.8990 O.3    55  TYR55      -0.2866
     77  N        -16.3650   -1.3570   81.7420 N.3    94  CYS94      -0.1235
     78  CA       -16.9000   -1.8510   80.4800 C.3    94  CYS94       0.1677
     79  C        -15.8460   -1.7900   79.3820 C.2    94  CYS94       0.2270
     80  O        -15.6870   -2.7430   78.6030 O.2    94  CYS94      -0.2867
     81  CB       -18.1400   -1.0370   80.1190 C.3    94  CYS94       0.0956
     82  SG       -19.0120   -1.6460   78.6570 S.3    94  CYS94      -0.0801
     83  N        -13.1840   -4.6080   80.1050 N.3    97  TYR97      -0.1227
     84  CA       -13.5500   -6.0050   79.8930 C.3    97  TYR97       0.1736
     85  C        -13.7340   -6.3290   78.4170 C.2    97  TYR97       0.2595
     86  O        -13.5770   -7.4950   78.0200 O.2    97  TYR97      -0.2718
     87  CB       -14.8220   -6.3640   80.6650 C.3    97  TYR97       0.0548
     88  CG       -15.2400   -7.7950   80.4010 C.ar   97  TYR97      -0.0200
     89  CD1      -14.5600   -8.8560   80.9890 C.ar   97  TYR97      -0.0009
     90  CD2      -16.2640   -8.0830   79.5160 C.ar   97  TYR97      -0.0009
     91  CE1      -14.9280  -10.1810   80.7210 C.ar   97  TYR97       0.0417
     92  CE2      -16.6370   -9.3800   79.2420 C.ar   97  TYR97       0.0417
     93  CZ       -15.9710  -10.4240   79.8400 C.ar   97  TYR97       0.1957
     94  OH       -16.3500  -11.7190   79.5480 O.3    97  TYR97      -0.2866
     95  N        -14.0780   -5.3360   77.5980 N.am   98  ASN98      -0.1974
     96  CA       -14.4280   -5.5240   76.2020 C.3    98  ASN98       0.1688
     97  C        -13.3100   -4.9600   75.3290 C.2    98  ASN98       0.2292
     98  O        -12.1300   -5.0320   75.7180 O.2    98  ASN98      -0.2864
     99  CB       -15.7980   -4.9010   75.9540 C.3    98  ASN98       0.1181
    100  CG       -16.8810   -5.6140   76.7200 C.2    98  ASN98       0.2629
    101  OD1      -17.1980   -6.7690   76.4240 O.2    98  ASN98      -0.2716
    102  ND2      -17.4290   -4.9570   77.7390 N.am   98  ASN98      -0.0877
    103  N        -20.7210   -3.7060   70.6640 N.3   103  ASP103     -0.1225
    104  CA       -22.0280   -3.1080   70.9390 C.3   103  ASP103      0.1805
    105  C        -22.1220   -2.5640   72.3670 C.2   103  ASP103      0.2597
    106  O        -22.6480   -1.4650   72.5790 O.2   103  ASP103     -0.2718
    107  CB       -23.1500   -4.1260   70.6860 C.3   103  ASP103      0.1424
    108  CG       -23.6330   -4.1410   69.2400 C.2   103  ASP103      0.3668
    109  OD1      -23.0870   -3.3910   68.4060 O.co2 103  ASP103     -0.2456
    110  OD2      -24.5650   -4.9290   68.9330 O.co2 103  ASP103     -0.2456
    111  N        -21.6380   -3.3230   73.3620 N.am  104  ILE104     -0.1980
    112  CA       -21.7710   -2.8710   74.7480 C.3   104  ILE104      0.1595
    113  C        -20.9120   -1.6390   74.9830 C.2   104  ILE104      0.2287
    114  O        -21.2870   -0.7490   75.7620 O.2   104  ILE104     -0.2864
    115  CB       -21.4260   -4.0120   75.7310 C.3   104  ILE104      0.0276
    116  CG1      -21.7840   -3.6190   77.1640 C.3   104  ILE104      0.0022
    117  CG2      -19.9530   -4.3890   75.6580 C.3   104  ILE104      0.0022
    118  CD1      -23.2590   -3.4860   77.3770 C.3   104  ILE104      0.0001
    119  N        -22.6290    1.3780   73.7390 N.3   107  MET107     -0.1245
    120  CA       -23.6310    1.7950   74.7210 C.3   107  MET107      0.1570
    121  C        -22.9980    2.5930   75.8530 C.2   107  MET107      0.2261
    122  O        -23.5050    3.6550   76.2350 O.2   107  MET107     -0.2867
    123  CB       -24.3680    0.5730   75.2680 C.3   107  MET107      0.0387
    124  CG       -25.1790   -0.1070   74.2150 C.3   107  MET107      0.0595
    125  SD       -25.8810   -1.6580   74.7640 S.3   107  MET107     -0.1393
    126  CE       -27.3600   -1.1100   75.5200 C.3   107  MET107      0.0692
@<TRIPOS>BOND
     1   109   108   ar
     2   110   108   ar
     3   108   107    1
     4   103   104    1
     5   107   104    1
     6   104   105    1
     7   105   106    2
     8   105   111   am
     9   111   112    1
    10   119   120    1
    11   124   125    1
    12   124   123    1
    13   120   123    1
    14   120   121    1
    15   112   113    1
    16   112   115    1
    17   125   126    1
    18   113   114    2
    19    97    98    2
    20    97    96    1
    21   117   115    1
    22   115   116    1
    23   121   122    2
    24    99    96    1
    25    99   100    1
    26    12    14   ar
    27    12    10   ar
    28    96    95    1
    29     9    10   ar
    30     9     7   ar
    31   101   100    2
    32    14    13   ar
    33   100   102   am
    34    10     8   ar
    35   116   118    1
    36     7     6   ar
    37    95    85   am
    38    86    85    2
    39    13    11   ar
    40     8     6   ar
    41     8    11   ar
    42    85    84    1
    43     6     5    1
    44    20    21    1
    45    20    19    1
    46    80    79    2
    47    82    81    1
    48    21    15    1
    49    64    62    1
    50    92    90   ar
    51    92    93   ar
    52    79    78    1
    53    52    51    2
    54    31    32   ar
    55    31    29   ar
    56    90    88   ar
    57    94    93    1
    58    32    30   ar
    59    19    16    1
    60    93    91   ar
    61    84    83    1
    62    84    87    1
    63     5     2    1
    64    81    78    1
    65     1     2    1
    66    88    87    1
    67    88    89   ar
    68    15    16    1
    69    15     3   am
    70    78    77    1
    71    62    63    1
    72    62    61    1
    73    56    54    1
    74    51    50    1
    75    29    27   ar
    76    91    89   ar
    77     2     3    1
    78    16    17    1
    79    30    28   ar
    80     3     4    2
    81    50    53    1
    82    50    49    1
    83    58    57    1
    84    58    61    1
    85    58    59    1
    86    53    54    1
    87    54    55    1
    88    27    28   ar
    89    27    26    1
    90    17    22   am
    91    17    18    2
    92    22    23    1
    93    59    60    2
    94    26    23    1
    95    71    73   ar
    96    71    70   ar
    97    73    75   ar
    98    23    24    1
    99    65    66    1
   100    66    69    1
   101    66    67    1
   102    69    70    1
   103    41    39   am
   104    70    72   ar
   105    47    46    1
   106    75    76    1
   107    75    74   ar
   108    48    46    1
   109    24    25    2
   110    68    67    2
   111    39    40    2
   112    39    38    1
   113    46    43    1
   114    72    74   ar
   115    43    44    1
   116    43    42    1
   117    38    37    1
   118    44    45    2
   119    36    35    2
   120    33    34    1
   121    37    34    1
   122    35    34    1
