@<TRIPOS>MOLECULE
tmp/5h22A00.pdb
 164 155 0 0 0
SMALL
GASTEIGER

@<TRIPOS>ATOM
      1  N        -17.0320  -18.8670  -25.9420 N.3     7  PHE7       -0.1241
      2  CA       -17.2180  -17.5510  -25.3470 C.3     7  PHE7        0.1605
      3  C        -15.8770  -16.8250  -25.3050 C.2     7  PHE7        0.2264
      4  O        -14.8140  -17.4430  -25.2190 O.2     7  PHE7       -0.2867
      5  CB       -17.7040  -17.6780  -23.9000 C.3     7  PHE7        0.0534
      6  CG       -19.1240  -18.1470  -23.7560 C.ar    7  PHE7       -0.0203
      7  CD1      -20.1830  -17.3020  -24.0390 C.ar    7  PHE7       -0.0042
      8  CD2      -19.3920  -19.4150  -23.2840 C.ar    7  PHE7       -0.0042
      9  CE1      -21.5000  -17.7290  -23.8800 C.ar    7  PHE7       -0.0003
     10  CE2      -20.7140  -19.8620  -23.1300 C.ar    7  PHE7       -0.0003
     11  CZ       -21.7650  -19.0010  -23.4290 C.ar    7  PHE7       -0.0000
     12  N        -34.3370  -11.6840  -16.1550 N.3    33  LEU33      -0.1245
     13  CA       -34.8910  -12.1710  -17.4140 C.3    33  LEU33       0.1561
     14  C        -36.1720  -11.4290  -17.7810 C.2    33  LEU33       0.2260
     15  O        -36.4090  -11.1360  -18.9570 O.2    33  LEU33      -0.2867
     16  CB       -35.1220  -13.6810  -17.3370 C.3    33  LEU33       0.0270
     17  CG       -33.8400  -14.5030  -17.1330 C.3    33  LEU33       0.0019
     18  CD1      -34.2350  -15.9690  -16.9700 C.3    33  LEU33       0.0001
     19  CD2      -32.8820  -14.3140  -18.3050 C.3    33  LEU33       0.0001
     20  N        -35.1350   -8.0980  -19.2340 N.3    36  ASN36      -0.1225
     21  CA       -34.7190   -8.2420  -20.6270 C.3    36  ASN36       0.1785
     22  C        -35.9220   -8.3790  -21.5530 C.2    36  ASN36       0.2597
     23  O        -35.9310   -7.8200  -22.6540 O.2    36  ASN36      -0.2718
     24  CB       -33.8130   -9.4640  -20.7840 C.3    36  ASN36       0.1169
     25  CG       -32.4740   -9.2920  -20.1090 C.2    36  ASN36       0.2627
     26  OD1      -32.0970   -8.1890  -19.6940 O.2    36  ASN36      -0.2716
     27  ND2      -31.7340  -10.3840  -20.0110 N.am   36  ASN36      -0.0877
     28  N        -36.9220   -9.1570  -21.1450 N.am   37  SER37      -0.1952
     29  CA       -38.1140   -9.3250  -21.9720 C.3    37  SER37       0.1924
     30  C        -38.8450   -8.0040  -22.1350 C.2    37  SER37       0.2314
     31  O        -39.2760   -7.6580  -23.2420 O.2    37  SER37      -0.2863
     32  CB       -39.0390  -10.3550  -21.3290 C.3    37  SER37       0.2116
     33  OG       -38.5250  -11.6600  -21.4650 O.3    37  SER37      -0.2180
     34  N        -37.0730   -5.9270  -24.6240 N.3    40  ALA40      -0.1245
     35  CA       -37.2700   -6.4180  -25.9820 C.3    40  ALA40       0.1562
     36  C        -38.6550   -6.0670  -26.4980 C.2    40  ALA40       0.2260
     37  O        -38.8340   -5.8440  -27.7010 O.2    40  ALA40      -0.2867
     38  CB       -37.0860   -7.9370  -26.0110 C.3    40  ALA40       0.0290
     39  N        -41.2340  -14.2670  -24.2980 N.3    78  ASP78      -0.1239
     40  CA       -41.7470  -12.9500  -24.6380 C.3    78  ASP78       0.1674
     41  C        -41.9900  -12.8710  -26.1360 C.2    78  ASP78       0.2266
     42  O        -41.4250  -13.6360  -26.9190 O.2    78  ASP78      -0.2867
     43  CB       -40.8300  -11.8060  -24.1710 C.3    78  ASP78       0.1410
     44  CG       -39.4880  -11.8070  -24.8750 C.2    78  ASP78       0.3668
     45  OD1      -39.4390  -11.4960  -26.0860 O.co2  78  ASP78      -0.2456
     46  OD2      -38.4720  -12.1250  -24.2180 O.co2  78  ASP78      -0.2456
     47  N        -38.6240   -8.1850  -29.5890 N.3    81  ILE81      -0.1231
     48  CA       -37.9670   -8.0520  -30.8820 C.3    81  ILE81       0.1692
     49  C        -37.2230   -9.3150  -31.3190 C.2    81  ILE81       0.2593
     50  O        -37.0240   -9.5270  -32.5230 O.2    81  ILE81      -0.2718
     51  CB       -37.0550   -6.8100  -30.8800 C.3    81  ILE81       0.0266
     52  CG1      -36.5940   -6.5240  -32.3100 C.3    81  ILE81       0.0019
     53  CG2      -35.8820   -7.0230  -29.9350 C.3    81  ILE81       0.0020
     54  CD1      -36.3210   -5.0930  -32.6180 C.3    81  ILE81       0.0001
     55  N        -36.8010  -10.1710  -30.3870 N.am   82  GLY82      -0.1942
     56  CA       -36.0160  -11.3340  -30.7720 C.3    82  GLY82       0.2014
     57  C        -34.5720  -10.9830  -31.0990 C.2    82  GLY82       0.2638
     58  O        -34.1490   -9.8280  -31.0550 O.2    82  GLY82      -0.2714
     59  N        -33.7930  -12.0210  -31.4250 N.am   83  MET83      -0.1976
     60  CA       -32.3680  -11.8830  -31.7110 C.3    83  MET83       0.1605
     61  C        -32.0320  -12.4940  -33.0620 C.2    83  MET83       0.2287
     62  O        -32.5420  -13.5630  -33.4180 O.2    83  MET83      -0.2864
     63  CB       -31.5310  -12.5750  -30.6380 C.3    83  MET83       0.0413
     64  CG       -31.5140  -11.8120  -29.3160 C.3    83  MET83       0.0598
     65  SD       -30.9410  -12.7530  -27.8970 S.3    83  MET83      -0.1393
     66  CE       -32.3010  -13.8800  -27.6860 C.3    83  MET83       0.0692
     67  N        -26.6340  -11.4190  -33.6270 N.3    87  ASP87      -0.1225
     68  CA       -26.7100  -11.1690  -32.1890 C.3    87  ASP87       0.1805
     69  C        -26.1600  -12.3550  -31.4160 C.2    87  ASP87       0.2597
     70  O        -25.3330  -12.2020  -30.5090 O.2    87  ASP87      -0.2718
     71  CB       -28.1630  -10.9510  -31.7520 C.3    87  ASP87       0.1424
     72  CG       -28.7250   -9.6040  -32.1620 C.2    87  ASP87       0.3668
     73  OD1      -27.9490   -8.6430  -32.3580 O.co2  87  ASP87      -0.2456
     74  OD2      -29.9720   -9.5150  -32.2770 O.co2  87  ASP87      -0.2456
     75  N        -26.6280  -13.5560  -31.7560 N.am   88  LEU88      -0.1979
     76  CA       -26.2640  -14.7410  -30.9830 C.3    88  LEU88       0.1596
     77  C        -24.7690  -15.0160  -31.0560 C.2    88  LEU88       0.2287
     78  O        -24.1370  -15.3370  -30.0440 O.2    88  LEU88      -0.2864
     79  CB       -27.0460  -15.9430  -31.5110 C.3    88  LEU88       0.0297
     80  CG       -28.5560  -15.8940  -31.2730 C.3    88  LEU88       0.0022
     81  CD1      -29.2100  -17.1100  -31.9400 C.3    88  LEU88       0.0001
     82  CD2      -28.8940  -15.8700  -29.7970 C.3    88  LEU88       0.0001
     83  N        -22.9380  -10.0830  -31.5120 N.3    91  ASN91      -0.1225
     84  CA       -23.2830   -8.7930  -30.9170 C.3    91  ASN91       0.1785
     85  C        -23.5020   -8.8980  -29.4170 C.2    91  ASN91       0.2597
     86  O        -23.1630   -7.9680  -28.6760 O.2    91  ASN91      -0.2718
     87  CB       -24.5230   -8.1850  -31.5780 C.3    91  ASN91       0.1169
     88  CG       -24.3450   -7.9600  -33.0630 C.2    91  ASN91       0.2627
     89  OD1      -23.2250   -7.7880  -33.5490 O.2    91  ASN91      -0.2716
     90  ND2      -25.4580   -7.9620  -33.7960 N.am   91  ASN91      -0.0877
     91  N        -24.1190   -9.9890  -28.9550 N.am   92  LEU92      -0.1980
     92  CA       -24.3030  -10.1740  -27.5180 C.3    92  LEU92       0.1596
     93  C        -22.9690  -10.1010  -26.8000 C.2    92  LEU92       0.2287
     94  O        -22.8320   -9.4050  -25.7870 O.2    92  LEU92      -0.2864
     95  CB       -24.9530  -11.5330  -27.2410 C.3    92  LEU92       0.0297
     96  CG       -26.4420  -11.6660  -27.5590 C.3    92  LEU92       0.0022
     97  CD1      -26.8670  -13.1370  -27.5080 C.3    92  LEU92       0.0001
     98  CD2      -27.2620  -10.8420  -26.5860 C.3    92  LEU92       0.0001
     99  N        -21.3630   -6.4550  -26.8470 N.3    95  ILE95      -0.1245
    100  CA       -21.9710   -5.5140  -25.9180 C.3    95  ILE95       0.1561
    101  C        -21.6410   -5.8970  -24.4840 C.2    95  ILE95       0.2260
    102  O        -21.4200   -5.0280  -23.6320 O.2    95  ILE95      -0.2867
    103  CB       -23.4920   -5.4260  -26.1620 C.3    95  ILE95       0.0252
    104  CG1      -23.7860   -4.8810  -27.5630 C.3    95  ILE95       0.0019
    105  CG2      -24.1580   -4.5740  -25.0940 C.3    95  ILE95       0.0019
    106  CD1      -23.1880   -3.5160  -27.8270 C.3    95  ILE95       0.0001
    107  N        -28.6660  -11.4360  -17.8900 N.3   123  PHE123     -0.1227
    108  CA       -29.0000  -12.7620  -18.4250 C.3   123  PHE123      0.1736
    109  C        -28.1770  -13.8660  -17.7700 C.2   123  PHE123      0.2595
    110  O        -28.6970  -14.9490  -17.4620 O.2   123  PHE123     -0.2718
    111  CB       -28.7840  -12.8030  -19.9400 C.3   123  PHE123      0.0547
    112  CG       -28.8180  -14.1930  -20.5160 C.ar  123  PHE123     -0.0202
    113  CD1      -30.0210  -14.7750  -20.8630 C.ar  123  PHE123     -0.0042
    114  CD2      -27.6430  -14.9230  -20.6910 C.ar  123  PHE123     -0.0042
    115  CE1      -30.0710  -16.0590  -21.3870 C.ar  123  PHE123     -0.0003
    116  CE2      -27.6820  -16.2160  -21.2020 C.ar  123  PHE123     -0.0003
    117  CZ       -28.8970  -16.7890  -21.5470 C.ar  123  PHE123     -0.0000
    118  N        -26.8800  -13.6240  -17.5770 N.am  124  TYR124     -0.1976
    119  CA       -26.0100  -14.6940  -17.1050 C.3   124  TYR124      0.1639
    120  C        -26.3090  -15.1120  -15.6700 C.2   124  TYR124      0.2290
    121  O        -25.8460  -16.1850  -15.2510 O.2   124  TYR124     -0.2864
    122  CB       -24.5380  -14.3100  -17.3290 C.3   124  TYR124      0.0560
    123  CG       -24.2190  -14.0620  -18.7980 C.ar  124  TYR124     -0.0198
    124  CD1      -23.8990  -15.1040  -19.6630 C.ar  124  TYR124     -0.0009
    125  CD2      -24.2890  -12.7810  -19.3260 C.ar  124  TYR124     -0.0009
    126  CE1      -23.6220  -14.8510  -21.0170 C.ar  124  TYR124      0.0417
    127  CE2      -24.0180  -12.5250  -20.6620 C.ar  124  TYR124      0.0417
    128  CZ       -23.6960  -13.5570  -21.5020 C.ar  124  TYR124      0.1957
    129  OH       -23.4350  -13.2540  -22.8330 O.3   124  TYR124     -0.2866
    130  N        -32.0470  -21.1500  -25.4680 N.3   135  VAL135     -0.1245
    131  CA       -32.7430  -19.9310  -25.8770 C.3   135  VAL135      0.1561
    132  C        -33.2500  -20.1240  -27.2970 C.2   135  VAL135      0.2260
    133  O        -32.4620  -20.3600  -28.2150 O.2   135  VAL135     -0.2867
    134  CB       -31.8350  -18.6990  -25.7820 C.3   135  VAL135      0.0252
    135  CG1      -32.6060  -17.4650  -26.2650 C.3   135  VAL135      0.0019
    136  CG2      -31.3640  -18.4980  -24.3510 C.3   135  VAL135      0.0019
    137  N        -30.1120  -21.3090  -29.3300 N.3   147  TRP147     -0.1241
    138  CA       -28.8170  -21.1210  -28.6920 C.3   147  TRP147      0.1605
    139  C        -28.8050  -21.9670  -27.4260 C.2   147  TRP147      0.2264
    140  O        -29.8310  -22.1210  -26.7670 O.2   147  TRP147     -0.2867
    141  CB       -28.6890  -19.6310  -28.3270 C.3   147  TRP147      0.0550
    142  CG       -27.4820  -19.1720  -27.5430 C.ar  147  TRP147      0.0003
    143  CD1      -26.4080  -18.4690  -28.0320 C.ar  147  TRP147      0.0946
    144  CD2      -27.2500  -19.3180  -26.1310 C.ar  147  TRP147      0.0152
    145  NE1      -25.5260  -18.1720  -27.0140 N.ar  147  TRP147     -0.2442
    146  CE2      -26.0160  -18.6890  -25.8430 C.ar  147  TRP147      0.0810
    147  CE3      -27.9680  -19.9120  -25.0820 C.ar  147  TRP147      0.0012
    148  CZ2      -25.4870  -18.6410  -24.5560 C.ar  147  TRP147      0.0191
    149  CZ3      -27.4330  -19.8690  -23.8020 C.ar  147  TRP147      0.0001
    150  CH2      -26.2090  -19.2350  -23.5530 C.ar  147  TRP147      0.0015
    151  N        -38.5830  -14.3360  -27.9190 N.3   169  THR169     -0.1218
    152  CA       -37.5340  -15.1490  -27.3110 C.3   169  THR169      0.1862
    153  C        -38.1220  -16.0280  -26.2160 C.2   169  THR169      0.2287
    154  O        -38.9850  -15.5900  -25.4480 O.2   169  THR169     -0.2866
    155  CB       -36.4390  -14.2390  -26.7330 C.3   169  THR169      0.1770
    156  OG1      -35.8620  -13.4600  -27.7850 O.3   169  THR169     -0.2211
    157  CG2      -35.3300  -15.0490  -26.0470 C.3   169  THR169      0.0375
    158  N        -36.5140  -18.2480  -23.1130 N.3   171  VAL171     -0.1245
    159  CA       -35.3560  -18.6500  -22.3250 C.3   171  VAL171      0.1561
    160  C        -35.7780  -19.8600  -21.5000 C.2   171  VAL171      0.2260
    161  O        -36.6090  -19.7390  -20.5940 O.2   171  VAL171     -0.2867
    162  CB       -34.8690  -17.5190  -21.4140 C.3   171  VAL171      0.0252
    163  CG1      -33.7360  -18.0210  -20.5290 C.3   171  VAL171      0.0019
    164  CG2      -34.4190  -16.2970  -22.2200 C.3   171  VAL171      0.0019
@<TRIPOS>BOND
     1    90    88   am
     2    67    68    1
     3    89    88    2
     4    62    61    2
     5    88    87    1
     6    61    60    1
     7    54    52    1
     8    50    49    2
     9    73    72   ar
    10    52    51    1
    11    74    72   ar
    12    68    71    1
    13    68    69    1
    14    72    71    1
    15    81    80    1
    16    75    69   am
    17    75    76    1
    18    60    59    1
    19    60    63    1
    20    87    84    1
    21    83    84    1
    22    79    80    1
    23    79    76    1
    24    59    57   am
    25    69    70    2
    26    49    48    1
    27    49    55   am
    28    80    82    1
    29    57    58    2
    30    57    56    1
    31    77    76    1
    32    77    78    2
    33    84    85    1
    34    48    51    1
    35    48    47    1
    36    51    53    1
    37    56    55    1
    38    63    64    1
    39    85    91   am
    40    85    86    2
    41   137   138    1
    42    64    65    1
    43    91    92    1
    44   138   141    1
    45   138   139    1
    46   141   142    1
    47   133   132    2
    48   143   142   ar
    49   143   145   ar
    50   151   152    1
    51    65    66    1
    52   106   104    1
    53   156   155    1
    54    37    36    2
    55   104   103    1
    56    96    97    1
    57    96    95    1
    58    96    98    1
    59   142   144   ar
    60    92    95    1
    61    92    93    1
    62   139   140    2
    63   152   155    1
    64   152   153    1
    65   132   131    1
    66   145   146   ar
    67    42    41    2
    68    99   100    1
    69    93    94    2
    70   155   157    1
    71    36    35    1
    72   135   134    1
    73   153   154    2
    74   103   100    1
    75   103   105    1
    76    41    40    1
    77   144   146   ar
    78   144   147   ar
    79    45    44   ar
    80    38    35    1
    81    35    34    1
    82     1     2    1
    83   100   101    1
    84   131   134    1
    85   131   130    1
    86   146   148   ar
    87   134   136    1
    88     2     3    1
    89     2     5    1
    90     3     4    2
    91   147   149   ar
    92    44    46   ar
    93    44    43    1
    94    40    39    1
    95    40    43    1
    96   148   150   ar
    97   101   102    2
    98     7     9   ar
    99     7     6   ar
   100     5     6    1
   101     9    11   ar
   102   149   150   ar
   103     6     8   ar
   104    11    10   ar
   105     8    10   ar
   106    31    30    2
   107   158   159    1
   108   129   128    1
   109    23    22    2
   110   159   160    1
   111   159   162    1
   112   164   162    1
   113    30    29    1
   114    29    32    1
   115    29    28    1
   116    22    28   am
   117    22    21    1
   118   117   115   ar
   119   117   116   ar
   120   128   126   ar
   121   128   127   ar
   122   160   161    2
   123    33    32    1
   124   162   163    1
   125   115   113   ar
   126   116   114   ar
   127   126   124   ar
   128   113   112   ar
   129    24    21    1
   130    24    25    1
   131   114   112   ar
   132   127   125   ar
   133    21    20    1
   134   112   111    1
   135    25    27   am
   136    25    26    2
   137   111   108    1
   138   124   123   ar
   139   125   123   ar
   140    15    14    2
   141   123   122    1
   142   108   107    1
   143   108   109    1
   144    19    17    1
   145    14    13    1
   146   109   118   am
   147   109   110    2
   148   118   119    1
   149    13    16    1
   150    13    12    1
   151    16    17    1
   152   122   119    1
   153    17    18    1
   154   119   120    1
   155   120   121    2
