@<TRIPOS>MOLECULE
tmp/5h24A00.pdb
 113 108 0 0 0
SMALL
GASTEIGER

@<TRIPOS>ATOM
      1  N         34.5280   79.9360    0.9330 N.3    21  PHE21      -0.1241
      2  CA        33.6150   79.1690    0.1040 C.3    21  PHE21       0.1605
      3  C         32.7500   78.2130    0.8510 C.2    21  PHE21       0.2264
      4  O         31.6200   77.9690    0.4150 O.2    21  PHE21      -0.2867
      5  CB        34.3900   78.4440   -1.0220 C.3    21  PHE21       0.0534
      6  CG        34.9000   79.4220   -2.0570 C.ar   21  PHE21      -0.0203
      7  CD1       34.0750   80.4380   -2.5480 C.ar   21  PHE21      -0.0042
      8  CD2       36.2080   79.3620   -2.5040 C.ar   21  PHE21      -0.0042
      9  CE1       34.5590   81.3720   -3.4670 C.ar   21  PHE21      -0.0003
     10  CE2       36.6770   80.2690   -3.4600 C.ar   21  PHE21      -0.0003
     11  CZ        35.8520   81.2720   -3.9320 C.ar   21  PHE21      -0.0000
     12  N         37.3020   74.3730   -1.6580 N.3    72  TYR72      -0.1241
     13  CA        35.9360   74.7400   -2.0200 C.3    72  TYR72       0.1605
     14  C         34.9580   74.1190   -1.0670 C.2    72  TYR72       0.2264
     15  O         33.7900   74.5310   -1.0370 O.2    72  TYR72      -0.2867
     16  CB        35.6090   74.2510   -3.4400 C.3    72  TYR72       0.0534
     17  CG        36.4360   74.8830   -4.5320 C.ar   72  TYR72      -0.0201
     18  CD1       36.8630   76.2090   -4.4350 C.ar   72  TYR72      -0.0009
     19  CD2       36.7760   74.1690   -5.6730 C.ar   72  TYR72      -0.0009
     20  CE1       37.5830   76.8130   -5.4580 C.ar   72  TYR72       0.0417
     21  CE2       37.5200   74.7580   -6.6970 C.ar   72  TYR72       0.0417
     22  CZ        37.9170   76.0830   -6.5850 C.ar   72  TYR72       0.1957
     23  OH        38.6660   76.6640   -7.5770 O.3    72  TYR72      -0.2866
     24  N         34.2860   69.8700   -6.1660 N.3   118  ASN118     -0.1225
     25  CA        33.2770   70.8630   -5.7660 C.3   118  ASN118      0.1785
     26  C         32.5990   70.5500   -4.4480 C.2   118  ASN118      0.2597
     27  O         32.2410   71.4640   -3.7110 O.2   118  ASN118     -0.2718
     28  CB        32.2470   71.0220   -6.8770 C.3   118  ASN118      0.1169
     29  CG        32.7300   71.9260   -7.9790 C.2   118  ASN118      0.2627
     30  OD1       33.4520   72.9010   -7.7490 O.2   118  ASN118     -0.2716
     31  ND2       32.3270   71.6590   -9.1930 N.am  118  ASN118     -0.0877
     32  N         32.4090   69.2600   -4.1470 N.am  119  GLU119     -0.1979
     33  CA        31.6930   68.8620   -2.9410 C.3   119  GLU119      0.1602
     34  C         32.2380   67.5870   -2.3750 C.2   119  GLU119      0.2287
     35  O         32.6110   66.7140   -3.1400 O.2   119  GLU119     -0.2864
     36  CB        30.1790   68.6980   -3.2570 C.3   119  GLU119      0.0415
     37  CG        29.2240   68.6830   -2.0740 C.3   119  GLU119      0.1163
     38  CD        29.0390   70.0060   -1.3650 C.2   119  GLU119      0.3649
     39  OE1       29.8740   70.3350   -0.4910 O.co2 119  GLU119     -0.2457
     40  OE2       28.0480   70.7070   -1.6730 O.co2 119  GLU119     -0.2457
     41  N         34.8480   68.3160  -11.3140 N.3   135  LYS135     -0.1245
     42  CA        34.8510   68.9810  -12.6010 C.3   135  LYS135      0.1561
     43  C         35.1830   67.9960  -13.7260 C.2   135  LYS135      0.2260
     44  O         34.8870   68.2730  -14.8870 O.2   135  LYS135     -0.2867
     45  CB        35.8410   70.1450  -12.5800 C.3   135  LYS135      0.0271
     46  CG        35.2780   71.3660  -11.8620 C.3   135  LYS135      0.0035
     47  CD        36.0780   72.6370  -12.1690 C.3   135  LYS135      0.0206
     48  CE        35.8930   73.6700  -11.0870 C.3   135  LYS135      0.1093
     49  NZ        36.0720   75.0560  -11.5970 N.3   135  LYS135     -0.1314
     50  N         28.5970   69.5760   -9.8070 N.3   164  LEU164     -0.1231
     51  CA        28.5870   70.7000   -8.8880 C.3   164  LEU164      0.1693
     52  C         28.1900   70.3370   -7.4620 C.2   164  LEU164      0.2592
     53  O         28.8290   70.8160   -6.5180 O.2   164  LEU164     -0.2718
     54  CB        27.7120   71.8390   -9.4610 C.3   164  LEU164      0.0284
     55  CG        28.1540   72.3400  -10.8620 C.3   164  LEU164      0.0019
     56  CD1       27.1520   73.2980  -11.4650 C.3   164  LEU164      0.0001
     57  CD2       29.4960   73.0050  -10.8110 C.3   164  LEU164      0.0001
     58  N         27.1930   69.4690   -7.2990 N.am  165  SER165     -0.1952
     59  CA        26.7580   69.0340   -5.9730 C.3   165  SER165      0.1924
     60  C         26.2030   67.6460   -5.9930 C.2   165  SER165      0.2314
     61  O         25.9290   67.0880   -7.0590 O.2   165  SER165     -0.2863
     62  CB        25.6940   69.9770   -5.4000 C.3   165  SER165      0.2116
     63  OG        25.4670   69.7170   -4.0220 O.3   165  SER165     -0.2180
     64  N         23.8400   73.9310   -9.4130 N.3   234  ASP234     -0.1239
     65  CA        24.9940   74.0350   -8.5140 C.3   234  ASP234      0.1674
     66  C         24.7450   73.5470   -7.0510 C.2   234  ASP234      0.2266
     67  O         25.6830   73.5370   -6.2430 O.2   234  ASP234     -0.2867
     68  CB        25.5530   75.4800   -8.5370 C.3   234  ASP234      0.1410
     69  CG        24.6830   76.5670   -7.9050 C.2   234  ASP234      0.3668
     70  OD1       23.4430   76.3490   -7.7790 O.co2 234  ASP234     -0.2456
     71  OD2       25.2400   77.6510   -7.5420 O.co2 234  ASP234     -0.2456
     72  N         27.9610   78.9450   -7.8030 N.3   289  TYR289     -0.1227
     73  CA        28.5760   78.4640   -6.5530 C.3   289  TYR289      0.1736
     74  C         28.0350   79.1680   -5.2930 C.2   289  TYR289      0.2595
     75  O         28.7730   79.8040   -4.5330 O.2   289  TYR289     -0.2718
     76  CB        30.1250   78.5020   -6.6070 C.3   289  TYR289      0.0548
     77  CG        30.7710   77.9250   -7.8560 C.ar  289  TYR289     -0.0200
     78  CD1       30.6420   76.5740   -8.1730 C.ar  289  TYR289     -0.0009
     79  CD2       31.5800   78.7110   -8.6720 C.ar  289  TYR289     -0.0009
     80  CE1       31.2860   76.0260   -9.2860 C.ar  289  TYR289      0.0417
     81  CE2       32.2150   78.1780   -9.7980 C.ar  289  TYR289      0.0417
     82  CZ        32.0610   76.8350  -10.1080 C.ar  289  TYR289      0.1957
     83  OH        32.7180   76.3070  -11.2000 O.3   289  TYR289     -0.2866
     84  N         26.7320   79.0160   -5.0770 N.am  290  MET290     -0.1965
     85  CA        25.9820   79.5440   -3.9330 C.3   290  MET290      0.1736
     86  C         25.1400   78.3580   -3.4850 C.2   290  MET290      0.2616
     87  O         24.2860   77.9060   -4.2460 O.2   290  MET290     -0.2715
     88  CB        25.0750   80.7250   -4.3450 C.3   290  MET290      0.0427
     89  CG        25.8180   81.8790   -4.9970 C.3   290  MET290      0.0599
     90  SD        26.8040   82.8900   -3.8640 S.3   290  MET290     -0.1393
     91  CE        25.5440   83.8950   -3.1670 C.3   290  MET290      0.0692
     92  N         25.4530   77.8060   -2.2930 N.am  291  ARG291     -0.1977
     93  CA        24.8390   76.6080   -1.7290 C.3   291  ARG291      0.1597
     94  C         23.8260   76.9200   -0.6770 C.2   291  ARG291      0.2287
     95  O         24.0180   77.8370    0.1210 O.2   291  ARG291     -0.2864
     96  CB        25.8860   75.6750   -1.0980 C.3   291  ARG291      0.0334
     97  CG        26.9090   75.1130   -2.0400 C.3   291  ARG291      0.0492
     98  CD        28.2620   75.3590   -1.4140 C.3   291  ARG291      0.2205
     99  NE        29.0890   74.1590   -1.4200 N.pl3 291  ARG291     -0.0865
    100  CZ        30.3930   74.1470   -1.1750 C.cat 291  ARG291      0.5346
    101  NH1       31.0330   75.2750   -0.8770 N.pl3 291  ARG291      0.1354
    102  NH2       31.0710   73.0050   -1.2210 N.pl3 291  ARG291      0.1354
    103  N         28.5280   82.6700    0.3610 N.3   338  ARG338     -0.1245
    104  CA        28.8160   81.4160   -0.3290 C.3   338  ARG338      0.1563
    105  C         28.1470   80.1950    0.2760 C.2   338  ARG338      0.2260
    106  O         27.6230   79.3610   -0.4650 O.2   338  ARG338     -0.2867
    107  CB        30.3160   81.2120   -0.4330 C.3   338  ARG338      0.0307
    108  CG        31.0050   82.2450   -1.3210 C.3   338  ARG338      0.0489
    109  CD        30.7110   81.9440   -2.7720 C.3   338  ARG338      0.2205
    110  NE        31.1090   83.0530   -3.6190 N.pl3 338  ARG338     -0.0865
    111  CZ        30.8460   83.1440   -4.9140 C.cat 338  ARG338      0.5346
    112  NH1       31.2540   84.2000   -5.6050 N.pl3 338  ARG338      0.1354
    113  NH2       30.1540   82.1900   -5.5270 N.pl3 338  ARG338      0.1354
@<TRIPOS>BOND
     1    44    43    2
     2    43    42    1
     3    42    45    1
     4    42    41    1
     5    45    46    1
     6    47    46    1
     7    47    48    1
     8    49    48    1
     9    56    55    1
    10    83    82    1
    11    55    57    1
    12    55    54    1
    13    82    81   ar
    14    82    80   ar
    15    50    51    1
    16    81    79   ar
    17    54    51    1
    18    64    65    1
    19    80    78   ar
    20    31    29   am
    21    51    52    1
    22    79    77   ar
    23    68    65    1
    24    68    69    1
    25    65    66    1
    26    78    77   ar
    27    29    30    2
    28    29    28    1
    29    69    70   ar
    30    69    71   ar
    31    77    76    1
    32    72    73    1
    33    23    22    1
    34    52    58   am
    35    52    53    2
    36    58    59    1
    37    61    60    2
    38    66    67    2
    39    28    25    1
    40    21    22   ar
    41    21    19   ar
    42    76    73    1
    43    22    20   ar
    44    73    74    1
    45    24    25    1
    46    60    59    1
    47    59    62    1
    48    25    26    1
    49    19    17   ar
    50   112   111    1
    51   113   111    1
    52    20    18   ar
    53    62    63    1
    54    74    84   am
    55    74    75    2
    56    84    85    1
    57    89    88    1
    58    89    90    1
    59   111   110    2
    60    17    18   ar
    61    17    16    1
    62    26    32   am
    63    26    27    2
    64    88    85    1
    65    87    86    2
    66    32    33    1
    67    85    86    1
    68    11     9   ar
    69    11    10   ar
    70    90    91    1
    71   110   109    1
    72    86    92   am
    73     9     7   ar
    74    10     8   ar
    75    16    13    1
    76    36    33    1
    77    36    37    1
    78    35    34    2
    79    33    34    1
    80   109   108    1
    81     7     6   ar
    82     8     6   ar
    83    92    93    1
    84    37    38    1
    85     6     5    1
    86    97    98    1
    87    97    96    1
    88    13    12    1
    89    13    14    1
    90    93    96    1
    91    93    94    1
    92    40    38   ar
    93    99    98    1
    94    99   100    2
    95    38    39   ar
    96   108   107    1
    97   102   100    1
    98   100   101    1
    99    14    15    2
   100     5     2    1
   101    94    95    2
   102   106   105    2
   103   107   104    1
   104   104   105    1
   105   104   103    1
   106     2     3    1
   107     2     1    1
   108     4     3    2
