@<TRIPOS>MOLECULE
tmp/5h25A00.pdb
 119 110 0 0 0
SMALL
GASTEIGER

@<TRIPOS>ATOM
      1  N         37.7570   85.1330   -0.6060 N.3    19  PRO19      -0.2116
      2  CA        36.4080   84.5610   -0.4270 C.3    19  PRO19       0.1372
      3  C         36.3330   83.2520    0.3770 C.2    19  PRO19       0.2244
      4  O         37.2020   82.3640    0.2650 O.2    19  PRO19      -0.2868
      5  CB        35.9240   84.3360   -1.8740 C.3    19  PRO19       0.0268
      6  CG        36.6890   85.3010   -2.6800 C.3    19  PRO19       0.0207
      7  CD        38.0380   85.4080   -2.0310 C.3    19  PRO19       0.0892
      8  N         34.1340   80.0660    0.7480 N.3    21  PHE21      -0.1241
      9  CA        33.1450   79.3350   -0.0150 C.3    21  PHE21       0.1605
     10  C         32.2970   78.3890    0.7870 C.2    21  PHE21       0.2264
     11  O         31.1080   78.2730    0.4950 O.2    21  PHE21      -0.2867
     12  CB        33.7750   78.6020   -1.2060 C.3    21  PHE21       0.0534
     13  CG        34.5170   79.5220   -2.1470 C.ar   21  PHE21      -0.0203
     14  CD1       33.8320   80.4910   -2.8870 C.ar   21  PHE21      -0.0042
     15  CD2       35.9040   79.4280   -2.2880 C.ar   21  PHE21      -0.0042
     16  CE1       34.5230   81.3560   -3.7410 C.ar   21  PHE21      -0.0003
     17  CE2       36.5900   80.2840   -3.1500 C.ar   21  PHE21      -0.0003
     18  CZ        35.8990   81.2480   -3.8660 C.ar   21  PHE21      -0.0000
     19  N         42.5870   76.3990   -3.6950 N.3    70  ASN70      -0.1240
     20  CA        41.3960   77.1330   -3.3210 C.3    70  ASN70       0.1653
     21  C         40.3450   76.0770   -2.9160 C.2    70  ASN70       0.2266
     22  O         39.8450   75.3470   -3.7670 O.2    70  ASN70      -0.2867
     23  CB        40.9400   77.9790   -4.5010 C.3    70  ASN70       0.1155
     24  CG        39.9220   79.0300   -4.1850 C.2    70  ASN70       0.2627
     25  OD1       39.6990   79.4090   -3.0220 O.2    70  ASN70      -0.2716
     26  ND2       39.3010   79.5550   -5.2350 N.am   70  ASN70      -0.0877
     27  N         36.8560   74.4900   -1.6690 N.3    72  TYR72      -0.1241
     28  CA        35.4680   74.8920   -1.9490 C.3    72  TYR72       0.1605
     29  C         34.4550   74.2780   -0.9910 C.2    72  TYR72       0.2264
     30  O         33.3580   74.8050   -0.8000 O.2    72  TYR72      -0.2867
     31  CB        35.0590   74.4700   -3.3810 C.3    72  TYR72       0.0534
     32  CG        35.9050   74.9970   -4.5190 C.ar   72  TYR72      -0.0201
     33  CD1       36.3990   76.2990   -4.5020 C.ar   72  TYR72      -0.0009
     34  CD2       36.1150   74.2370   -5.6580 C.ar   72  TYR72      -0.0009
     35  CE1       37.1440   76.8060   -5.5620 C.ar   72  TYR72       0.0417
     36  CE2       36.8320   74.7400   -6.7390 C.ar   72  TYR72       0.0417
     37  CZ        37.3460   76.0300   -6.6890 C.ar   72  TYR72       0.1957
     38  OH        38.0640   76.5340   -7.7530 O.3    72  TYR72      -0.2866
     39  N         38.9880   69.6250  -10.3100 N.3   116  ALA116     -0.1245
     40  CA        38.4560   70.2600   -9.1140 C.3   116  ALA116      0.1562
     41  C         37.2990   69.4880   -8.4490 C.2   116  ALA116      0.2260
     42  O         36.5180   68.8190   -9.1390 O.2   116  ALA116     -0.2867
     43  CB        37.9940   71.6690   -9.4600 C.3   116  ALA116      0.0290
     44  N         33.9030   70.0340   -6.2170 N.3   118  ASN118     -0.1240
     45  CA        32.9030   71.0240   -5.8150 C.3   118  ASN118      0.1653
     46  C         32.1060   70.6670   -4.5650 C.2   118  ASN118      0.2266
     47  O         31.6310   71.5790   -3.8950 O.2   118  ASN118     -0.2867
     48  CB        31.9670   71.3200   -6.9780 C.3   118  ASN118      0.1155
     49  CG        32.6990   71.6380   -8.2630 C.2   118  ASN118      0.2627
     50  OD1       33.6530   72.4570   -8.3170 O.2   118  ASN118     -0.2716
     51  ND2       32.2830   70.9680   -9.3200 N.am  118  ASN118     -0.0877
     52  N         34.6510   68.2200  -11.4110 N.3   135  LYS135     -0.1245
     53  CA        34.6980   68.9870  -12.6380 C.3   135  LYS135      0.1561
     54  C         34.8300   67.9680  -13.7690 C.2   135  LYS135      0.2260
     55  O         34.3850   68.2460  -14.8800 O.2   135  LYS135     -0.2867
     56  CB        35.9330   69.8890  -12.6040 C.3   135  LYS135      0.0271
     57  CG        35.6930   71.3660  -12.8290 C.3   135  LYS135      0.0035
     58  CD        36.7580   71.9380  -13.7790 C.3   135  LYS135      0.0206
     59  CE        36.6120   73.4200  -14.0630 C.3   135  LYS135      0.1093
     60  NZ        37.2500   74.2770  -13.0220 N.3   135  LYS135     -0.1314
     61  N         30.6560   69.2840  -15.6860 N.3   162  GLU162     -0.1245
     62  CA        31.0400   69.3880  -14.2740 C.3   162  GLU162      0.1567
     63  C         29.8440   69.1140  -13.3680 C.2   162  GLU162      0.2260
     64  O         28.7820   69.6890  -13.6150 O.2   162  GLU162     -0.2867
     65  CB        31.6040   70.8040  -13.9830 C.3   162  GLU162      0.0388
     66  CG        32.7130   71.2050  -14.9560 C.3   162  GLU162      0.1160
     67  CD        33.2230   72.6410  -14.9950 C.2   162  GLU162      0.3649
     68  OE1       33.6330   73.0900  -16.0990 O.co2 162  GLU162     -0.2457
     69  OE2       33.2530   73.2970  -13.9220 O.co2 162  GLU162     -0.2457
     70  N         28.0970   69.6680   -9.8810 N.3   164  LEU164     -0.1245
     71  CA        28.2630   70.7750   -8.9060 C.3   164  LEU164      0.1561
     72  C         27.9070   70.3960   -7.4490 C.2   164  LEU164      0.2260
     73  O         28.6120   70.8360   -6.5280 O.2   164  LEU164     -0.2867
     74  CB        27.5290   72.0720   -9.3590 C.3   164  LEU164      0.0270
     75  CG        28.0290   72.6520  -10.7310 C.3   164  LEU164      0.0019
     76  CD1       27.1800   73.8120  -11.2280 C.3   164  LEU164      0.0001
     77  CD2       29.5060   73.0460  -10.6960 C.3   164  LEU164      0.0001
     78  N         27.4340   78.9770   -7.5740 N.3   289  TYR289     -0.1241
     79  CA        28.1130   78.4380   -6.3870 C.3   289  TYR289      0.1605
     80  C         27.5540   78.9950   -5.0750 C.2   289  TYR289      0.2264
     81  O         28.2440   79.0620   -4.0540 O.2   289  TYR289     -0.2867
     82  CB        29.6520   78.5560   -6.4690 C.3   289  TYR289      0.0534
     83  CG        30.2300   78.0920   -7.7950 C.ar  289  TYR289     -0.0201
     84  CD1       30.1170   76.7670   -8.2030 C.ar  289  TYR289     -0.0009
     85  CD2       30.8850   78.9790   -8.6400 C.ar  289  TYR289     -0.0009
     86  CE1       30.6720   76.3300   -9.4060 C.ar  289  TYR289      0.0417
     87  CE2       31.4120   78.5610   -9.8620 C.ar  289  TYR289      0.0417
     88  CZ        31.3180   77.2330  -10.2360 C.ar  289  TYR289      0.1957
     89  OH        31.8650   76.8150  -11.4310 O.3   289  TYR289     -0.2866
     90  N         25.0710   78.0660   -2.2490 N.3   291  ARG291     -0.1245
     91  CA        24.5140   76.8240   -1.7100 C.3   291  ARG291      0.1563
     92  C         23.5620   77.0320   -0.5550 C.2   291  ARG291      0.2260
     93  O         23.9370   77.5950    0.4810 O.2   291  ARG291     -0.2867
     94  CB        25.6330   75.8350   -1.3270 C.3   291  ARG291      0.0307
     95  CG        26.4040   75.2910   -2.5330 C.3   291  ARG291      0.0489
     96  CD        27.6120   74.4650   -2.1320 C.3   291  ARG291      0.2205
     97  NE        28.7090   75.2980   -1.6310 N.pl3 291  ARG291     -0.0865
     98  CZ        29.8150   74.8260   -1.0610 C.cat 291  ARG291      0.5346
     99  NH1       30.7500   75.6630   -0.6210 N.pl3 291  ARG291      0.1354
    100  NH2       29.9860   73.5150   -0.9090 N.pl3 291  ARG291      0.1354
    101  N         28.0670   82.8440    0.2010 N.3   338  ARG338     -0.1245
    102  CA        28.3680   81.5910   -0.4830 C.3   338  ARG338      0.1563
    103  C         27.7010   80.3890    0.1290 C.2   338  ARG338      0.2260
    104  O         27.2540   79.5220   -0.6140 O.2   338  ARG338     -0.2867
    105  CB        29.8960   81.3510   -0.6000 C.3   338  ARG338      0.0307
    106  CG        30.7170   82.4280   -1.3260 C.3   338  ARG338      0.0489
    107  CD        30.0350   83.0170   -2.5510 C.3   338  ARG338      0.2205
    108  NE        30.2910   82.3120   -3.8050 N.pl3 338  ARG338     -0.0865
    109  CZ        30.4640   82.9310   -4.9720 C.cat 338  ARG338      0.5346
    110  NH1       30.4510   84.2540   -5.0360 N.pl3 338  ARG338      0.1354
    111  NH2       30.6600   82.2300   -6.0810 N.pl3 338  ARG338      0.1354
    112  N         32.1790   86.4360    0.4130 N.3   354  ASP354     -0.1239
    113  CA        33.2070   86.7740   -0.5500 C.3   354  ASP354      0.1674
    114  C         34.2890   87.7400   -0.0210 C.2   354  ASP354      0.2266
    115  O         35.4250   87.7210   -0.5130 O.2   354  ASP354     -0.2867
    116  CB        32.5350   87.3250   -1.8080 C.3   354  ASP354      0.1410
    117  CG        32.1820   86.2460   -2.8060 C.2   354  ASP354      0.3668
    118  OD1       32.5190   85.0660   -2.5480 O.co2 354  ASP354     -0.2456
    119  OD2       31.6320   86.5890   -3.8850 O.co2 354  ASP354     -0.2456
@<TRIPOS>BOND
     1    68    67   ar
     2    61    62    1
     3    67    66    1
     4    67    69   ar
     5    66    65    1
     6    55    54    2
     7    62    65    1
     8    62    63    1
     9    59    58    1
    10    59    60    1
    11    58    57    1
    12    54    53    1
    13    64    63    2
    14    57    56    1
    15    53    56    1
    16    53    52    1
    17    89    88    1
    18    76    75    1
    19    75    77    1
    20    75    74    1
    21    39    40    1
    22    88    87   ar
    23    88    86   ar
    24    70    71    1
    25    87    85   ar
    26    43    40    1
    27    86    84   ar
    28    74    71    1
    29    51    49   am
    30    42    41    2
    31    40    41    1
    32    71    72    1
    33    85    83   ar
    34    50    49    2
    35    49    48    1
    36    84    83   ar
    37    83    82    1
    38    38    37    1
    39    78    79    1
    40    72    73    2
    41    48    45    1
    42    36    37   ar
    43    36    34   ar
    44    37    35   ar
    45    82    79    1
    46    79    80    1
    47    44    45    1
    48   111   109    1
    49    45    46    1
    50    34    32   ar
    51    35    33   ar
    52    26    24   am
    53    80    81    2
    54   110   109    1
    55   109   108    2
    56    46    47    2
    57    32    33   ar
    58    32    31    1
    59    23    24    1
    60    23    20    1
    61    24    25    2
    62   119   117   ar
    63    18    16   ar
    64    18    17   ar
    65   108   107    1
    66    22    21    2
    67    16    14   ar
    68    19    20    1
    69    31    28    1
    70    20    21    1
    71    17    15   ar
    72    14    13   ar
    73   117   118   ar
    74   117   116    1
    75     6     7    1
    76     6     5    1
    77   107   106    1
    78    95    96    1
    79    95    94    1
    80    15    13   ar
    81    90    91    1
    82    13    12    1
    83    96    97    1
    84     7     1    1
    85    28    27    1
    86    28    29    1
    87     5     2    1
    88   116   113    1
    89    91    94    1
    90    91    92    1
    91    97    98    2
    92   106   105    1
    93    12     9    1
    94    98   100    1
    95    98    99    1
    96    29    30    2
    97   104   103    2
    98     1     2    1
    99   105   102    1
   100    92    93    2
   101   113   114    1
   102   113   112    1
   103   115   114    2
   104   102   103    1
   105   102   101    1
   106     2     3    1
   107     9     8    1
   108     9    10    1
   109     4     3    2
   110    11    10    2
