@<TRIPOS>MOLECULE
tmp/5h2dA00.pdb
 217 203 0 0 0
SMALL
GASTEIGER

@<TRIPOS>ATOM
      1  N         28.4780  -11.9690   28.6230 N.3    41  LEU41      -0.1245
      2  CA        28.2580  -10.5950   29.0790 C.3    41  LEU41       0.1561
      3  C         28.6920  -10.4180   30.5280 C.2    41  LEU41       0.2260
      4  O         29.3090   -9.4050   30.8830 O.2    41  LEU41      -0.2867
      5  CB        26.7820  -10.2110   28.9120 C.3    41  LEU41       0.0270
      6  CG        26.4360   -8.7540   29.2540 C.3    41  LEU41       0.0019
      7  CD1       27.3490   -7.8020   28.4960 C.3    41  LEU41       0.0001
      8  CD2       24.9630   -8.4490   28.9290 C.3    41  LEU41       0.0001
      9  N         31.0300   -7.5390   32.2700 N.3    45  LEU45      -0.1245
     10  CA        30.4620   -6.5420   33.1670 C.3    45  LEU45       0.1561
     11  C         30.8500   -6.7430   34.6260 C.2    45  LEU45       0.2260
     12  O         30.6860   -5.8100   35.4140 O.2    45  LEU45      -0.2867
     13  CB        28.9370   -6.5240   33.0580 C.3    45  LEU45       0.0270
     14  CG        28.3240   -6.1460   31.6990 C.3    45  LEU45       0.0019
     15  CD1       26.8070   -6.1710   31.7850 C.3    45  LEU45       0.0001
     16  CD2       28.8200   -4.7760   31.2420 C.3    45  LEU45       0.0001
     17  N         26.4380    3.0850   30.7860 N.3    53  MET53      -0.1245
     18  CA        26.7250    2.5540   29.4560 C.3    53  MET53       0.1570
     19  C         27.8620    3.3120   28.7800 C.2    53  MET53       0.2261
     20  O         28.6910    2.7130   28.0850 O.2    53  MET53      -0.2867
     21  CB        25.4550    2.6080   28.6090 C.3    53  MET53       0.0387
     22  CG        25.6670    2.6380   27.1200 C.3    53  MET53       0.0595
     23  SD        24.0620    2.5720   26.2990 S.3    53  MET53      -0.1393
     24  CE        23.5210    4.2910   26.3780 C.3    53  MET53       0.0692
     25  N         33.6230   -1.8580   25.9950 N.3    58  LEU58      -0.1245
     26  CA        33.0340   -3.1520   25.7070 C.3    58  LEU58       0.1561
     27  C         33.6860   -3.7580   24.4790 C.2    58  LEU58       0.2260
     28  O         34.1140   -3.0360   23.5700 O.2    58  LEU58      -0.2867
     29  CB        31.5190   -3.0270   25.4770 C.3    58  LEU58       0.0270
     30  CG        30.7560   -2.4260   26.6570 C.3    58  LEU58       0.0019
     31  CD1       29.3900   -1.9360   26.2160 C.3    58  LEU58       0.0001
     32  CD2       30.6060   -3.4470   27.7850 C.3    58  LEU58       0.0001
     33  N         29.5470   -6.6780   21.9620 N.3    62  PHE62      -0.1241
     34  CA        28.4640   -5.9810   22.6500 C.3    62  PHE62       0.1605
     35  C         28.3170   -4.5490   22.1490 C.2    62  PHE62       0.2264
     36  O         27.7850   -3.6880   22.8640 O.2    62  PHE62      -0.2867
     37  CB        28.6620   -6.0460   24.1700 C.3    62  PHE62       0.0534
     38  CG        28.4940   -7.4310   24.7070 C.ar   62  PHE62      -0.0203
     39  CD1       27.2570   -8.0620   24.6310 C.ar   62  PHE62      -0.0042
     40  CD2       29.5740   -8.1320   25.2180 C.ar   62  PHE62      -0.0042
     41  CE1       27.0880   -9.3590   25.0760 C.ar   62  PHE62      -0.0003
     42  CE2       29.4070   -9.4290   25.6720 C.ar   62  PHE62      -0.0003
     43  CZ        28.1660  -10.0380   25.5980 C.ar   62  PHE62      -0.0000
     44  N         22.7960    5.9240   18.6380 N.3    68  LEU68      -0.1245
     45  CA        21.6210    6.2780   19.4320 C.3    68  LEU68       0.1561
     46  C         20.6500    7.1400   18.6160 C.2    68  LEU68       0.2260
     47  O         19.4240    7.0010   18.7400 O.2    68  LEU68      -0.2867
     48  CB        22.0430    6.9910   20.7230 C.3    68  LEU68       0.0270
     49  CG        21.5020    6.4300   22.0450 C.3    68  LEU68       0.0019
     50  CD1       19.9980    6.5490   22.1110 C.3    68  LEU68       0.0001
     51  CD2       21.9440    4.9840   22.2290 C.3    68  LEU68       0.0001
     52  N         18.6620    4.6300   16.6440 N.3    71  ARG71      -0.1231
     53  CA        17.7330    3.8570   17.4650 C.3    71  ARG71       0.1694
     54  C         16.4840    4.6610   17.7790 C.2    71  ARG71       0.2591
     55  O         15.3800    4.1050   17.8320 O.2    71  ARG71      -0.2718
     56  CB        18.4010    3.4130   18.7690 C.3    71  ARG71       0.0321
     57  CG        19.5410    2.4360   18.5790 C.3    71  ARG71       0.0489
     58  CD        19.1470    1.2080   17.7550 C.3    71  ARG71       0.2205
     59  NE        18.1770    0.3590   18.4480 N.pl3  71  ARG71      -0.0865
     60  CZ        18.5010   -0.6530   19.2540 C.cat  71  ARG71       0.5346
     61  NH1       19.7790   -0.9750   19.4480 N.pl3  71  ARG71       0.1354
     62  NH2       17.5370   -1.3480   19.8390 N.pl3  71  ARG71       0.1354
     63  N         16.6340    5.9670   18.0130 N.am   72  VAL72      -0.1980
     64  CA        15.4620    6.8020   18.2680 C.3    72  VAL72       0.1595
     65  C         14.5870    6.9130   17.0240 C.2    72  VAL72       0.2287
     66  O         13.3550    6.9670   17.1290 O.2    72  VAL72      -0.2864
     67  CB        15.9060    8.1790   18.7880 C.3    72  VAL72       0.0276
     68  CG1       14.7240    9.1200   18.8630 C.3    72  VAL72       0.0022
     69  CG2       16.5650    8.0260   20.1730 C.3    72  VAL72       0.0022
     70  N         11.5490    4.6220   16.4430 N.3    75  ASP75      -0.1239
     71  CA        10.1970    4.9820   16.8740 C.3    75  ASP75       0.1674
     72  C          9.2330    4.9870   15.7010 C.2    75  ASP75       0.2266
     73  O          8.0230    4.7790   15.8780 O.2    75  ASP75      -0.2867
     74  CB        10.1400    6.3880   17.4870 C.3    75  ASP75       0.1410
     75  CG        10.7480    6.4990   18.8650 C.2    75  ASP75       0.3668
     76  OD1       11.0090    5.4720   19.5380 O.co2  75  ASP75      -0.2456
     77  OD2       10.9630    7.6740   19.2640 O.co2  75  ASP75      -0.2456
     78  N          7.2010    0.2790   18.9190 N.3   105  SER105     -0.1202
     79  CA         8.6330    0.4040   18.6650 C.3   105  SER105      0.2020
     80  C          9.4920   -0.4570   19.5850 C.2   105  SER105      0.2618
     81  O         10.7290   -0.3570   19.5310 O.2   105  SER105     -0.2717
     82  CB         9.0590    1.8640   18.7730 C.3   105  SER105      0.2103
     83  OG         8.4260    2.4750   19.8760 O.3   105  SER105     -0.2182
     84  N          8.8930   -1.3390   20.3830 N.am  106  TYR106     -0.1975
     85  CA         9.6990   -2.1550   21.2830 C.3   106  TYR106      0.1639
     86  C          9.9980   -3.5500   20.7510 C.2   106  TYR106      0.2290
     87  O         10.9790   -4.1630   21.1880 O.2   106  TYR106     -0.2864
     88  CB         9.0420   -2.1900   22.6890 C.3   106  TYR106      0.0560
     89  CG         9.2700   -0.8140   23.2400 C.ar  106  TYR106     -0.0198
     90  CD1       10.5200   -0.4580   23.7400 C.ar  106  TYR106     -0.0009
     91  CD2        8.3140    0.1800   23.0860 C.ar  106  TYR106     -0.0009
     92  CE1       10.7860    0.8180   24.1330 C.ar  106  TYR106      0.0417
     93  CE2        8.5760    1.4730   23.4770 C.ar  106  TYR106      0.0417
     94  CZ         9.8190    1.7870   23.9960 C.ar  106  TYR106      0.1957
     95  OH        10.0970    3.0740   24.3620 O.3   106  TYR106     -0.2866
     96  N         13.6300   -4.0600   19.7220 N.3   109  THR109     -0.1218
     97  CA        14.7100   -4.1030   20.7130 C.3   109  THR109      0.1862
     98  C         15.1270   -5.5290   21.0650 C.2   109  THR109      0.2287
     99  O         16.2370   -5.7340   21.5760 O.2   109  THR109     -0.2866
    100  CB        14.3170   -3.3490   21.9980 C.3   109  THR109      0.1770
    101  OG1       13.2570   -4.0240   22.6930 O.3   109  THR109     -0.2211
    102  CG2       13.8790   -1.9250   21.6870 C.3   109  THR109      0.0375
    103  N         18.8960   -7.6770   20.3970 N.3   112  ARG112     -0.1231
    104  CA        19.9920   -6.7380   20.1610 C.3   112  ARG112      0.1694
    105  C         20.5630   -6.3000   21.5080 C.2   112  ARG112      0.2592
    106  O         20.3710   -5.1750   21.9650 O.2   112  ARG112     -0.2718
    107  CB        19.5040   -5.5540   19.3060 C.3   112  ARG112      0.0321
    108  CG        19.1940   -5.9770   17.8720 C.3   112  ARG112      0.0489
    109  CD        18.1770   -5.0350   17.2570 C.3   112  ARG112      0.2205
    110  NE        18.8110   -3.7800   16.8790 N.pl3 112  ARG112     -0.0865
    111  CZ        18.1610   -2.7740   16.3130 C.cat 112  ARG112      0.5346
    112  NH1       16.8460   -2.8750   16.0760 N.pl3 112  ARG112      0.1354
    113  NH2       18.8260   -1.6710   15.9810 N.pl3 112  ARG112      0.1354
    114  N         21.2870   -7.2150   22.1490 N.am  113  VAL113     -0.1966
    115  CA        21.9120   -6.9360   23.4440 C.3   113  VAL113      0.1727
    116  C         23.2810   -6.3410   23.1220 C.2   113  VAL113      0.2616
    117  O         24.3080   -7.0340   23.0680 O.2   113  VAL113     -0.2715
    118  CB        21.9900   -8.1870   24.3220 C.3   113  VAL113      0.0290
    119  CG1       22.6660   -7.8810   25.6540 C.3   113  VAL113      0.0023
    120  CG2       20.5850   -8.7310   24.5860 C.3   113  VAL113      0.0023
    121  N         23.2950   -5.0290   22.8980 N.am  114  ALA114     -0.1963
    122  CA        24.4830   -4.3720   22.3800 C.3   114  ALA114      0.1728
    123  C         24.3340   -2.8730   22.5310 C.2   114  ALA114      0.2616
    124  O         23.2280   -2.3270   22.4160 O.2   114  ALA114     -0.2715
    125  CB        24.7210   -4.7170   20.9030 C.3   114  ALA114      0.0334
    126  N         25.4720   -2.2190   22.7310 N.am  115  LYS115     -0.1964
    127  CA        25.5230   -0.7740   22.9170 C.3   115  LYS115      0.1713
    128  C         25.5780   -0.0740   21.5640 C.2   115  LYS115      0.2458
    129  O         26.5460   -0.2820   20.8120 O.2   115  LYS115     -0.2730
    130  CB        26.7520   -0.4180   23.7480 C.3   115  LYS115      0.0311
    131  CG        26.9960    1.0590   23.9890 C.3   115  LYS115      0.0038
    132  CD        28.2750    1.2160   24.8050 C.3   115  LYS115      0.0206
    133  CE        29.0280    2.4920   24.4760 C.3   115  LYS115      0.1093
    134  NZ        30.2810    2.5920   25.3000 N.3   115  LYS115     -0.1314
    135  N         24.5910    0.7560   21.2080 N.am  116  PRO116     -0.2727
    136  CA        24.7160    1.5960   20.0070 C.3   116  PRO116      0.1402
    137  C         25.7960    2.6450   20.2090 C.2   116  PRO116      0.2269
    138  O         26.2290    2.9200   21.3310 O.2   116  PRO116     -0.2865
    139  CB        23.3470    2.2680   19.8750 C.3   116  PRO116      0.0296
    140  CG        22.4150    1.4850   20.7980 C.3   116  PRO116      0.0237
    141  CD        23.3330    1.0140   21.9260 C.3   116  PRO116      0.0939
    142  N         15.6540   12.6270   23.7750 N.3   163  SER163     -0.1217
    143  CA        16.1800   11.3360   24.1920 C.3   163  SER163      0.1889
    144  C         17.2790   11.5640   25.2230 C.2   163  SER163      0.2288
    145  O         18.3620   12.0620   24.8970 O.2   163  SER163     -0.2866
    146  CB        16.7170   10.5560   23.0020 C.3   163  SER163      0.2089
    147  OG        17.2150    9.3140   23.4490 O.3   163  SER163     -0.2183
    148  N         18.8080    9.1740   27.9430 N.3   165  VAL165     -0.1245
    149  CA        18.8490    7.8160   28.4720 C.3   165  VAL165      0.1561
    150  C         19.8160    7.7870   29.6440 C.2   165  VAL165      0.2260
    151  O         21.0100    8.0780   29.4820 O.2   165  VAL165     -0.2867
    152  CB        19.2560    6.8040   27.3920 C.3   165  VAL165      0.0252
    153  CG1       19.2870    5.4000   27.9740 C.3   165  VAL165      0.0019
    154  CG2       18.2910    6.8680   26.1990 C.3   165  VAL165      0.0019
    155  N         21.0180   -4.5050   33.9030 N.3   174  PHE174     -0.1241
    156  CA        21.4020   -3.2370   33.2920 C.3   174  PHE174      0.1605
    157  C         20.1150   -2.4750   33.0050 C.2   174  PHE174      0.2264
    158  O         19.2820   -2.9450   32.2260 O.2   174  PHE174     -0.2867
    159  CB        22.2070   -3.4700   32.0140 C.3   174  PHE174      0.0534
    160  CG        23.3040   -2.4530   31.7700 C.ar  174  PHE174     -0.0203
    161  CD1       23.1170   -1.1040   32.0550 C.ar  174  PHE174     -0.0042
    162  CD2       24.5120   -2.8520   31.2340 C.ar  174  PHE174     -0.0042
    163  CE1       24.1320   -0.1890   31.8000 C.ar  174  PHE174     -0.0003
    164  CE2       25.5190   -1.9500   30.9740 C.ar  174  PHE174     -0.0003
    165  CZ        25.3350   -0.6100   31.2700 C.ar  174  PHE174     -0.0000
    166  N         17.7680    1.0200   32.0890 N.3   176  PHE176     -0.1241
    167  CA        17.7400    2.1900   31.2130 C.3   176  PHE176      0.1605
    168  C         16.4540    2.9610   31.4470 C.2   176  PHE176      0.2264
    169  O         15.3560    2.4130   31.2900 O.2   176  PHE176     -0.2867
    170  CB        17.8610    1.7690   29.7420 C.3   176  PHE176      0.0534
    171  CG        19.1090    1.0060   29.4730 C.ar  176  PHE176     -0.0203
    172  CD1       19.1630   -0.3690   29.6820 C.ar  176  PHE176     -0.0042
    173  CD2       20.2590    1.6710   29.0890 C.ar  176  PHE176     -0.0042
    174  CE1       20.3570   -1.0620   29.4830 C.ar  176  PHE176     -0.0003
    175  CE2       21.4420    0.9930   28.8850 C.ar  176  PHE176     -0.0003
    176  CZ        21.4970   -0.3730   29.0810 C.ar  176  PHE176     -0.0000
    177  N         14.3310    6.5760   30.4460 N.3   178  HIS178     -0.1241
    178  CA        14.1870    7.5580   29.3710 C.3   178  HIS178      0.1621
    179  C         13.5110    8.7830   29.9670 C.2   178  HIS178      0.2264
    180  O         12.3010    8.7790   30.2190 O.2   178  HIS178     -0.2867
    181  CB        13.3980    6.9420   28.2190 C.3   178  HIS178      0.0745
    182  CG        14.0790    5.7390   27.6520 C.ar  178  HIS178      0.0817
    183  ND1       14.7370    5.7560   26.4430 N.ar  178  HIS178     -0.2268
    184  CD2       14.2810    4.5030   28.1740 C.ar  178  HIS178      0.1154
    185  CE1       15.2970    4.5750   26.2330 C.ar  178  HIS178      0.1986
    186  NE2       15.0400    3.8000   27.2720 N.ar  178  HIS178     -0.2212
    187  N          8.5760    7.4870   27.6170 N.3   201  LYS201     -0.1245
    188  CA         8.7750    6.1170   27.1870 C.3   201  LYS201      0.1561
    189  C          9.0250    5.1920   28.3740 C.2   201  LYS201      0.2260
    190  O          9.4810    5.6270   29.4340 O.2   201  LYS201     -0.2867
    191  CB         9.9530    6.0540   26.2150 C.3   201  LYS201      0.0271
    192  CG         9.6770    6.7640   24.8870 C.3   201  LYS201      0.0035
    193  CD        10.9410    6.8240   24.0320 C.3   201  LYS201      0.0206
    194  CE        10.6430    7.4030   22.6550 C.3   201  LYS201      0.1093
    195  NZ        11.8890    7.5370   21.8400 N.3   201  LYS201     -0.1314
    196  N         13.7910    0.2150   30.0280 N.3   204  ASN204     -0.1240
    197  CA        14.2790   -1.0570   29.5140 C.3   204  ASN204      0.1653
    198  C         15.3220   -1.6080   30.4700 C.2   204  ASN204      0.2266
    199  O         15.9360   -0.8740   31.2430 O.2   204  ASN204     -0.2867
    200  CB        14.9050   -0.9400   28.1040 C.3   204  ASN204      0.1155
    201  CG        14.6640    0.4030   27.4690 C.2   204  ASN204      0.2627
    202  OD1       15.5210    1.2840   27.5350 O.2   204  ASN204     -0.2716
    203  ND2       13.4920    0.5690   26.8430 N.am  204  ASN204     -0.0877
    204  N         18.4100   -5.0170   30.6980 N.3   206  VAL206     -0.1245
    205  CA        18.9840   -6.2890   30.2750 C.3   206  VAL206      0.1561
    206  C         19.0010   -7.1850   31.5010 C.2   206  VAL206      0.2260
    207  O         19.6070   -6.8330   32.5170 O.2   206  VAL206     -0.2867
    208  CB        20.3930   -6.1190   29.6850 C.3   206  VAL206      0.0252
    209  CG1       20.9770   -7.4740   29.3370 C.3   206  VAL206      0.0019
    210  CG2       20.3430   -5.2380   28.4280 C.3   206  VAL206      0.0019
    211  N         16.5840   -8.5370   26.4940 N.3   216  VAL216     -0.1245
    212  CA        16.0730   -7.1750   26.6120 C.3   216  VAL216      0.1561
    213  C         14.6250   -7.2240   27.0840 C.2   216  VAL216      0.2260
    214  O         13.7760   -7.8880   26.4740 O.2   216  VAL216     -0.2867
    215  CB        16.1780   -6.4220   25.2740 C.3   216  VAL216      0.0252
    216  CG1       15.6440   -5.0160   25.4540 C.3   216  VAL216      0.0019
    217  CG2       17.5980   -6.3950   24.7570 C.3   216  VAL216      0.0019
@<TRIPOS>BOND
     1    72    73    2
     2    72    71    1
     3   113   111    1
     4   112   111    1
     5   111   110    2
     6    70    71    1
     7    52    53    1
     8    71    74    1
     9   110   109    1
    10    65    66    2
    11    65    64    1
    12   109   108    1
    13    53    54    1
    14    53    56    1
    15    74    75    1
    16    58    59    1
    17    58    57    1
    18    54    55    2
    19    54    63   am
    20   108   107    1
    21    63    64    1
    22    64    67    1
    23    59    60    2
    24    57    56    1
    25    46    47    2
    26    46    45    1
    27    44    45    1
    28    79    82    1
    29    79    78    1
    30    79    80    1
    31    82    83    1
    32    67    68    1
    33    67    69    1
    34    75    77   ar
    35    75    76   ar
    36    60    61    1
    37    60    62    1
    38   107   104    1
    39    45    48    1
    40    81    80    2
    41    80    84   am
    42    96    97    1
    43   139   136    1
    44   139   140    1
    45   136   137    1
    46   136   135    1
    47   104   103    1
    48   104   105    1
    49   137   138    2
    50    84    85    1
    51    97    98    1
    52    97   100    1
    53    48    49    1
    54    86    87    2
    55    86    85    1
    56   140   141    1
    57   129   128    2
    58   125   122    1
    59    98    99    2
    60   135   128   am
    61   135   141    1
    62    85    88    1
    63   105   106    2
    64   105   114   am
    65   128   127    1
    66   102   100    1
    67   195   194    1
    68    33    34    1
    69   100   101    1
    70    49    50    1
    71    49    51    1
    72   114   115    1
    73    35    34    1
    74    35    36    2
    75   122   123    1
    76   122   121    1
    77   124   123    2
    78   123   126   am
    79    34    37    1
    80   194   193    1
    81    88    89    1
    82   126   127    1
    83   121   116   am
    84   127   130    1
    85   146   147    1
    86   146   143    1
    87   117   116    2
    88    91    89   ar
    89    91    93   ar
    90   116   115    1
    91    89    90   ar
    92   115   118    1
    93    93    94   ar
    94    28    27    2
    95    90    92   ar
    96   130   131    1
    97   142   143    1
    98   131   132    1
    99    94    92   ar
   100    94    95    1
   101   193   192    1
   102    37    38    1
   103   143   144    1
   104   118   120    1
   105   118   119    1
   106   133   132    1
   107   133   134    1
   108    27    26    1
   109    39    38   ar
   110    39    41   ar
   111    38    40   ar
   112   217   215    1
   113   192   191    1
   114   145   144    2
   115    41    43   ar
   116    40    42   ar
   117   215   216    1
   118   215   212    1
   119    29    26    1
   120    29    30    1
   121    43    42   ar
   122    26    25    1
   123   154   152    1
   124   191   188    1
   125    31    30    1
   126   185   183   ar
   127   185   186   ar
   128    23    24    1
   129    23    22    1
   130   183   182   ar
   131   214   213    2
   132   211   212    1
   133   212   213    1
   134    30    32    1
   135   203   201   am
   136    22    21    1
   137   188   187    1
   138   188   189    1
   139   186   184   ar
   140   152   153    1
   141   152   149    1
   142   201   202    2
   143   201   200    1
   144   182   184   ar
   145   182   181    1
   146   148   149    1
   147    20    19    2
   148   200   197    1
   149   181   178    1
   150   189   190    2
   151   210   208    1
   152   149   150    1
   153     7     6    1
   154    21    18    1
   155     1     2    1
   156    19    18    1
   157   175   176   ar
   158   175   173   ar
   159     5     2    1
   160     5     6    1
   161     8     6    1
   162     2     3    1
   163   176   174   ar
   164   173   171   ar
   165   209   208    1
   166   178   179    1
   167   178   177    1
   168    18    17    1
   169   171   172   ar
   170   171   170    1
   171   151   150    2
   172   174   172   ar
   173   197   196    1
   174   197   198    1
   175   208   205    1
   176   170   167    1
   177   179   180    2
   178   205   204    1
   179   205   206    1
   180   198   199    2
   181     3     4    2
   182   164   162   ar
   183   164   165   ar
   184   167   168    1
   185   167   166    1
   186   162   160   ar
   187    16    14    1
   188   165   163   ar
   189   169   168    2
   190   206   207    2
   191    14    15    1
   192    14    13    1
   193   160   159    1
   194   160   161   ar
   195   163   161   ar
   196   159   156    1
   197   158   157    2
   198     9    10    1
   199   157   156    1
   200    13    10    1
   201    10    11    1
   202   156   155    1
   203    11    12    2
