@<TRIPOS>MOLECULE
tmp/5h2fS02.pdb
 95 95 0 0 0
SMALL
GASTEIGER

@<TRIPOS>ATOM
      1  N        -25.6650   19.3230  -19.3340 N.3     3  LEU3       -0.1231
      2  CA       -25.0710   19.1240  -17.9940 C.3     3  LEU3        0.1693
      3  C        -24.4080   17.7520  -17.7760 C.2     3  LEU3        0.2592
      4  O        -23.3470   17.6770  -17.1590 O.2     3  LEU3       -0.2718
      5  CB       -26.1030   19.3550  -16.8810 C.3     3  LEU3        0.0284
      6  CG       -26.2140   20.6870  -16.1300 C.3     3  LEU3        0.0019
      7  CD1      -27.0530   20.4230  -14.8960 C.3     3  LEU3        0.0001
      8  CD2      -24.8550   21.2640  -15.7320 C.3     3  LEU3        0.0001
      9  N        -25.0500   16.6860  -18.2600 N.am    4  TRP4       -0.1976
     10  CA       -24.4790   15.3500  -18.2020 C.3     4  TRP4        0.1640
     11  C        -23.1710   15.2080  -18.9830 C.2     4  TRP4        0.2290
     12  O        -22.1940   14.6350  -18.4550 O.2     4  TRP4       -0.2864
     13  CB       -25.5140   14.2890  -18.5950 C.3     4  TRP4        0.0576
     14  CG       -24.9740   12.8740  -18.6040 C.ar    4  TRP4        0.0006
     15  CD1      -24.7940   12.0320  -19.7110 C.ar    4  TRP4        0.0946
     16  CD2      -24.4620   12.1020  -17.4540 C.ar    4  TRP4        0.0152
     17  NE1      -24.2560   10.8270  -19.3310 N.ar    4  TRP4       -0.2442
     18  CE2      -24.0220   10.8030  -17.9930 C.ar    4  TRP4        0.0810
     19  CE3      -24.3280   12.3470  -16.0830 C.ar    4  TRP4        0.0012
     20  CZ2      -23.4860    9.8140  -17.1790 C.ar    4  TRP4        0.0191
     21  CZ3      -23.7850   11.3350  -15.2790 C.ar    4  TRP4        0.0001
     22  CH2      -23.3700   10.1090  -15.8190 C.ar    4  TRP4        0.0015
     23  N        -21.1160   17.6630  -20.0380 N.3     6  ARG6       -0.1231
     24  CA       -20.1590   18.4780  -19.3250 C.3     6  ARG6        0.1694
     25  C        -19.5390   17.6550  -18.1830 C.2     6  ARG6        0.2592
     26  O        -18.3070   17.5840  -18.0270 O.2     6  ARG6       -0.2718
     27  CB       -20.8460   19.7240  -18.7440 C.3     6  ARG6        0.0321
     28  CG       -21.0220   20.9210  -19.6880 C.3     6  ARG6        0.0489
     29  CD       -21.9000   21.9700  -19.0060 C.3     6  ARG6        0.2205
     30  NE       -21.5910   23.3490  -19.3900 N.pl3   6  ARG6       -0.0865
     31  CZ       -20.6210   24.0950  -18.8530 C.cat   6  ARG6        0.5346
     32  NH1      -19.8260   23.6100  -17.9010 N.pl3   6  ARG6        0.1354
     33  NH2      -20.4360   25.3360  -19.2860 N.pl3   6  ARG6        0.1354
     34  N        -20.3990   17.0300  -17.3830 N.am    7  PHE7       -0.1976
     35  CA       -19.9000   16.2170  -16.2780 C.3     7  PHE7        0.1639
     36  C        -18.9700   15.1270  -16.8100 C.2     7  PHE7        0.2290
     37  O        -17.8420   14.9760  -16.3230 O.2     7  PHE7       -0.2864
     38  CB       -21.0410   15.6100  -15.4480 C.3     7  PHE7        0.0560
     39  CG       -20.5530   14.8250  -14.2920 C.ar    7  PHE7       -0.0200
     40  CD1      -20.7790   13.4560  -14.2240 C.ar    7  PHE7       -0.0042
     41  CD2      -19.7890   15.4420  -13.2960 C.ar    7  PHE7       -0.0042
     42  CE1      -20.3060   12.7180  -13.1500 C.ar    7  PHE7       -0.0003
     43  CE2      -19.2860   14.7040  -12.2380 C.ar    7  PHE7       -0.0003
     44  CZ       -19.5540   13.3450  -12.1680 C.ar    7  PHE7       -0.0000
     45  N        -17.3200   15.0940  -19.5440 N.3     9  ASN9       -0.1225
     46  CA       -16.0620   15.6230  -20.0830 C.3     9  ASN9        0.1785
     47  C        -15.1060   15.9210  -18.9930 C.2     9  ASN9        0.2597
     48  O        -13.9060   15.7450  -19.1700 O.2     9  ASN9       -0.2718
     49  CB       -16.2480   16.8650  -20.9570 C.3     9  ASN9        0.1169
     50  CG       -17.0370   16.5630  -22.2110 C.2     9  ASN9        0.2627
     51  OD1      -17.0890   15.4100  -22.6790 O.2     9  ASN9       -0.2716
     52  ND2      -17.6870   17.5940  -22.7560 N.am    9  ASN9       -0.0877
     53  N        -15.6360   16.4040  -17.8840 N.am   10  TRP10      -0.1976
     54  CA       -14.8340   16.6410  -16.7080 C.3    10  TRP10       0.1640
     55  C        -14.2860   15.3490  -16.0940 C.2    10  TRP10       0.2290
     56  O        -13.0720   15.2040  -15.8990 O.2    10  TRP10      -0.2864
     57  CB       -15.6060   17.4490  -15.6990 C.3    10  TRP10       0.0576
     58  CG       -14.7820   17.6080  -14.4560 C.ar   10  TRP10       0.0006
     59  CD1      -13.7820   18.5510  -14.2120 C.ar   10  TRP10       0.0946
     60  CD2      -14.8220   16.7640  -13.2600 C.ar   10  TRP10       0.0152
     61  NE1      -13.2390   18.3750  -12.9590 N.ar   10  TRP10      -0.2442
     62  CE2      -13.8120   17.3110  -12.3390 C.ar   10  TRP10       0.0810
     63  CE3      -15.5880   15.6820  -12.8540 C.ar   10  TRP10       0.0012
     64  CZ2      -13.5910   16.7610  -11.0830 C.ar   10  TRP10       0.0191
     65  CZ3      -15.3550   15.1380  -11.5860 C.ar   10  TRP10       0.0001
     66  CH2      -14.3600   15.6580  -10.7310 C.ar   10  TRP10       0.0015
     67  N        -11.5750   14.0430  -18.3110 N.3    13  SER13      -0.1217
     68  CA       -10.6400   15.0450  -18.8240 C.3    13  SER13       0.1889
     69  C         -9.1850   14.6400  -18.6580 C.2    13  SER13       0.2288
     70  O         -8.7760   14.2340  -17.5690 O.2    13  SER13      -0.2866
     71  CB       -10.8590   16.3850  -18.1300 C.3    13  SER13       0.2089
     72  OG        -9.6680   17.1690  -18.2320 O.3    13  SER13      -0.2183
     73  N         -6.8760   16.6030  -18.4760 N.3    15  ASP15      -0.1225
     74  CA        -6.2050   17.7650  -17.9420 C.3    15  ASP15       0.1805
     75  C         -6.3020   17.9610  -16.4220 C.2    15  ASP15       0.2597
     76  O         -5.6320   18.8520  -15.8560 O.2    15  ASP15      -0.2718
     77  CB        -6.6360   19.0530  -18.6830 C.3    15  ASP15       0.1424
     78  CG        -6.5030   18.9600  -20.2270 C.2    15  ASP15       0.3668
     79  OD1       -5.7400   18.1220  -20.7930 O.co2  15  ASP15      -0.2456
     80  OD2       -7.2090   19.7550  -20.8830 O.co2  15  ASP15      -0.2456
     81  N         -7.1040   17.1420  -15.7410 N.am   16  ASN16      -0.1974
     82  CA        -7.1370   17.1720  -14.2710 C.3    16  ASN16       0.1688
     83  C         -5.7740   16.7270  -13.7110 C.2    16  ASN16       0.2292
     84  O         -5.1770   15.7420  -14.1980 O.2    16  ASN16      -0.2864
     85  CB        -8.2450   16.2690  -13.7540 C.3    16  ASN16       0.1181
     86  CG        -9.6640   16.8170  -14.0570 C.2    16  ASN16       0.2629
     87  OD1       -9.9750   17.9830  -13.7990 O.2    16  ASN16      -0.2716
     88  ND2      -10.5290   15.9570  -14.5570 N.am   16  ASN16      -0.0877
     89  N        -14.3690    7.1060   -3.7370 N.3    29  PRO29      -0.2116
     90  CA       -15.0290    7.0360   -2.4550 C.3    29  PRO29       0.1372
     91  C        -14.5920    5.7720   -1.6890 C.2    29  PRO29       0.2244
     92  O        -14.4360    5.8180   -0.4550 O.2    29  PRO29      -0.2868
     93  CB       -16.5240    6.9930   -2.8090 C.3    29  PRO29       0.0268
     94  CG       -16.6350    7.4720   -4.2520 C.3    29  PRO29       0.0207
     95  CD       -15.3180    7.1940   -4.8740 C.3    29  PRO29       0.0892
@<TRIPOS>BOND
     1    52    50   am
     2    51    50    2
     3    50    49    1
     4    49    46    1
     5    80    78   ar
     6    79    78   ar
     7    78    77    1
     8    46    45    1
     9    46    47    1
    10    23    24    1
    11    15    17   ar
    12    15    14   ar
    13    28    29    1
    14    28    27    1
    15    30    29    1
    16    30    31    2
    17     1     2    1
    18    17    18   ar
    19    24    27    1
    20    24    25    1
    21    33    31    1
    22    48    47    2
    23    47    53   am
    24    11    12    2
    25    11    10    1
    26    31    32    1
    27    68    69    1
    28    68    67    1
    29    68    71    1
    30    77    74    1
    31    69    70    2
    32    14    13    1
    33    14    16   ar
    34    13    10    1
    35    73    74    1
    36     9    10    1
    37     9     3   am
    38    72    71    1
    39    25    26    2
    40    25    34   am
    41     2     3    1
    42     2     5    1
    43    18    16   ar
    44    18    20   ar
    45    74    75    1
    46    53    54    1
    47     3     4    2
    48    16    19   ar
    49    34    35    1
    50    20    22   ar
    51     5     6    1
    52    36    37    2
    53    36    35    1
    54    54    55    1
    55    54    57    1
    56    75    76    2
    57    75    81   am
    58    35    38    1
    59     6     8    1
    60     6     7    1
    61    55    56    2
    62    19    21   ar
    63    22    21   ar
    64    81    82    1
    65    57    58    1
    66    38    39    1
    67    88    86   am
    68    58    59   ar
    69    58    60   ar
    70    39    40   ar
    71    39    41   ar
    72    82    85    1
    73    82    83    1
    74    40    42   ar
    75    59    61   ar
    76    84    83    2
    77    86    87    2
    78    86    85    1
    79    41    43   ar
    80    60    63   ar
    81    60    62   ar
    82    42    44   ar
    83    61    62   ar
    84    63    65   ar
    85    62    64   ar
    86    43    44   ar
    87    65    66   ar
    88    64    66   ar
    89    95    94    1
    90    95    89    1
    91    94    93    1
    92    89    90    1
    93    93    90    1
    94    90    91    1
    95    91    92    2
