@<TRIPOS>MOLECULE
tmp/5h2fB09.pdb
 130 126 0 0 0
SMALL
GASTEIGER

@<TRIPOS>ATOM
      1  N         -7.1640   13.9130   23.0810 N.3    39  TYR39      -0.1241
      2  CA        -6.1200   13.5520   24.0310 C.3    39  TYR39       0.1605
      3  C         -6.7950   13.5150   25.4160 C.2    39  TYR39       0.2264
      4  O         -6.5610   12.6400   26.2390 O.2    39  TYR39      -0.2867
      5  CB        -4.9890   14.5830   23.9790 C.3    39  TYR39       0.0534
      6  CG        -3.9750   14.4250   25.0730 C.ar   39  TYR39      -0.0201
      7  CD1       -4.1310   15.1030   26.2910 C.ar   39  TYR39      -0.0009
      8  CD2       -2.8140   13.6400   24.8800 C.ar   39  TYR39      -0.0009
      9  CE1       -3.2070   14.9760   27.3220 C.ar   39  TYR39       0.0417
     10  CE2       -1.8750   13.5060   25.9060 C.ar   39  TYR39       0.0417
     11  CZ        -2.0700   14.1750   27.1220 C.ar   39  TYR39       0.1957
     12  OH        -1.1380   14.0470   28.1240 O.3    39  TYR39      -0.2866
     13  N         -7.4100   10.2610   28.1330 N.3    43  THR43      -0.1218
     14  CA        -6.8840   10.2500   29.5050 C.3    43  THR43       0.1862
     15  C         -7.9140   10.5070   30.6340 C.2    43  THR43       0.2287
     16  O         -7.5670   10.3960   31.7850 O.2    43  THR43      -0.2866
     17  CB        -5.7580   11.2760   29.6570 C.3    43  THR43       0.1770
     18  OG1       -6.2750   12.5560   29.3060 O.3    43  THR43      -0.2211
     19  CG2       -4.5710   10.9490   28.7170 C.3    43  THR43       0.0375
     20  N         -8.2480   16.4190   36.9450 N.3    57  GLN57      -0.1245
     21  CA        -7.4980   15.6250   35.9970 C.3    57  GLN57       0.1566
     22  C         -6.7700   16.4400   34.8930 C.2    57  GLN57       0.2260
     23  O         -6.3430   15.8700   33.8960 O.2    57  GLN57      -0.2867
     24  CB        -8.4370   14.5720   35.3670 C.3    57  GLN57       0.0367
     25  CG        -9.1850   13.6620   36.3600 C.3    57  GLN57       0.0905
     26  CD       -10.1660   12.6950   35.6630 C.2    57  GLN57       0.2608
     27  OE1       -9.7790   11.9580   34.7860 O.2    57  GLN57      -0.2717
     28  NE2      -11.4360   12.6990   36.0800 N.am   57  GLN57      -0.0878
     29  N          5.9250   25.4670   37.6170 N.3   324  PHE324     -0.1241
     30  CA         6.5760   24.2990   37.0200 C.3   324  PHE324      0.1605
     31  C          6.1040   22.9870   37.5890 C.2   324  PHE324      0.2264
     32  O          6.6950   21.9610   37.3160 O.2   324  PHE324     -0.2867
     33  CB         8.1240   24.4390   37.0830 C.3   324  PHE324      0.0534
     34  CG         8.6000   25.5900   36.2690 C.ar  324  PHE324     -0.0203
     35  CD1        8.5220   25.5390   34.8590 C.ar  324  PHE324     -0.0042
     36  CD2        9.0480   26.7660   36.8680 C.ar  324  PHE324     -0.0042
     37  CE1        8.9170   26.6350   34.0730 C.ar  324  PHE324     -0.0003
     38  CE2        9.4340   27.8720   36.0890 C.ar  324  PHE324     -0.0003
     39  CZ         9.3710   27.8080   34.7070 C.ar  324  PHE324     -0.0000
     40  N          3.6070   20.5200   37.0460 N.3   326  THR326     -0.1203
     41  CA         2.8140   20.2870   35.8260 C.3   326  THR326      0.1994
     42  C          1.7510   19.2070   35.9900 C.2   326  THR326      0.2618
     43  O          1.8410   18.3830   36.9010 O.2   326  THR326     -0.2717
     44  CB         3.7410   19.9490   34.6190 C.3   326  THR326      0.1784
     45  OG1        4.4390   18.7250   34.8960 O.3   326  THR326     -0.2211
     46  CG2        4.7430   21.1110   34.3830 C.3   326  THR326      0.0376
     47  N          0.7440   19.2170   35.1140 N.am  327  GLY327     -0.1942
     48  CA        -0.2090   18.1340   35.1040 C.3   327  GLY327      0.1998
     49  C         -1.4590   18.3460   35.9360 C.2   327  GLY327      0.2480
     50  O         -1.7490   19.4640   36.4190 O.2   327  GLY327     -0.2729
     51  N         -2.2220   17.2790   36.1040 N.am  328  PRO328     -0.2726
     52  CA        -3.4510   17.3060   36.8620 C.3   328  PRO328      0.1402
     53  C         -3.1950   17.4880   38.3650 C.2   328  PRO328      0.2269
     54  O         -2.0860   17.1800   38.8540 O.2   328  PRO328     -0.2865
     55  CB        -4.0220   15.9000   36.6310 C.3   328  PRO328      0.0296
     56  CG        -2.8400   15.0470   36.3250 C.3   328  PRO328      0.0237
     57  CD        -1.9800   15.9660   35.4840 C.3   328  PRO328      0.0939
     58  N         -1.9450   14.6600   40.3880 N.3   331  LYS331     -0.1245
     59  CA        -0.5240   14.3020   40.3790 C.3   331  LYS331      0.1561
     60  C          0.2020   14.8110   41.6290 C.2   331  LYS331      0.2260
     61  O          1.3530   14.4040   41.9210 O.2   331  LYS331     -0.2867
     62  CB         0.0980   14.8590   39.1040 C.3   331  LYS331      0.0271
     63  CG         1.6080   14.8430   39.0260 C.3   331  LYS331      0.0035
     64  CD         2.1980   13.4450   38.7800 C.3   331  LYS331      0.0206
     65  CE         3.6650   13.4220   39.2710 C.3   331  LYS331      0.1093
     66  NZ         4.5120   12.3000   38.7690 N.3   331  LYS331     -0.1314
     67  N         -0.5430    7.4120   39.9710 N.3   436  LEU436     -0.1245
     68  CA         0.2150    8.4160   39.2160 C.3   436  LEU436      0.1561
     69  C          1.6040    8.6770   39.7600 C.2   436  LEU436      0.2260
     70  O          2.2910    9.5640   39.2710 O.2   436  LEU436     -0.2867
     71  CB        -0.5440    9.7470   39.1150 C.3   436  LEU436      0.0270
     72  CG        -1.9450    9.6830   38.5130 C.3   436  LEU436      0.0019
     73  CD1       -2.5070   11.0870   38.4950 C.3   436  LEU436      0.0001
     74  CD2       -1.8240    9.2010   37.0570 C.3   436  LEU436      0.0001
     75  N         -4.7520   27.6460   35.5950 N.3   449  TRP449     -0.1241
     76  CA        -3.9690   27.6570   34.3450 C.3   449  TRP449      0.1605
     77  C         -4.5690   28.5460   33.2770 C.2   449  TRP449      0.2264
     78  O         -3.8440   29.3030   32.6260 O.2   449  TRP449     -0.2867
     79  CB        -3.7650   26.2550   33.7890 C.3   449  TRP449      0.0550
     80  CG        -2.6930   25.4820   34.5050 C.ar  449  TRP449      0.0003
     81  CD1       -2.8070   24.2530   35.1350 C.ar  449  TRP449      0.0946
     82  CD2       -1.2970   25.8550   34.6390 C.ar  449  TRP449      0.0152
     83  NE1       -1.5940   23.8530   35.6740 N.ar  449  TRP449     -0.2442
     84  CE2       -0.6460   24.7610   35.3920 C.ar  449  TRP449      0.0810
     85  CE3       -0.5290   26.9440   34.2120 C.ar  449  TRP449      0.0012
     86  CZ2        0.7060   24.7930   35.7220 C.ar  449  TRP449      0.0191
     87  CZ3        0.8340   26.9620   34.5490 C.ar  449  TRP449      0.0001
     88  CH2        1.4270   25.9250   35.3170 C.ar  449  TRP449      0.0015
     89  N         -3.9020   32.2300   34.3010 N.3   452  PHE452     -0.1227
     90  CA        -2.5090   32.6340   34.0730 C.3   452  PHE452      0.1736
     91  C         -2.2650   32.8960   32.5930 C.2   452  PHE452      0.2595
     92  O         -1.7740   33.9700   32.2280 O.2   452  PHE452     -0.2718
     93  CB        -1.5810   31.5370   34.5430 C.3   452  PHE452      0.0547
     94  CG        -0.1420   31.7650   34.2040 C.ar  452  PHE452     -0.0202
     95  CD1        0.5470   30.8630   33.4310 C.ar  452  PHE452     -0.0042
     96  CD2        0.5390   32.8640   34.7090 C.ar  452  PHE452     -0.0042
     97  CE1        1.9080   31.0400   33.1470 C.ar  452  PHE452     -0.0003
     98  CE2        1.8730   33.0630   34.4150 C.ar  452  PHE452     -0.0003
     99  CZ         2.5590   32.1530   33.6350 C.ar  452  PHE452     -0.0000
    100  N         -2.5970   31.9370   31.7340 N.am  453  ALA453     -0.1980
    101  CA        -2.2110   32.1070   30.3280 C.3   453  ALA453      0.1597
    102  C         -2.8950   33.3700   29.7600 C.2   453  ALA453      0.2287
    103  O         -2.2890   34.1090   28.9920 O.2   453  ALA453     -0.2864
    104  CB        -2.5610   30.8910   29.4960 C.3   453  ALA453      0.0319
    105  N         -1.4930   36.6580   31.0580 N.3   456  VAL456     -0.1231
    106  CA        -0.1490   36.9100   30.4270 C.3   456  VAL456      0.1692
    107  C         -0.2910   37.3220   28.9550 C.2   456  VAL456      0.2592
    108  O          0.3630   38.2880   28.4760 O.2   456  VAL456     -0.2718
    109  CB         0.8180   35.6730   30.5710 C.3   456  VAL456      0.0266
    110  CG1        2.0460   35.7640   29.5980 C.3   456  VAL456      0.0020
    111  CG2        1.2730   35.5750   32.0310 C.3   456  VAL456      0.0020
    112  N         -1.1240   36.5750   28.2250 N.am  457  PHE457     -0.1976
    113  CA        -1.3670   36.8850   26.8190 C.3   457  PHE457      0.1639
    114  C         -2.0490   38.2210   26.6730 C.2   457  PHE457      0.2290
    115  O         -1.7860   38.9200   25.7180 O.2   457  PHE457     -0.2864
    116  CB        -2.2410   35.8510   26.1300 C.3   457  PHE457      0.0560
    117  CG        -1.5890   34.5390   25.9160 C.ar  457  PHE457     -0.0200
    118  CD1       -0.2490   34.4510   25.6100 C.ar  457  PHE457     -0.0042
    119  CD2       -2.3550   33.3850   25.9350 C.ar  457  PHE457     -0.0042
    120  CE1        0.3430   33.2010   25.3790 C.ar  457  PHE457     -0.0003
    121  CE2       -1.7860   32.1470   25.6980 C.ar  457  PHE457     -0.0003
    122  CZ        -0.4400   32.0550   25.4330 C.ar  457  PHE457     -0.0000
    123  N          0.7820   40.8720   27.0280 N.3   460  LEU460     -0.1245
    124  CA         1.6650   40.9070   25.8660 C.3   460  LEU460      0.1561
    125  C          0.9250   41.5130   24.6510 C.2   460  LEU460      0.2260
    126  O          1.5060   42.2220   23.8730 O.2   460  LEU460     -0.2867
    127  CB         2.1400   39.4900   25.5330 C.3   460  LEU460      0.0270
    128  CG         3.0670   38.8330   26.5650 C.3   460  LEU460      0.0019
    129  CD1        3.3020   37.3950   26.1300 C.3   460  LEU460      0.0001
    130  CD2        4.3760   39.6150   26.7450 C.3   460  LEU460      0.0001
@<TRIPOS>BOND
     1     1     2    1
     2   126   125    2
     3     5     2    1
     4     5     6    1
     5     2     3    1
     6   125   124    1
     7     8     6   ar
     8     8    10   ar
     9     6     7   ar
    10   120   122   ar
    11   120   118   ar
    12     3     4    2
    13   122   121   ar
    14   127   124    1
    15   127   128    1
    16   118   117   ar
    17   121   119   ar
    18   115   114    2
    19   124   123    1
    20    10    11   ar
    21   117   119   ar
    22   117   116    1
    23   129   128    1
    24   116   113    1
    25     7     9   ar
    26   128   130    1
    27   114   113    1
    28   113   112    1
    29    11     9   ar
    30    11    12    1
    31    13    14    1
    32   112   107   am
    33   108   107    2
    34    19    17    1
    35   107   106    1
    36   103   102    2
    37    18    17    1
    38   104   101    1
    39    14    17    1
    40    14    15    1
    41   110   109    1
    42   102   101    1
    43   101   100    1
    44   106   109    1
    45   106   105    1
    46   109   111    1
    47    15    16    2
    48   100    91   am
    49    92    91    2
    50    91    90    1
    51    78    77    2
    52    97    95   ar
    53    97    99   ar
    54    77    76    1
    55    95    94   ar
    56    99    98   ar
    57    79    76    1
    58    79    80    1
    59    23    22    2
    60    90    89    1
    61    90    93    1
    62    37    39   ar
    63    37    35   ar
    64    94    93    1
    65    94    96   ar
    66    85    87   ar
    67    85    82   ar
    68    76    75    1
    69    46    44    1
    70    98    96   ar
    71    80    82   ar
    72    80    81   ar
    73    87    88   ar
    74    44    45    1
    75    44    41    1
    76    82    84   ar
    77    39    38   ar
    78    27    26    2
    79    35    34   ar
    80    22    21    1
    81    48    47    1
    82    48    49    1
    83    47    42   am
    84    81    83   ar
    85    88    86   ar
    86    24    21    1
    87    24    25    1
    88    84    83   ar
    89    84    86   ar
    90    57    51    1
    91    57    56    1
    92    26    28   am
    93    26    25    1
    94    41    42    1
    95    41    40    1
    96    49    51   am
    97    49    50    2
    98    42    43    2
    99    21    20    1
   100    38    36   ar
   101    51    52    1
   102    34    36   ar
   103    34    33    1
   104    56    55    1
   105    55    52    1
   106    52    53    1
   107    30    33    1
   108    30    31    1
   109    30    29    1
   110    74    72    1
   111    32    31    2
   112    53    54    2
   113    73    72    1
   114    72    71    1
   115    66    65    1
   116    64    63    1
   117    64    65    1
   118    63    62    1
   119    62    59    1
   120    71    68    1
   121    68    69    1
   122    68    67    1
   123    70    69    2
   124    59    58    1
   125    59    60    1
   126    60    61    2
