@<TRIPOS>MOLECULE
tmp/5h2fN01.pdb
 87 84 0 0 0
SMALL
GASTEIGER

@<TRIPOS>ATOM
      1  N          8.6720   12.0430   76.1760 N.3     9  LYS9       -0.1245
      2  CA         8.9410   12.6060   77.4870 C.3     9  LYS9        0.1561
      3  C          7.9290   13.7180   77.8520 C.2     9  LYS9        0.2260
      4  O          7.5370   13.8360   79.0240 O.2     9  LYS9       -0.2867
      5  CB        10.3580   13.1350   77.5250 C.3     9  LYS9        0.0271
      6  CG        11.0840   12.9200   78.8330 C.3     9  LYS9        0.0035
      7  CD        11.6570   11.5230   78.9240 C.3     9  LYS9        0.0206
      8  CE        12.2900   11.3270   80.2770 C.3     9  LYS9        0.1093
      9  NZ        12.1290    9.9490   80.8070 N.3     9  LYS9       -0.1314
     10  N          5.1030   12.5510   79.9340 N.3    12  THR12      -0.1203
     11  CA         5.3240   12.0160   81.2760 C.3    12  THR12       0.1994
     12  C          5.3340   13.1870   82.2530 C.2    12  THR12       0.2617
     13  O          4.9820   14.3040   81.8840 O.2    12  THR12      -0.2717
     14  CB         6.6310   11.2250   81.3830 C.3    12  THR12       0.1784
     15  OG1        7.7550   12.1330   81.4130 O.3    12  THR12      -0.2211
     16  CG2        6.7770   10.1660   80.2300 C.3    12  THR12       0.0376
     17  N          5.7110   12.9520   83.5050 N.am   13  ALA13      -0.1979
     18  CA         5.7430   14.0520   84.4860 C.3    13  ALA13       0.1597
     19  C          6.7840   15.1480   84.0870 C.2    13  ALA13       0.2287
     20  O          6.7350   16.2890   84.5620 O.2    13  ALA13      -0.2864
     21  CB         5.9790   13.5080   85.9110 C.3    13  ALA13       0.0319
     22  N         16.0480   14.5680   87.0340 N.3    21  ASN21      -0.1240
     23  CA        16.9180   13.7420   86.2130 C.3    21  ASN21       0.1653
     24  C         17.1660   14.2560   84.8110 C.2    21  ASN21       0.2266
     25  O         18.0940   13.7680   84.1510 O.2    21  ASN21      -0.2867
     26  CB        16.3890   12.3020   86.1420 C.3    21  ASN21       0.1155
     27  CG        16.3980   11.6100   87.5080 C.2    21  ASN21       0.2627
     28  OD1       17.1080   12.0410   88.4080 O.2    21  ASN21      -0.2716
     29  ND2       15.5800   10.5630   87.6700 N.am   21  ASN21      -0.0877
     30  N         21.4510   11.1400   88.5780 N.3    47  PRO47      -0.2102
     31  CA        19.9790   10.9880   88.7310 C.3    47  PRO47       0.1504
     32  C         19.6010   10.5660   90.1530 C.2    47  PRO47       0.2576
     33  O         20.4880   10.2030   90.9490 O.2    47  PRO47      -0.2718
     34  CB        19.6480    9.8390   87.7680 C.3    47  PRO47       0.0282
     35  CG        20.8870    8.9810   87.8210 C.3    47  PRO47       0.0208
     36  CD        22.0690    9.9230   87.9940 C.3    47  PRO47       0.0893
     37  N         18.2960   10.5600   90.4110 N.am   48  TYR48      -0.1963
     38  CA        17.7030   10.4090   91.7090 C.3    48  TYR48       0.1771
     39  C         16.6530    9.3430   91.5270 C.2    48  TYR48       0.2619
     40  O         15.9910    9.3340   90.4860 O.2    48  TYR48      -0.2715
     41  CB        16.9960   11.7090   92.0920 C.3    48  TYR48       0.0574
     42  CG        17.9660   12.8480   92.2540 C.ar   48  TYR48      -0.0198
     43  CD1       18.7210   12.9840   93.4380 C.ar   48  TYR48      -0.0009
     44  CD2       18.1790   13.7750   91.2110 C.ar   48  TYR48      -0.0009
     45  CE1       19.6440   14.0020   93.5920 C.ar   48  TYR48       0.0417
     46  CE2       19.1190   14.8000   91.3510 C.ar   48  TYR48       0.0417
     47  CZ        19.8490   14.9140   92.5390 C.ar   48  TYR48       0.1957
     48  OH        20.7770   15.9320   92.6860 O.3    48  TYR48      -0.2866
     49  N         16.4900    8.4610   92.5220 N.am   49  GLU49      -0.1977
     50  CA        15.5240    7.3830   92.4410 C.3    49  GLU49       0.1602
     51  C         14.1610    7.8720   92.8140 C.2    49  GLU49       0.2287
     52  O         13.1570    7.3790   92.3190 O.2    49  GLU49      -0.2864
     53  CB        15.9220    6.2310   93.3440 C.3    49  GLU49       0.0415
     54  CG        16.9040    5.2570   92.7400 C.3    49  GLU49       0.1163
     55  CD        16.8570    3.9120   93.4570 C.2    49  GLU49       0.3649
     56  OE1       16.7110    3.8980   94.7110 O.co2  49  GLU49      -0.2457
     57  OE2       16.9450    2.8630   92.7670 O.co2  49  GLU49      -0.2457
     58  N         10.7610   12.9240   89.0530 N.3    77  VAL77      -0.1231
     59  CA        11.8880   12.1380   88.5420 C.3    77  VAL77       0.1692
     60  C         11.3180   11.1860   87.4950 C.2    77  VAL77       0.2593
     61  O         10.2110   10.6600   87.6850 O.2    77  VAL77      -0.2718
     62  CB        12.5850   11.2860   89.6260 C.3    77  VAL77       0.0266
     63  CG1       13.5310   12.1390   90.4670 C.3    77  VAL77       0.0020
     64  CG2       11.5570   10.5570   90.5090 C.3    77  VAL77       0.0020
     65  N         12.0240   11.0330   86.3680 N.am   78  THR78      -0.1939
     66  CA        11.7350    9.9790   85.3990 C.3    78  THR78       0.2028
     67  C         13.1150    9.4900   85.0150 C.2    78  THR78       0.2642
     68  O         14.1040   10.0990   85.3970 O.2    78  THR78      -0.2714
     69  CB        11.0060   10.5160   84.1310 C.3    78  THR78       0.1808
     70  OG1       11.8960   11.3450   83.3570 O.3    78  THR78      -0.2208
     71  CG2        9.6900   11.2880   84.4690 C.3    78  THR78       0.0379
     72  N         13.1840    8.4350   84.2160 N.am   79  GLU79      -0.1963
     73  CA        14.4550    7.8830   83.7330 C.3    79  GLU79       0.1733
     74  C         15.2830    8.8930   82.9750 C.2    79  GLU79       0.2616
     75  O         14.7570    9.6740   82.1990 O.2    79  GLU79      -0.2715
     76  CB        14.2070    6.7300   82.7600 C.3    79  GLU79       0.0429
     77  CG        12.9250    5.9660   82.9840 C.3    79  GLU79       0.1163
     78  CD        13.0880    4.4820   82.6840 C.2    79  GLU79       0.3649
     79  OE1       13.8120    4.1230   81.7010 O.co2  79  GLU79      -0.2457
     80  OE2       12.4930    3.6780   83.4460 O.co2  79  GLU79      -0.2457
     81  N         16.5850    8.8410   83.1670 N.am   80  VAL80      -0.1977
     82  CA        17.4850    9.6740   82.4430 C.3    80  VAL80       0.1596
     83  C         17.1930    9.4150   80.9640 C.2    80  VAL80       0.2287
     84  O         17.1660    8.2790   80.5190 O.2    80  VAL80      -0.2864
     85  CB        18.9440    9.3600   82.8540 C.3    80  VAL80       0.0276
     86  CG1       19.9480   10.0090   81.9290 C.3    80  VAL80       0.0022
     87  CG2       19.1770    9.7510   84.3230 C.3    80  VAL80       0.0022
@<TRIPOS>BOND
     1     1     2    1
     2     2     5    1
     3     2     3    1
     4     5     6    1
     5     3     4    2
     6     6     7    1
     7     7     8    1
     8    10    11    1
     9    16    14    1
    10     8     9    1
    11    84    83    2
    12    83    82    1
    13    11    14    1
    14    11    12    1
    15    14    15    1
    16    79    78   ar
    17    13    12    2
    18    86    85    1
    19    75    74    2
    20    12    17   am
    21    82    85    1
    22    82    81    1
    23    78    77    1
    24    78    80   ar
    25    76    77    1
    26    76    73    1
    27    85    87    1
    28    74    81   am
    29    74    73    1
    30    70    69    1
    31    17    18    1
    32    73    72    1
    33    19    18    1
    34    19    20    2
    35    69    71    1
    36    69    66    1
    37    25    24    2
    38    72    67   am
    39    18    21    1
    40    24    23    1
    41    67    68    2
    42    67    66    1
    43    66    65    1
    44    26    23    1
    45    26    27    1
    46    23    22    1
    47    65    60   am
    48    60    61    2
    49    60    59    1
    50    27    29   am
    51    27    28    2
    52    34    35    1
    53    34    31    1
    54    35    36    1
    55    36    30    1
    56    59    58    1
    57    59    62    1
    58    30    31    1
    59    31    32    1
    60    62    63    1
    61    62    64    1
    62    32    37   am
    63    32    33    2
    64    37    38    1
    65    40    39    2
    66    44    46   ar
    67    44    42   ar
    68    46    47   ar
    69    39    38    1
    70    39    49   am
    71    38    41    1
    72    41    42    1
    73    42    43   ar
    74    52    51    2
    75    50    49    1
    76    50    51    1
    77    50    53    1
    78    47    48    1
    79    47    45   ar
    80    54    53    1
    81    54    55    1
    82    57    55   ar
    83    43    45   ar
    84    55    56   ar
