@<TRIPOS>MOLECULE
tmp/5h2fB03.pdb
 99 97 0 0 0
SMALL
GASTEIGER

@<TRIPOS>ATOM
      1  N         14.1890   40.5760    3.5460 N.3     2  LEU2       -0.1245
      2  CA        13.4230   40.7170    4.7930 C.3     2  LEU2        0.1561
      3  C         14.1050   40.0750    5.9910 C.2     2  LEU2        0.2260
      4  O         14.4880   38.8910    5.9420 O.2     2  LEU2       -0.2867
      5  CB        12.0150   40.1440    4.6480 C.3     2  LEU2        0.0270
      6  CG        11.0190   40.9260    3.7660 C.3     2  LEU2        0.0019
      7  CD1        9.7570   40.1150    3.5570 C.3     2  LEU2        0.0001
      8  CD2       10.6670   42.2970    4.3050 C.3     2  LEU2        0.0001
      9  N         14.1330   38.3080    9.6420 N.3     4  TRP4       -0.1241
     10  CA        13.2150   37.2160   10.0530 C.3     4  TRP4        0.1605
     11  C         11.9160   37.6920   10.7000 C.2     4  TRP4        0.2264
     12  O         10.8350   37.0790   10.5310 O.2     4  TRP4       -0.2867
     13  CB        13.9370   36.2030   10.9570 C.3     4  TRP4        0.0550
     14  CG        14.3230   36.7990   12.3090 C.ar    4  TRP4        0.0003
     15  CD1       15.5060   37.4680   12.6460 C.ar    4  TRP4        0.0946
     16  CD2       13.5060   36.8330   13.5320 C.ar    4  TRP4        0.0152
     17  NE1       15.4750   37.8870   13.9540 N.ar    4  TRP4       -0.2442
     18  CE2       14.3170   37.5450   14.5470 C.ar    4  TRP4        0.0810
     19  CE3       12.2520   36.3610   13.8770 C.ar    4  TRP4        0.0012
     20  CZ2       13.8660   37.7510   15.8360 C.ar    4  TRP4        0.0191
     21  CZ3       11.8010   36.5860   15.1810 C.ar    4  TRP4        0.0001
     22  CH2       12.5830   37.2710   16.1370 C.ar    4  TRP4        0.0015
     23  N          9.2560   38.5870    7.8750 N.3     7  VAL7       -0.1231
     24  CA         8.8340   37.6950    6.8100 C.3     7  VAL7        0.1692
     25  C          7.3370   37.7580    6.4260 C.2     7  VAL7        0.2592
     26  O          7.0090   37.5830    5.2470 O.2     7  VAL7       -0.2718
     27  CB         9.2990   36.2120    7.0140 C.3     7  VAL7        0.0266
     28  CG1       10.8290   36.1230    6.9780 C.3     7  VAL7        0.0020
     29  CG2        8.6970   35.6190    8.3010 C.3     7  VAL7        0.0020
     30  N          6.4270   37.9480    7.3830 N.am    8  HIS8       -0.1976
     31  CA         4.9780   37.7900    7.0550 C.3     8  HIS8        0.1656
     32  C          4.3850   39.0400    6.4620 C.2     8  HIS8        0.2291
     33  O          3.2210   39.0460    6.0420 O.2     8  HIS8       -0.2864
     34  CB         4.1590   37.3480    8.2670 C.3     8  HIS8        0.0771
     35  CG         4.5110   35.9570    8.7640 C.ar    8  HIS8        0.0820
     36  ND1        4.1920   35.5220   10.0010 N.ar    8  HIS8       -0.2267
     37  CD2        5.2020   34.9210    8.1530 C.ar    8  HIS8        0.1154
     38  CE1        4.6260   34.2650   10.1540 C.ar    8  HIS8        0.1986
     39  NE2        5.2420   33.8960    9.0300 N.ar    8  HIS8       -0.2212
     40  N          5.1440   40.1930    3.6640 N.3    10  VAL10      -0.1231
     41  CA         4.9210   39.9660    2.2370 C.3    10  VAL10       0.1692
     42  C          3.4420   39.7880    1.9660 C.2    10  VAL10       0.2591
     43  O          3.0550   39.7530    0.7990 O.2    10  VAL10      -0.2718
     44  CB         5.6730   38.7330    1.6420 C.3    10  VAL10       0.0266
     45  CG1        7.1880   38.8260    1.8800 C.3    10  VAL10       0.0020
     46  CG2        5.1110   37.4070    2.1470 C.3    10  VAL10       0.0020
     47  N          2.6220   39.6700    3.0180 N.am   11  LEU11      -0.1980
     48  CA         1.1780   39.4440    2.8250 C.3    11  LEU11       0.1596
     49  C          0.4030   40.7410    2.8290 C.2    11  LEU11       0.2287
     50  O         -0.7810   40.7430    2.4730 O.2    11  LEU11      -0.2864
     51  CB         0.6200   38.5400    3.9140 C.3    11  LEU11       0.0297
     52  CG         1.2660   37.1440    4.0710 C.3    11  LEU11       0.0022
     53  CD1        0.7780   36.4350    5.3330 C.3    11  LEU11       0.0001
     54  CD2        0.9380   36.3130    2.8510 C.3    11  LEU11       0.0001
     55  N         -3.1870   32.6840    4.6270 N.3    21  ALA21      -0.1245
     56  CA        -2.5450   32.6030    5.9340 C.3    21  ALA21       0.1562
     57  C         -3.5980   32.4930    7.0570 C.2    21  ALA21       0.2260
     58  O         -3.4620   31.6650    7.9780 O.2    21  ALA21      -0.2867
     59  CB        -1.6630   33.8180    6.1620 C.3    21  ALA21       0.0290
     60  N         -5.0070   29.1140    7.1120 N.3    24  MET24      -0.1230
     61  CA        -4.0840   28.1500    7.6900 C.3    24  MET24       0.1702
     62  C         -4.1120   28.2620    9.2290 C.2    24  MET24       0.2592
     63  O         -4.1750   27.2290    9.9530 O.2    24  MET24      -0.2718
     64  CB        -2.6500   28.3580    7.1400 C.3    24  MET24       0.0401
     65  CG        -1.6380   27.3000    7.6030 C.3    24  MET24       0.0596
     66  SD        -2.0840   25.5990    7.1630 S.3    24  MET24      -0.1393
     67  CE        -2.5880   25.9080    5.4530 C.3    24  MET24       0.0692
     68  N         -4.1080   29.5080    9.7200 N.am   25  HIS25      -0.1976
     69  CA        -4.1260   29.7540   11.1510 C.3    25  HIS25       0.1656
     70  C         -5.3900   29.1910   11.7380 C.2    25  HIS25       0.2291
     71  O         -5.3540   28.4830   12.7550 O.2    25  HIS25      -0.2864
     72  CB        -4.0290   31.2280   11.4590 C.3    25  HIS25       0.0771
     73  CG        -4.0690   31.5200   12.9350 C.ar   25  HIS25       0.0820
     74  ND1       -5.2440   31.7600   13.6050 N.ar   25  HIS25      -0.2267
     75  CD2       -3.0550   31.5370   13.8860 C.ar   25  HIS25       0.1154
     76  CE1       -4.9750   31.9590   14.9200 C.ar   25  HIS25       0.1986
     77  NE2       -3.6390   31.7880   15.0980 N.ar   25  HIS25      -0.2212
     78  N         -5.1570   25.3760   11.9210 N.3    28  LEU28      -0.1245
     79  CA        -4.3790   24.9700   13.0610 C.3    28  LEU28       0.1561
     80  C         -5.1330   25.0850   14.3970 C.2    28  LEU28       0.2260
     81  O         -5.0270   24.1840   15.2290 O.2    28  LEU28      -0.2867
     82  CB        -3.0920   25.7860   13.1340 C.3    28  LEU28       0.0270
     83  CG        -2.0700   25.4440   12.0350 C.3    28  LEU28       0.0019
     84  CD1       -1.0360   26.5560   11.8950 C.3    28  LEU28       0.0001
     85  CD2       -1.3970   24.1000   12.2920 C.3    28  LEU28       0.0001
     86  N         -3.9540   30.4080   -1.7380 N.3   114  TRP114     -0.1241
     87  CA        -2.5450   30.7230   -1.8630 C.3   114  TRP114      0.1605
     88  C         -2.1710   30.6320   -3.3220 C.2   114  TRP114      0.2264
     89  O         -1.4070   31.4600   -3.8380 O.2   114  TRP114     -0.2867
     90  CB        -1.7160   29.7330   -1.0450 C.3   114  TRP114      0.0550
     91  CG        -0.2610   30.0290   -1.1320 C.ar  114  TRP114      0.0003
     92  CD1        0.6600   29.5240   -2.0390 C.ar  114  TRP114      0.0946
     93  CD2        0.5000   30.8980   -0.2500 C.ar  114  TRP114      0.0152
     94  NE1        1.9180   30.0360   -1.7970 N.ar  114  TRP114     -0.2442
     95  CE2        1.8850   30.8880   -0.7580 C.ar  114  TRP114      0.0810
     96  CE3        0.1810   31.7050    0.8440 C.ar  114  TRP114      0.0012
     97  CZ2        2.8920   31.6200   -0.1510 C.ar  114  TRP114      0.0191
     98  CZ3        1.2090   32.4520    1.4430 C.ar  114  TRP114      0.0001
     99  CH2        2.5390   32.3910    0.9620 C.ar  114  TRP114      0.0015
@<TRIPOS>BOND
     1    89    88    2
     2    88    87    1
     3    92    94   ar
     4    92    91   ar
     5    87    86    1
     6    87    90    1
     7    94    95   ar
     8    91    90    1
     9    91    93   ar
    10    95    93   ar
    11    95    97   ar
    12    93    96   ar
    13    97    99   ar
    14    43    42    2
    15    96    98   ar
    16    99    98   ar
    17    44    45    1
    18    44    46    1
    19    44    41    1
    20    42    41    1
    21    42    47   am
    22    41    40    1
    23    50    49    2
    24    48    49    1
    25    48    47    1
    26    48    51    1
    27    54    52    1
    28     1     2    1
    29     7     6    1
    30     6     8    1
    31     6     5    1
    32    51    52    1
    33    52    53    1
    34    55    56    1
    35     5     2    1
    36     2     3    1
    37    26    25    2
    38    67    66    1
    39    56    59    1
    40    56    57    1
    41     4     3    2
    42    33    32    2
    43    25    24    1
    44    25    30   am
    45    32    31    1
    46    24    27    1
    47    24    23    1
    48    28    27    1
    49    27    29    1
    50    31    30    1
    51    31    34    1
    52    57    58    2
    53    60    61    1
    54    64    65    1
    55    64    61    1
    56    66    65    1
    57    61    62    1
    58    37    35   ar
    59    37    39   ar
    60    34    35    1
    61    35    36   ar
    62    39    38   ar
    63    62    68   am
    64    62    63    2
    65     9    10    1
    66    68    69    1
    67    36    38   ar
    68    10    11    1
    69    10    13    1
    70    12    11    2
    71    13    14    1
    72    69    72    1
    73    69    70    1
    74    72    73    1
    75    70    71    2
    76    84    83    1
    77    78    79    1
    78    83    85    1
    79    83    82    1
    80    14    15   ar
    81    14    16   ar
    82    15    17   ar
    83    73    74   ar
    84    73    75   ar
    85    79    82    1
    86    79    80    1
    87    16    19   ar
    88    16    18   ar
    89    74    76   ar
    90    19    21   ar
    91    75    77   ar
    92    17    18   ar
    93    80    81    2
    94    18    20   ar
    95    76    77   ar
    96    21    22   ar
    97    20    22   ar
