@<TRIPOS>MOLECULE
tmp/5h2fC12.pdb
 92 89 0 0 0
SMALL
GASTEIGER

@<TRIPOS>ATOM
      1  N         44.5330   71.1390   59.9800 N.3    39  VAL39      -0.1245
      2  CA        45.0140   71.4150   61.3040 C.3    39  VAL39       0.1561
      3  C         43.8650   72.0110   62.0820 C.2    39  VAL39       0.2260
      4  O         43.7260   71.7420   63.2720 O.2    39  VAL39      -0.2867
      5  CB        46.2920   72.3330   61.2750 C.3    39  VAL39       0.0252
      6  CG1       46.7430   72.7240   62.6790 C.3    39  VAL39       0.0019
      7  CG2       47.4060   71.6020   60.6000 C.3    39  VAL39       0.0019
      8  N         49.0430   60.5260   76.9670 N.3    75  TRP75      -0.1241
      9  CA        48.6020   61.7570   77.5980 C.3    75  TRP75       0.1605
     10  C         47.2410   61.5990   78.1670 C.2    75  TRP75       0.2264
     11  O         46.2940   61.1490   77.4700 O.2    75  TRP75      -0.2867
     12  CB        48.5620   62.9080   76.6210 C.3    75  TRP75       0.0550
     13  CG        49.8950   63.5440   76.3830 C.ar   75  TRP75       0.0003
     14  CD1       50.8150   63.9620   77.3350 C.ar   75  TRP75       0.0946
     15  CD2       50.5080   63.8660   75.0870 C.ar   75  TRP75       0.0152
     16  NE1       51.9170   64.5140   76.7320 N.ar   75  TRP75      -0.2442
     17  CE2       51.8020   64.4920   75.3920 C.ar   75  TRP75       0.0810
     18  CE3       50.1300   63.7070   73.7560 C.ar   75  TRP75       0.0012
     19  CZ2       52.6720   64.9230   74.3930 C.ar   75  TRP75       0.0191
     20  CZ3       51.0220   64.1450   72.7600 C.ar   75  TRP75       0.0001
     21  CH2       52.2520   64.7410   73.0760 C.ar   75  TRP75       0.0015
     22  N         43.5320   63.1660   83.7150 N.3    85  ASP85      -0.1239
     23  CA        43.7460   64.5810   83.4270 C.3    85  ASP85       0.1674
     24  C         43.4400   64.9700   81.9770 C.2    85  ASP85       0.2266
     25  O         44.1750   64.5900   81.0660 O.2    85  ASP85      -0.2867
     26  CB        45.2170   64.9040   83.6780 C.3    85  ASP85       0.1410
     27  CG        45.5370   66.3700   83.4690 C.2    85  ASP85       0.3668
     28  OD1       44.6050   67.1940   83.2530 O.co2  85  ASP85      -0.2456
     29  OD2       46.7500   66.6930   83.5350 O.co2  85  ASP85      -0.2456
     30  N         43.5810   67.9800   80.5950 N.3    87  PHE87      -0.1228
     31  CA        44.3170   69.1570   80.1370 C.3    87  PHE87       0.1721
     32  C         45.1960   68.9070   78.8850 C.2    87  PHE87       0.2437
     33  O         45.1810   69.7160   77.9540 O.2    87  PHE87      -0.2733
     34  CB        45.1000   69.8190   81.3100 C.3    87  PHE87       0.0547
     35  CG        45.6860   71.1660   80.9600 C.ar   87  PHE87      -0.0202
     36  CD1       47.0430   71.3390   80.8890 C.ar   87  PHE87      -0.0042
     37  CD2       44.8610   72.2330   80.6280 C.ar   87  PHE87      -0.0042
     38  CE1       47.5820   72.5650   80.5470 C.ar   87  PHE87      -0.0003
     39  CE2       45.3850   73.4660   80.2640 C.ar   87  PHE87      -0.0003
     40  CZ        46.7550   73.6260   80.2150 C.ar   87  PHE87      -0.0000
     41  N         45.9470   67.7810   78.8450 N.am   88  PRO88      -0.2729
     42  CA        46.6620   67.4590   77.5760 C.3    88  PRO88       0.1401
     43  C         45.7230   67.3920   76.3600 C.2    88  PRO88       0.2269
     44  O         46.0540   67.9080   75.2840 O.2    88  PRO88      -0.2865
     45  CB        47.2970   66.1020   77.8450 C.3    88  PRO88       0.0296
     46  CG        47.3010   65.9310   79.3360 C.3    88  PRO88       0.0237
     47  CD        46.2200   66.7950   79.9180 C.3    88  PRO88       0.0939
     48  N         45.2140   71.0330   75.5800 N.3    91  VAL91      -0.1231
     49  CA        46.4260   71.6100   74.9630 C.3    91  VAL91       0.1692
     50  C         46.5420   71.2200   73.4870 C.2    91  VAL91       0.2591
     51  O         46.7010   72.0880   72.6030 O.2    91  VAL91      -0.2718
     52  CB        47.7150   71.1910   75.7210 C.3    91  VAL91       0.0266
     53  CG1       48.9600   71.6720   74.9870 C.3    91  VAL91       0.0020
     54  CG2       47.7220   71.7680   77.1440 C.3    91  VAL91       0.0020
     55  N         46.4420   69.9230   73.2100 N.am   92  VAL92      -0.1980
     56  CA        46.4610   69.4580   71.8270 C.3    92  VAL92       0.1595
     57  C         45.4320   70.1920   70.9140 C.2    92  VAL92       0.2287
     58  O         45.7290   70.5490   69.7580 O.2    92  VAL92      -0.2864
     59  CB        46.2280   67.9220   71.7480 C.3    92  VAL92       0.0276
     60  CG1       46.1290   67.4840   70.2970 C.3    92  VAL92       0.0022
     61  CG2       47.3200   67.1210   72.4600 C.3    92  VAL92       0.0022
     62  N         46.3230   74.2200   70.5800 N.3    95  VAL95      -0.1231
     63  CA        47.5240   74.5310   69.8070 C.3    95  VAL95       0.1692
     64  C         47.2560   74.2830   68.2920 C.2    95  VAL95       0.2592
     65  O         47.5920   75.1220   67.4570 O.2    95  VAL95      -0.2718
     66  CB        48.7850   73.8180   70.3540 C.3    95  VAL95       0.0266
     67  CG1       49.9920   74.0920   69.4610 C.3    95  VAL95       0.0020
     68  CG2       49.0890   74.2780   71.7940 C.3    95  VAL95       0.0020
     69  N         46.5960   73.1700   67.9390 N.am   96  HIS96      -0.1976
     70  CA        46.1630   72.9630   66.5220 C.3    96  HIS96       0.1656
     71  C         45.2570   74.0700   66.0500 C.2    96  HIS96       0.2291
     72  O         45.4120   74.5860   64.9470 O.2    96  HIS96      -0.2864
     73  CB        45.4360   71.6170   66.3110 C.3    96  HIS96       0.0771
     74  CG        46.3460   70.4490   66.2130 C.ar   96  HIS96       0.0820
     75  ND1       46.7580   69.7600   67.2950 N.ar   96  HIS96      -0.2267
     76  CD2       46.9400   69.8480   65.1060 C.ar   96  HIS96       0.1154
     77  CE1       47.5940   68.7870   66.9100 C.ar   96  HIS96       0.1986
     78  NE2       47.6960   68.8390   65.5570 N.ar   96  HIS96      -0.2212
     79  N         47.3650   77.3460   65.5640 N.3    99  SER99      -0.1217
     80  CA        48.2460   77.0780   64.4300 C.3    99  SER99       0.1889
     81  C         47.5390   77.1490   63.0840 C.2    99  SER99       0.2288
     82  O         48.0980   77.6280   62.0950 O.2    99  SER99      -0.2866
     83  CB        48.9270   75.7210   64.5950 C.3    99  SER99       0.2089
     84  OG        49.6970   75.7040   65.7800 O.3    99  SER99      -0.2183
     85  N         48.5640   79.0030   59.3580 N.3   103  LEU103     -0.1245
     86  CA        48.5030   78.3670   58.0300 C.3   103  LEU103      0.1561
     87  C         47.4510   79.0170   57.1370 C.2   103  LEU103      0.2260
     88  O         47.7250   79.2900   55.9650 O.2   103  LEU103     -0.2867
     89  CB        48.2310   76.8670   58.1350 C.3   103  LEU103      0.0270
     90  CG        49.1740   76.0190   58.9650 C.3   103  LEU103      0.0019
     91  CD1       48.5840   74.6270   59.1670 C.3   103  LEU103      0.0001
     92  CD2       50.5380   75.9540   58.2940 C.3   103  LEU103      0.0001
@<TRIPOS>BOND
     1    88    87    2
     2    87    86    1
     3    86    89    1
     4    86    85    1
     5    89    90    1
     6    92    90    1
     7    90    91    1
     8     1     2    1
     9     7     5    1
    10     5     2    1
    11     5     6    1
    12     2     3    1
    13     3     4    2
    14    82    81    2
    15    81    80    1
    16    80    83    1
    17    80    79    1
    18    83    84    1
    19    72    71    2
    20    76    78   ar
    21    76    74   ar
    22    78    77   ar
    23    71    70    1
    24    74    73    1
    25    74    75   ar
    26    73    70    1
    27    70    69    1
    28    77    75   ar
    29    65    64    2
    30    69    64   am
    31    64    63    1
    32    67    66    1
    33    58    57    2
    34    63    66    1
    35    63    62    1
    36    60    59    1
    37    66    68    1
    38    57    56    1
    39    59    56    1
    40    59    61    1
    41    56    55    1
    42    51    50    2
    43    20    21   ar
    44    20    18   ar
    45    21    19   ar
    46    55    50   am
    47    50    49    1
    48    18    15   ar
    49    19    17   ar
    50    49    48    1
    51    49    52    1
    52    53    52    1
    53    15    17   ar
    54    15    13   ar
    55    44    43    2
    56    17    16   ar
    57    52    54    1
    58    43    42    1
    59    13    12    1
    60    13    14   ar
    61    12     9    1
    62    16    14   ar
    63     8     9    1
    64    11    10    2
    65    42    45    1
    66    42    41    1
    67     9    10    1
    68    45    46    1
    69    33    32    2
    70    41    32   am
    71    41    47    1
    72    32    31    1
    73    46    47    1
    74    31    30    1
    75    31    34    1
    76    40    39   ar
    77    40    38   ar
    78    39    37   ar
    79    38    36   ar
    80    37    35   ar
    81    36    35   ar
    82    35    34    1
    83    25    24    2
    84    24    23    1
    85    28    27   ar
    86    23    26    1
    87    23    22    1
    88    27    29   ar
    89    27    26    1
