@<TRIPOS>MOLECULE
tmp/5h2fB07.pdb
 96 93 0 0 0
SMALL
GASTEIGER

@<TRIPOS>ATOM
      1  N         -7.1490   26.8290   10.4800 N.3    27  ALA27      -0.1231
      2  CA        -7.0680   25.3720   10.3670 C.3    27  ALA27       0.1694
      3  C         -6.2720   24.7520   11.5510 C.2    27  ALA27       0.2592
      4  O         -6.6600   23.7310   12.0970 O.2    27  ALA27      -0.2718
      5  CB        -6.4420   24.9780    9.0120 C.3    27  ALA27       0.0304
      6  N         -5.1570   25.3760   11.9210 N.am   28  LEU28      -0.1966
      7  CA        -4.3790   24.9700   13.0610 C.3    28  LEU28       0.1728
      8  C         -5.1330   25.0850   14.3970 C.2    28  LEU28       0.2616
      9  O         -5.0270   24.1840   15.2290 O.2    28  LEU28      -0.2715
     10  CB        -3.0920   25.7860   13.1340 C.3    28  LEU28       0.0311
     11  CG        -2.0700   25.4440   12.0350 C.3    28  LEU28       0.0022
     12  CD1       -1.0360   26.5560   11.8950 C.3    28  LEU28       0.0001
     13  CD2       -1.3970   24.1000   12.2920 C.3    28  LEU28       0.0001
     14  N         -5.8600   26.1840   14.6030 N.am   29  VAL29      -0.1977
     15  CA        -6.6210   26.3890   15.8090 C.3    29  VAL29       0.1596
     16  C         -7.7350   25.3150   15.9210 C.2    29  VAL29       0.2287
     17  O         -7.8760   24.6580   16.9940 O.2    29  VAL29      -0.2864
     18  CB        -7.1430   27.8540   15.9400 C.3    29  VAL29       0.0276
     19  CG1       -7.9880   28.0460   17.2140 C.3    29  VAL29       0.0022
     20  CG2       -5.9540   28.8060   15.9480 C.3    29  VAL29       0.0022
     21  N         -7.8240   22.4490   14.4420 N.3    31  GLY31      -0.1210
     22  CA        -7.1000   21.1830   14.5110 C.3    31  GLY31       0.1956
     23  C         -6.6040   20.9490   15.9420 C.2    31  GLY31       0.2611
     24  O         -6.7030   19.8350   16.4920 O.2    31  GLY31      -0.2717
     25  N         -6.0990   22.0060   16.5560 N.am   32  TRP32      -0.1976
     26  CA        -5.7470   21.9200   17.9620 C.3    32  TRP32       0.1640
     27  C         -6.9380   21.5060   18.8190 C.2    32  TRP32       0.2290
     28  O         -6.8570   20.5220   19.5990 O.2    32  TRP32      -0.2864
     29  CB        -5.1020   23.2240   18.4570 C.3    32  TRP32       0.0576
     30  CG        -4.8400   23.1350   19.9360 C.ar   32  TRP32       0.0006
     31  CD1       -3.7230   22.5740   20.5700 C.ar   32  TRP32       0.0946
     32  CD2       -5.7570   23.5320   21.0260 C.ar   32  TRP32       0.0152
     33  NE1       -3.8750   22.6350   21.9310 N.ar   32  TRP32      -0.2442
     34  CE2       -5.0740   23.1870   22.2720 C.ar   32  TRP32       0.0810
     35  CE3       -7.0040   24.1360   21.0780 C.ar   32  TRP32       0.0012
     36  CZ2       -5.6230   23.4450   23.5080 C.ar   32  TRP32       0.0191
     37  CZ3       -7.5780   24.3870   22.3470 C.ar   32  TRP32       0.0001
     38  CH2       -6.8930   24.0500   23.5330 C.ar   32  TRP32       0.0015
     39  N         -7.8560   17.7600   18.3400 N.3    35  SER35      -0.1217
     40  CA        -6.7540   16.9460   18.8520 C.3    35  SER35       0.1889
     41  C         -6.7060   16.9590   20.3640 C.2    35  SER35       0.2288
     42  O         -6.4320   15.9480   20.9920 O.2    35  SER35      -0.2866
     43  CB        -5.4530   17.5540   18.3540 C.3    35  SER35       0.2089
     44  OG        -5.4380   17.4150   16.9730 O.3    35  SER35      -0.2183
     45  N        -11.7450   18.3400   13.5550 N.3   100  ILE100     -0.1231
     46  CA       -10.7240   17.7770   12.6720 C.3   100  ILE100      0.1692
     47  C        -11.0890   17.9160   11.1730 C.2   100  ILE100      0.2591
     48  O        -10.2530   18.3070   10.3320 O.2   100  ILE100     -0.2718
     49  CB       -10.4010   16.2850   13.0320 C.3   100  ILE100      0.0266
     50  CG1       -9.8920   16.1540   14.5020 C.3   100  ILE100      0.0019
     51  CG2       -9.4210   15.6910   12.0080 C.3   100  ILE100      0.0020
     52  CD1       -8.5170   16.7800   14.7590 C.3   100  ILE100      0.0001
     53  N        -12.3340   17.5990   10.8330 N.am  101  VAL101     -0.1980
     54  CA       -12.7660   17.6760    9.4440 C.3   101  VAL101      0.1595
     55  C        -12.7010   19.1350    8.9770 C.2   101  VAL101      0.2287
     56  O        -12.1410   19.4380    7.9040 O.2   101  VAL101     -0.2864
     57  CB       -14.1670   17.0520    9.2240 C.3   101  VAL101      0.0276
     58  CG1      -14.5830   17.2010    7.7420 C.3   101  VAL101      0.0022
     59  CG2      -14.1470   15.5690    9.6310 C.3   101  VAL101      0.0022
     60  N        -10.8500   21.5730   10.2370 N.3   103  SER103     -0.1202
     61  CA        -9.4460   21.8690   10.0710 C.3   103  SER103      0.2020
     62  C         -8.9450   21.4690    8.6480 C.2   103  SER103      0.2619
     63  O         -8.3700   22.3040    7.9610 O.2   103  SER103     -0.2717
     64  CB        -8.6480   21.1230   11.1320 C.3   103  SER103      0.2103
     65  OG        -7.2820   21.3440   10.9170 O.3   103  SER103     -0.2182
     66  N         -9.2060   20.2190    8.2230 N.am  104  GLY104     -0.1942
     67  CA        -8.9110   19.7290    6.8850 C.3   104  GLY104      0.2014
     68  C         -9.4740   20.5500    5.7120 C.2   104  GLY104      0.2638
     69  O         -8.7320   20.8700    4.7680 O.2   104  GLY104     -0.2714
     70  N        -10.7630   20.9260    5.7960 N.am  105  LEU105     -0.1977
     71  CA       -11.4380   21.7360    4.7980 C.3   105  LEU105      0.1596
     72  C        -10.8070   23.1090    4.7420 C.2   105  LEU105      0.2287
     73  O        -10.5490   23.6500    3.6670 O.2   105  LEU105     -0.2864
     74  CB       -12.9370   21.8670    5.1410 C.3   105  LEU105      0.0297
     75  CG       -13.7040   20.5600    4.9220 C.3   105  LEU105      0.0022
     76  CD1      -15.1730   20.7320    5.3010 C.3   105  LEU105      0.0001
     77  CD2      -13.5460   20.0450    3.4880 C.3   105  LEU105      0.0001
     78  N         -7.8030   23.8360    5.5310 N.3   107  PHE107     -0.1227
     79  CA        -6.4490   23.7180    5.0190 C.3   107  PHE107      0.1736
     80  C         -6.4560   23.7150    3.4620 C.2   107  PHE107      0.2595
     81  O         -5.6650   24.4080    2.8100 O.2   107  PHE107     -0.2718
     82  CB        -5.7740   22.4370    5.5460 C.3   107  PHE107      0.0547
     83  CG        -4.5090   22.0880    4.8210 C.ar  107  PHE107     -0.0202
     84  CD1       -4.4830   21.0700    3.8810 C.ar  107  PHE107     -0.0042
     85  CD2       -3.3350   22.7980    5.0640 C.ar  107  PHE107     -0.0042
     86  CE1       -3.3140   20.7660    3.2060 C.ar  107  PHE107     -0.0003
     87  CE2       -2.1490   22.4880    4.3980 C.ar  107  PHE107     -0.0003
     88  CZ        -2.1310   21.4750    3.4550 C.ar  107  PHE107     -0.0000
     89  N         -7.3280   22.8940    2.9000 N.am  108  LEU108     -0.1980
     90  CA        -7.5550   22.8270    1.4670 C.3   108  LEU108      0.1596
     91  C         -7.9150   24.2280    0.8650 C.2   108  LEU108      0.2287
     92  O         -7.2440   24.6700   -0.0730 O.2   108  LEU108     -0.2864
     93  CB        -8.5920   21.7560    1.1420 C.3   108  LEU108      0.0297
     94  CG        -8.2340   20.2880    1.4100 C.3   108  LEU108      0.0022
     95  CD1       -9.4030   19.4030    0.9810 C.3   108  LEU108      0.0001
     96  CD2       -6.9220   19.8340    0.7620 C.3   108  LEU108      0.0001
@<TRIPOS>BOND
     1    92    91    2
     2    96    94    1
     3    91    90    1
     4    95    94    1
     5    93    94    1
     6    93    90    1
     7    90    89    1
     8    81    80    2
     9    89    80   am
    10    86    88   ar
    11    86    84   ar
    12    88    87   ar
    13    80    79    1
    14    77    75    1
    15    73    72    2
    16    84    83   ar
    17    87    85   ar
    18    72    71    1
    19    69    68    2
    20    71    74    1
    21    71    70    1
    22    83    85   ar
    23    83    82    1
    24    75    74    1
    25    75    76    1
    26    79    78    1
    27    79    82    1
    28    68    70   am
    29    68    67    1
    30    67    66    1
    31    58    57    1
    32    56    55    2
    33    63    62    2
    34    66    62   am
    35    62    61    1
    36    55    54    1
    37     5     2    1
    38    57    54    1
    39    57    59    1
    40    54    53    1
    41    61    60    1
    42    61    64    1
    43    48    47    2
    44     2     1    1
    45     2     3    1
    46    53    47   am
    47    65    64    1
    48    47    46    1
    49     3     6   am
    50     3     4    2
    51    12    11    1
    52     6     7    1
    53    51    49    1
    54    11    13    1
    55    11    10    1
    56    46    49    1
    57    46    45    1
    58    49    50    1
    59     7    10    1
    60     7     8    1
    61     8    14   am
    62     8     9    2
    63    21    22    1
    64    50    52    1
    65    22    23    1
    66    14    15    1
    67    15    16    1
    68    15    18    1
    69    16    17    2
    70    18    20    1
    71    18    19    1
    72    23    24    2
    73    23    25   am
    74    25    26    1
    75    44    43    1
    76    26    29    1
    77    26    27    1
    78    39    40    1
    79    43    40    1
    80    29    30    1
    81    27    28    2
    82    40    41    1
    83    30    31   ar
    84    30    32   ar
    85    41    42    2
    86    31    33   ar
    87    32    35   ar
    88    32    34   ar
    89    35    37   ar
    90    33    34   ar
    91    34    36   ar
    92    37    38   ar
    93    36    38   ar
