@<TRIPOS>MOLECULE
tmp/5h2iA15.pdb
 83 80 0 0 0
SMALL
GASTEIGER

@<TRIPOS>ATOM
      1  N        -20.8510   -0.9720  -20.3360 N.3   128  TYR128     -0.1241
      2  CA       -19.5230   -0.9860  -19.7270 C.3   128  TYR128      0.1605
      3  C        -19.4250   -0.0140  -18.5560 C.2   128  TYR128      0.2264
      4  O        -18.9760   -0.3840  -17.4650 O.2   128  TYR128     -0.2867
      5  CB       -18.4740   -0.6600  -20.7890 C.3   128  TYR128      0.0534
      6  CG       -17.0560   -0.7580  -20.2940 C.ar  128  TYR128     -0.0201
      7  CD1      -16.5080   -1.9840  -19.9480 C.ar  128  TYR128     -0.0009
      8  CD2      -16.2590    0.3730  -20.1840 C.ar  128  TYR128     -0.0009
      9  CE1      -15.2120   -2.0800  -19.4990 C.ar  128  TYR128      0.0417
     10  CE2      -14.9610    0.2840  -19.7380 C.ar  128  TYR128      0.0417
     11  CZ       -14.4430   -0.9440  -19.3980 C.ar  128  TYR128      0.1957
     12  OH       -13.1480   -1.0380  -18.9520 O.3   128  TYR128     -0.2866
     13  N        -18.9830   -0.1470  -13.3270 N.3   132  PHE132     -0.1241
     14  CA       -18.2260    0.5050  -12.2670 C.3   132  PHE132      0.1605
     15  C        -19.1180    1.2200  -11.2640 C.2   132  PHE132      0.2264
     16  O        -18.6720    1.4920  -10.1440 O.2   132  PHE132     -0.2867
     17  CB       -17.2250    1.4890  -12.8750 C.3   132  PHE132      0.0534
     18  CG       -16.2730    0.8480  -13.8430 C.ar  132  PHE132     -0.0203
     19  CD1      -15.1810    0.1300  -13.3870 C.ar  132  PHE132     -0.0042
     20  CD2      -16.4820    0.9460  -15.2080 C.ar  132  PHE132     -0.0042
     21  CE1      -14.3070   -0.4720  -14.2760 C.ar  132  PHE132     -0.0003
     22  CE2      -15.6140    0.3460  -16.1000 C.ar  132  PHE132     -0.0003
     23  CZ       -14.5240   -0.3640  -15.6320 C.ar  132  PHE132     -0.0000
     24  N        -19.5940   -1.6170   -8.9420 N.3   135  TRP135     -0.1227
     25  CA       -18.3530   -1.7980   -8.1940 C.3   135  TRP135      0.1737
     26  C        -18.2620   -0.8130   -7.0350 C.2   135  TRP135      0.2595
     27  O        -17.8360   -1.1750   -5.9320 O.2   135  TRP135     -0.2718
     28  CB       -17.1540   -1.6380   -9.1310 C.3   135  TRP135      0.0564
     29  CG       -15.8200   -1.7090   -8.4420 C.ar  135  TRP135      0.0003
     30  CD1      -15.0500   -2.8190   -8.2620 C.ar  135  TRP135      0.0946
     31  CD2      -15.1000   -0.6220   -7.8470 C.ar  135  TRP135      0.0152
     32  NE1      -13.8950   -2.4940   -7.5910 N.ar  135  TRP135     -0.2442
     33  CE2      -13.9030   -1.1500   -7.3240 C.ar  135  TRP135      0.0810
     34  CE3      -15.3520    0.7460   -7.7080 C.ar  135  TRP135      0.0012
     35  CZ2      -12.9590   -0.3580   -6.6730 C.ar  135  TRP135      0.0191
     36  CZ3      -14.4140    1.5310   -7.0580 C.ar  135  TRP135      0.0001
     37  CH2      -13.2330    0.9770   -6.5500 C.ar  135  TRP135      0.0015
     38  N        -18.6670    0.4380   -7.2640 N.am  136  ALA136     -0.1966
     39  CA       -18.5660    1.4600   -6.2260 C.3   136  ALA136      0.1728
     40  C        -19.5430    1.2000   -5.0850 C.2   136  ALA136      0.2616
     41  O        -19.1890    1.3540   -3.9100 O.2   136  ALA136     -0.2715
     42  CB       -18.8110    2.8400   -6.8340 C.3   136  ALA136      0.0334
     43  N        -20.7830    0.8280   -5.4080 N.am  137  ILE137     -0.1977
     44  CA       -21.7570    0.4900   -4.3720 C.3   137  ILE137      0.1596
     45  C        -21.2630   -0.6930   -3.5500 C.2   137  ILE137      0.2287
     46  O        -21.3370   -0.6910   -2.3150 O.2   137  ILE137     -0.2864
     47  CB       -23.1280    0.2030   -5.0080 C.3   137  ILE137      0.0276
     48  CG1      -23.7130    1.4880   -5.5970 C.3   137  ILE137      0.0022
     49  CG2      -24.0950   -0.3970   -3.9900 C.3   137  ILE137      0.0022
     50  CD1      -24.8420    1.2440   -6.5770 C.3   137  ILE137      0.0001
     51  N        -18.2050   -1.6490   -3.0750 N.3   139  THR139     -0.1203
     52  CA       -17.0540   -1.2400   -2.2740 C.3   139  THR139      0.1994
     53  C        -17.4880   -0.4300   -1.0580 C.2   139  THR139      0.2617
     54  O        -16.8720   -0.5230    0.0100 O.2   139  THR139     -0.2717
     55  CB       -16.0810   -0.4400   -3.1450 C.3   139  THR139      0.1784
     56  OG1      -15.5590   -1.2880   -4.1760 O.3   139  THR139     -0.2211
     57  CG2      -14.9200    0.1200   -2.3200 C.3   139  THR139      0.0376
     58  N        -18.5450    0.3720   -1.1960 N.am  140  ALA140     -0.1979
     59  CA       -19.0670    1.0960   -0.0430 C.3   140  ALA140      0.1597
     60  C        -19.5830    0.1300    1.0170 C.2   140  ALA140      0.2287
     61  O        -19.4100    0.3620    2.2200 O.2   140  ALA140     -0.2864
     62  CB       -20.1740    2.0520   -0.4800 C.3   140  ALA140      0.0319
     63  N        -16.5650   -1.2360    2.8870 N.3   143  LEU143     -0.1245
     64  CA       -16.0180   -0.2790    3.8410 C.3   143  LEU143      0.1561
     65  C        -16.8550   -0.2190    5.1090 C.2   143  LEU143      0.2260
     66  O        -16.3090   -0.0400    6.2040 O.2   143  LEU143     -0.2867
     67  CB       -15.9160    1.1040    3.1980 C.3   143  LEU143      0.0270
     68  CG       -14.8370    1.2340    2.1190 C.3   143  LEU143      0.0019
     69  CD1      -14.9640    2.5620    1.3880 C.3   143  LEU143      0.0001
     70  CD2      -13.4390    1.0900    2.7140 C.3   143  LEU143      0.0001
     71  N        -11.2080   -4.6470  -10.2940 N.3   187  LEU187     -0.1245
     72  CA       -11.1820   -3.3990  -11.0510 C.3   187  LEU187      0.1561
     73  C        -10.1710   -3.4510  -12.1920 C.2   187  LEU187      0.2260
     74  O        -10.4410   -2.9500  -13.2900 O.2   187  LEU187     -0.2867
     75  CB       -10.8730   -2.2400  -10.1060 C.3   187  LEU187      0.0270
     76  CG       -10.9450   -0.8240  -10.6820 C.3   187  LEU187      0.0019
     77  CD1      -12.3650   -0.4800  -11.1060 C.3   187  LEU187      0.0001
     78  CD2      -10.4290    0.1780   -9.6590 C.3   187  LEU187      0.0001
     79  N        -11.3160   -3.0430  -15.8640 N.3   193  ALA193     -0.1245
     80  CA       -10.5610   -2.3050  -16.8680 C.3   193  ALA193      0.1562
     81  C         -9.8120   -3.2090  -17.8400 C.2   193  ALA193      0.2260
     82  O         -9.3990   -2.7380  -18.9050 O.2   193  ALA193     -0.2867
     83  CB        -9.5710   -1.3590  -16.1840 C.3   193  ALA193      0.0290
@<TRIPOS>BOND
     1     5     6    1
     2     5     2    1
     3     1     2    1
     4     6     8   ar
     5     6     7   ar
     6     8    10   ar
     7     7     9   ar
     8    10    11   ar
     9     2     3    1
    10     9    11   ar
    11    11    12    1
    12    82    81    2
    13     3     4    2
    14    81    80    1
    15    80    83    1
    16    80    79    1
    17    22    23   ar
    18    22    20   ar
    19    23    21   ar
    20    20    18   ar
    21    21    19   ar
    22    18    19   ar
    23    18    17    1
    24    13    14    1
    25    74    73    2
    26    17    14    1
    27    14    15    1
    28    73    72    1
    29    15    16    2
    30    77    76    1
    31    72    71    1
    32    72    75    1
    33    76    75    1
    34    76    78    1
    35    28    29    1
    36    28    25    1
    37    24    25    1
    38    29    30   ar
    39    29    31   ar
    40    30    32   ar
    41    25    26    1
    42    31    34   ar
    43    31    33   ar
    44    34    36   ar
    45    32    33   ar
    46    33    35   ar
    47    38    26   am
    48    38    39    1
    49    36    37   ar
    50    26    27    2
    51    42    39    1
    52    35    37   ar
    53    50    48    1
    54    39    40    1
    55    48    47    1
    56    43    40   am
    57    43    44    1
    58    40    41    2
    59    47    44    1
    60    47    49    1
    61    44    45    1
    62    56    55    1
    63    45    46    2
    64    55    57    1
    65    55    52    1
    66    51    52    1
    67    52    53    1
    68    58    53   am
    69    58    59    1
    70    53    54    2
    71    62    59    1
    72    59    60    1
    73    60    61    2
    74    69    68    1
    75    68    70    1
    76    68    67    1
    77    63    64    1
    78    67    64    1
    79    64    65    1
    80    65    66    2
