@<TRIPOS>MOLECULE
tmp/5h2iA01.pdb
 75 69 0 0 0
SMALL
GASTEIGER

@<TRIPOS>ATOM
      1  N         -6.4290  -27.5200   -3.1790 N.3    16  LEU16      -0.1245
      2  CA        -6.1110  -26.9540   -1.8740 C.3    16  LEU16       0.1561
      3  C         -7.3580  -26.7750   -1.0180 C.2    16  LEU16       0.2260
      4  O         -7.2920  -26.9370    0.2060 O.2    16  LEU16      -0.2867
      5  CB        -5.3790  -25.6250   -2.0450 C.3    16  LEU16       0.0270
      6  CG        -3.9610  -25.7490   -2.6140 C.3    16  LEU16       0.0019
      7  CD1       -3.4200  -24.3900   -3.0260 C.3    16  LEU16       0.0001
      8  CD2       -3.0270  -26.4070   -1.6030 C.3    16  LEU16       0.0001
      9  N         -8.2270  -30.4440    0.1480 N.3    19  LEU19      -0.1231
     10  CA        -7.3230  -30.8590    1.2150 C.3    19  LEU19       0.1693
     11  C         -7.6110  -30.0990    2.5040 C.2    19  LEU19       0.2592
     12  O         -7.6160  -30.6860    3.5940 O.2    19  LEU19      -0.2718
     13  CB        -5.8720  -30.6550    0.7780 C.3    19  LEU19       0.0284
     14  CG        -5.1940  -31.8100    0.0310 C.3    19  LEU19       0.0019
     15  CD1       -5.0080  -33.0150    0.9420 C.3    19  LEU19       0.0001
     16  CD2       -5.9630  -32.2110   -1.2160 C.3    19  LEU19       0.0001
     17  N         -7.8560  -28.7910    2.4030 N.am   20  GLY20      -0.1957
     18  CA        -8.2050  -28.0220    3.5860 C.3    20  GLY20       0.1869
     19  C         -9.4670  -28.5300    4.2550 C.2    20  GLY20       0.2309
     20  O         -9.5300  -28.6360    5.4820 O.2    20  GLY20      -0.2863
     21  N         -8.6710  -31.8360    6.1650 N.3    23  TYR23      -0.1241
     22  CA        -7.8980  -31.6230    7.3820 C.3    23  TYR23       0.1605
     23  C         -8.7870  -31.1110    8.5100 C.2    23  TYR23       0.2264
     24  O         -8.7640  -31.6450    9.6240 O.2    23  TYR23      -0.2867
     25  CB        -6.7490  -30.6520    7.1140 C.3    23  TYR23       0.0534
     26  CG        -5.8860  -30.3960    8.3270 C.ar   23  TYR23      -0.0201
     27  CD1       -5.0470  -31.3840    8.8250 C.ar   23  TYR23      -0.0009
     28  CD2       -5.9140  -29.1700    8.9780 C.ar   23  TYR23      -0.0009
     29  CE1       -4.2580  -31.1570    9.9380 C.ar   23  TYR23       0.0417
     30  CE2       -5.1280  -28.9340   10.0910 C.ar   23  TYR23       0.0417
     31  CZ        -4.3030  -29.9310   10.5670 C.ar   23  TYR23       0.1957
     32  OH        -3.5190  -29.7000   11.6730 O.3    23  TYR23      -0.2866
     33  N         -7.4610  -19.0410   -0.9100 N.3   210  VAL210     -0.1231
     34  CA        -6.8630  -20.0490   -0.0390 C.3   210  VAL210      0.1692
     35  C         -6.3860  -19.4110    1.2590 C.2   210  VAL210      0.2592
     36  O         -6.5510  -19.9790    2.3450 O.2   210  VAL210     -0.2718
     37  CB        -5.7220  -20.7780   -0.7720 C.3   210  VAL210      0.0266
     38  CG1       -5.0170  -21.7590    0.1590 C.3   210  VAL210      0.0020
     39  CG2       -6.2640  -21.5140   -1.9900 C.3   210  VAL210      0.0020
     40  N         -5.8010  -18.2150    1.1710 N.am  211  SER211     -0.1952
     41  CA        -5.3290  -17.5370    2.3740 C.3   211  SER211      0.1924
     42  C         -6.4920  -17.1160    3.2630 C.2   211  SER211      0.2314
     43  O         -6.4350  -17.2810    4.4870 O.2   211  SER211     -0.2863
     44  CB        -4.4790  -16.3240    1.9920 C.3   211  SER211      0.2116
     45  OG        -3.3390  -16.7200    1.2490 O.3   211  SER211     -0.2180
     46  N         -8.4720  -21.1330    4.1030 N.3   214  VAL214     -0.1231
     47  CA        -7.6950  -22.1820    4.7550 C.3   214  VAL214      0.1692
     48  C         -6.6810  -21.5840    5.7260 C.2   214  VAL214      0.2592
     49  O         -6.5180  -22.0760    6.8480 O.2   214  VAL214     -0.2718
     50  CB        -7.0170  -23.0720    3.6960 C.3   214  VAL214      0.0266
     51  CG1       -6.1580  -24.1410    4.3580 C.3   214  VAL214      0.0020
     52  CG2       -8.0610  -23.7210    2.7990 C.3   214  VAL214      0.0020
     53  N         -5.9760  -20.5280    5.3130 N.am  215  GLY215     -0.1957
     54  CA        -5.0670  -19.8590    6.2320 C.3   215  GLY215      0.1869
     55  C         -5.7920  -19.2760    7.4300 C.2   215  GLY215      0.2309
     56  O         -5.3650  -19.4390    8.5760 O.2   215  GLY215     -0.2863
     57  N         -6.7520  -22.1820    9.7500 N.3   218  LEU218     -0.1245
     58  CA        -5.6520  -22.7730   10.5060 C.3   218  LEU218      0.1561
     59  C         -5.3150  -21.9390   11.7360 C.2   218  LEU218      0.2260
     60  O         -5.0030  -22.4870   12.8000 O.2   218  LEU218     -0.2867
     61  CB        -4.4250  -22.9280    9.6080 C.3   218  LEU218      0.0270
     62  CG        -4.4940  -24.0750    8.5970 C.3   218  LEU218      0.0019
     63  CD1       -3.3630  -23.9690    7.5900 C.3   218  LEU218      0.0001
     64  CD2       -4.4480  -25.4240    9.3080 C.3   218  LEU218      0.0001
     65  N         -6.4450  -23.5900   15.6600 N.3   222  ARG222     -0.1245
     66  CA        -5.3230  -23.8990   16.5340 C.3   222  ARG222      0.1563
     67  C         -5.3310  -23.0630   17.8040 C.2   222  ARG222      0.2260
     68  O         -4.5100  -23.3060   18.6950 O.2   222  ARG222     -0.2867
     69  CB        -3.9970  -23.6860   15.7950 C.3   222  ARG222      0.0307
     70  CG        -3.6600  -24.7870   14.8020 C.3   222  ARG222      0.0489
     71  CD        -2.3680  -24.5020   14.0460 C.3   222  ARG222      0.2205
     72  NE        -1.2120  -24.3900   14.9340 N.pl3 222  ARG222     -0.0865
     73  CZ        -0.7380  -23.2480   15.4290 C.cat 222  ARG222      0.5346
     74  NH1       -1.3120  -22.0890   15.1360 N.pl3 222  ARG222      0.1354
     75  NH2        0.3220  -23.2660   16.2270 N.pl3 222  ARG222      0.1354
@<TRIPOS>BOND
     1     1     2    1
     2     7     6    1
     3     6     5    1
     4     6     8    1
     5     5     2    1
     6    39    37    1
     7     2     3    1
     8    16    14    1
     9     3     4    2
    10    33    34    1
    11    37    34    1
    12    37    38    1
    13    34    35    1
    14    14    13    1
    15    14    15    1
    16     9    10    1
    17    13    10    1
    18    40    35   am
    19    40    41    1
    20    10    11    1
    21    45    44    1
    22    35    36    2
    23    44    41    1
    24    41    42    1
    25    17    11   am
    26    17    18    1
    27    11    12    2
    28    52    50    1
    29    42    43    2
    30    18    19    1
    31    50    51    1
    32    50    47    1
    33    46    47    1
    34    19    20    2
    35    47    48    1
    36    53    48   am
    37    53    54    1
    38    48    49    2
    39    21    22    1
    40    54    55    1
    41    25    22    1
    42    25    26    1
    43    22    23    1
    44    55    56    2
    45    63    62    1
    46    26    27   ar
    47    26    28   ar
    48    23    24    2
    49    62    64    1
    50    62    61    1
    51    27    29   ar
    52    28    30   ar
    53    61    58    1
    54    57    58    1
    55    29    31   ar
    56    30    31   ar
    57    58    59    1
    58    31    32    1
    59    59    60    2
    60    71    70    1
    61    71    72    1
    62    70    69    1
    63    72    73    2
    64    74    73    1
    65    73    75    1
    66    65    66    1
    67    69    66    1
    68    66    67    1
    69    67    68    2
