@<TRIPOS>MOLECULE
tmp/5h2iA08.pdb
 106 104 0 0 0
SMALL
GASTEIGER

@<TRIPOS>ATOM
      1  N        -19.5940   -1.6170   -8.9420 N.3   135  TRP135     -0.1241
      2  CA       -18.3530   -1.7980   -8.1940 C.3   135  TRP135      0.1605
      3  C        -18.2620   -0.8130   -7.0350 C.2   135  TRP135      0.2264
      4  O        -17.8360   -1.1750   -5.9320 O.2   135  TRP135     -0.2867
      5  CB       -17.1540   -1.6380   -9.1310 C.3   135  TRP135      0.0550
      6  CG       -15.8200   -1.7090   -8.4420 C.ar  135  TRP135      0.0003
      7  CD1      -15.0500   -2.8190   -8.2620 C.ar  135  TRP135      0.0946
      8  CD2      -15.1000   -0.6220   -7.8470 C.ar  135  TRP135      0.0152
      9  NE1      -13.8950   -2.4940   -7.5910 N.ar  135  TRP135     -0.2442
     10  CE2      -13.9030   -1.1500   -7.3240 C.ar  135  TRP135      0.0810
     11  CE3      -15.3520    0.7460   -7.7080 C.ar  135  TRP135      0.0012
     12  CZ2      -12.9590   -0.3580   -6.6730 C.ar  135  TRP135      0.0191
     13  CZ3      -14.4140    1.5310   -7.0580 C.ar  135  TRP135      0.0001
     14  CH2      -13.2330    0.9770   -6.5500 C.ar  135  TRP135      0.0015
     15  N        -18.2050   -1.6490   -3.0750 N.3   139  THR139     -0.1218
     16  CA       -17.0540   -1.2400   -2.2740 C.3   139  THR139      0.1862
     17  C        -17.4880   -0.4300   -1.0580 C.2   139  THR139      0.2287
     18  O        -16.8720   -0.5230    0.0100 O.2   139  THR139     -0.2866
     19  CB       -16.0810   -0.4400   -3.1450 C.3   139  THR139      0.1770
     20  OG1      -15.5590   -1.2880   -4.1760 O.3   139  THR139     -0.2211
     21  CG2      -14.9200    0.1200   -2.3200 C.3   139  THR139      0.0375
     22  N        -18.4180   -2.8670    1.5300 N.3   142  MET142     -0.1230
     23  CA       -17.2500   -3.4630    2.1660 C.3   142  MET142      0.1702
     24  C        -16.6630   -2.5260    3.2110 C.2   142  MET142      0.2592
     25  O        -16.2880   -2.9610    4.3060 O.2   142  MET142     -0.2718
     26  CB       -16.1900   -3.8120    1.1210 C.3   142  MET142      0.0401
     27  CG       -15.0270   -4.6240    1.6940 C.3   142  MET142      0.0596
     28  SD       -13.5970   -4.7370    0.6090 S.3   142  MET142     -0.1393
     29  CE       -13.0370   -3.0370    0.5980 C.3   142  MET142      0.0692
     30  N        -16.5650   -1.2360    2.8870 N.am  143  LEU143     -0.1980
     31  CA       -16.0180   -0.2790    3.8410 C.3   143  LEU143      0.1596
     32  C        -16.8550   -0.2190    5.1090 C.2   143  LEU143      0.2287
     33  O        -16.3090   -0.0400    6.2040 O.2   143  LEU143     -0.2864
     34  CB       -15.9160    1.1040    3.1980 C.3   143  LEU143      0.0297
     35  CG       -14.8370    1.2340    2.1190 C.3   143  LEU143      0.0022
     36  CD1      -14.9640    2.5620    1.3880 C.3   143  LEU143      0.0001
     37  CD2      -13.4390    1.0900    2.7140 C.3   143  LEU143      0.0001
     38  N        -15.7440   -3.2370    7.1360 N.3   146  LEU146     -0.1231
     39  CA       -14.4310   -3.0370    7.7390 C.3   146  LEU146      0.1693
     40  C        -14.5000   -2.0450    8.8930 C.2   146  LEU146      0.2592
     41  O        -13.8020   -2.2040    9.9020 O.2   146  LEU146     -0.2718
     42  CB       -13.4340   -2.5690    6.6800 C.3   146  LEU146      0.0284
     43  CG       -13.2150   -3.5120    5.4910 C.3   146  LEU146      0.0019
     44  CD1      -12.0590   -3.0210    4.6300 C.3   146  LEU146      0.0001
     45  CD2      -12.9710   -4.9460    5.9390 C.3   146  LEU146      0.0001
     46  N        -15.3380   -1.0160    8.7680 N.am  147  TYR147     -0.1976
     47  CA       -15.5070   -0.0700    9.8650 C.3   147  TYR147      0.1639
     48  C        -16.0220   -0.7720   11.1160 C.2   147  TYR147      0.2290
     49  O        -15.5090   -0.5550   12.2210 O.2   147  TYR147     -0.2864
     50  CB       -16.4570    1.0520    9.4500 C.3   147  TYR147      0.0560
     51  CG       -16.8540    1.9510   10.5990 C.ar  147  TYR147     -0.0198
     52  CD1      -16.0050    2.9530   11.0480 C.ar  147  TYR147     -0.0009
     53  CD2      -18.0770    1.7940   11.2390 C.ar  147  TYR147     -0.0009
     54  CE1      -16.3630    3.7740   12.1020 C.ar  147  TYR147      0.0417
     55  CE2      -18.4430    2.6100   12.2920 C.ar  147  TYR147      0.0417
     56  CZ       -17.5830    3.5980   12.7190 C.ar  147  TYR147      0.1957
     57  OH       -17.9450    4.4130   13.7670 O.3   147  TYR147     -0.2866
     58  N        -13.5460   -2.8250   13.0580 N.3   150  PHE150     -0.1227
     59  CA       -12.5440   -2.0400   13.7710 C.3   150  PHE150      0.1736
     60  C        -13.1250   -1.2080   14.9030 C.2   150  PHE150      0.2595
     61  O        -12.5560   -1.1770   15.9970 O.2   150  PHE150     -0.2718
     62  CB       -11.8150   -1.1060   12.8010 C.3   150  PHE150      0.0547
     63  CG       -10.5320   -1.6660   12.2700 C.ar  150  PHE150     -0.0202
     64  CD1       -9.4180   -1.7690   13.0850 C.ar  150  PHE150     -0.0042
     65  CD2      -10.4330   -2.0760   10.9540 C.ar  150  PHE150     -0.0042
     66  CE1       -8.2320   -2.2810   12.5990 C.ar  150  PHE150     -0.0003
     67  CE2       -9.2490   -2.5840   10.4630 C.ar  150  PHE150     -0.0003
     68  CZ        -8.1480   -2.6890   11.2870 C.ar  150  PHE150     -0.0000
     69  N        -14.2410   -0.5270   14.6640 N.am  151  PHE151     -0.1976
     70  CA       -14.8020    0.4310   15.6080 C.3   151  PHE151      0.1639
     71  C        -16.1160   -0.0770   16.1930 C.2   151  PHE151      0.2290
     72  O        -17.0620    0.6830   16.4070 O.2   151  PHE151     -0.2864
     73  CB       -14.9860    1.7870   14.9340 C.3   151  PHE151      0.0560
     74  CG       -13.7290    2.3100   14.2970 C.ar  151  PHE151     -0.0200
     75  CD1      -12.8090    3.0330   15.0390 C.ar  151  PHE151     -0.0042
     76  CD2      -13.4560    2.0600   12.9620 C.ar  151  PHE151     -0.0042
     77  CE1      -11.6480    3.5070   14.4580 C.ar  151  PHE151     -0.0003
     78  CE2      -12.2970    2.5320   12.3760 C.ar  151  PHE151     -0.0003
     79  CZ       -11.3910    3.2560   13.1250 C.ar  151  PHE151     -0.0000
     80  N         -8.9630   -7.8580    7.0500 N.3   176  VAL176     -0.1245
     81  CA        -9.0200   -6.5250    6.4560 C.3   176  VAL176      0.1561
     82  C         -8.0310   -6.4040    5.3030 C.2   176  VAL176      0.2260
     83  O         -8.3260   -5.7800    4.2760 O.2   176  VAL176     -0.2867
     84  CB        -8.7730   -5.4560    7.5380 C.3   176  VAL176      0.0252
     85  CG1       -8.6780   -4.0620    6.9220 C.3   176  VAL176      0.0019
     86  CG2       -9.8830   -5.5090    8.5710 C.3   176  VAL176      0.0019
     87  N         -9.6080   -6.5080    1.2990 N.3   180  SER180     -0.1217
     88  CA        -9.4230   -5.2550    0.5770 C.3   180  SER180      0.1889
     89  C         -8.7990   -5.4620   -0.7950 C.2   180  SER180      0.2288
     90  O         -8.9760   -4.6130   -1.6760 O.2   180  SER180     -0.2866
     91  CB        -8.5520   -4.3010    1.3990 C.3   180  SER180      0.2089
     92  OG        -9.1960   -3.9460    2.6080 O.3   180  SER180     -0.2183
     93  N        -11.5970   -6.1160   -4.3240 N.3   183  PRO183     -0.2102
     94  CA       -12.0900   -5.0710   -5.2380 C.3   183  PRO183      0.1504
     95  C        -11.0200   -4.5280   -6.1640 C.2   183  PRO183      0.2575
     96  O        -11.3440   -4.0620   -7.2640 O.2   183  PRO183     -0.2718
     97  CB       -12.6230   -3.9880   -4.2860 C.3   183  PRO183      0.0282
     98  CG       -12.0260   -4.2970   -2.9500 C.3   183  PRO183      0.0208
     99  CD       -11.8550   -5.7790   -2.9140 C.3   183  PRO183      0.0893
    100  N         -9.7500   -4.5820   -5.7610 N.am  184  VAL184     -0.1980
    101  CA        -8.6790   -4.0920   -6.6220 C.3   184  VAL184      0.1595
    102  C         -8.4490   -5.0470   -7.7860 C.2   184  VAL184      0.2287
    103  O         -8.2950   -4.6190   -8.9350 O.2   184  VAL184     -0.2864
    104  CB        -7.3950   -3.8790   -5.7980 C.3   184  VAL184      0.0276
    105  CG1       -6.2880   -3.3100   -6.6710 C.3   184  VAL184      0.0022
    106  CG2       -7.6730   -2.9570   -4.6130 C.3   184  VAL184      0.0022
@<TRIPOS>BOND
     1     5     6    1
     2     5     2    1
     3     1     2    1
     4   103   102    2
     5     6     7   ar
     6     6     8   ar
     7     7     9   ar
     8     2     3    1
     9     8    11   ar
    10     8    10   ar
    11   102   101    1
    12    11    13   ar
    13     9    10   ar
    14    10    12   ar
    15    96    95    2
    16    13    14   ar
    17     3     4    2
    18    12    14   ar
    19   105   104    1
    20   101   104    1
    21   101   100    1
    22    95   100   am
    23    95    94    1
    24   104   106    1
    25    94    93    1
    26    94    97    1
    27    93    99    1
    28    97    98    1
    29    20    19    1
    30    19    21    1
    31    19    16    1
    32    15    16    1
    33    98    99    1
    34    16    17    1
    35    90    89    2
    36    17    18    2
    37    89    88    1
    38    88    87    1
    39    88    91    1
    40    29    28    1
    41    28    27    1
    42    26    27    1
    43    26    23    1
    44    36    35    1
    45    91    92    1
    46    22    23    1
    47    35    37    1
    48    35    34    1
    49    23    24    1
    50    30    24   am
    51    30    31    1
    52    34    31    1
    53    24    25    2
    54    31    32    1
    55    83    82    2
    56    44    43    1
    57    32    33    2
    58    82    81    1
    59    43    45    1
    60    43    42    1
    61    81    80    1
    62    81    84    1
    63    42    39    1
    64    85    84    1
    65    38    39    1
    66    84    86    1
    67    39    40    1
    68    46    40   am
    69    46    47    1
    70    40    41    2
    71    50    47    1
    72    50    51    1
    73    47    48    1
    74    67    65   ar
    75    67    68   ar
    76    51    52   ar
    77    51    53   ar
    78    65    63   ar
    79    52    54   ar
    80    48    49    2
    81    53    55   ar
    82    68    66   ar
    83    54    56   ar
    84    63    62    1
    85    63    64   ar
    86    55    56   ar
    87    78    76   ar
    88    78    79   ar
    89    66    64   ar
    90    56    57    1
    91    62    59    1
    92    76    74   ar
    93    58    59    1
    94    79    77   ar
    95    59    60    1
    96    74    73    1
    97    74    75   ar
    98    77    75   ar
    99    69    60   am
   100    69    70    1
   101    60    61    2
   102    73    70    1
   103    70    71    1
   104    71    72    2
