@<TRIPOS>MOLECULE
tmp/5h2iA09.pdb
 86 80 0 0 0
SMALL
GASTEIGER

@<TRIPOS>ATOM
      1  N        -11.0360  -28.7910  -20.7980 N.3     1  ILE1       -0.1245
      2  CA       -10.4630  -28.1550  -19.6200 C.3     1  ILE1        0.1561
      3  C         -9.1960  -27.3980  -19.9960 C.2     1  ILE1        0.2260
      4  O         -9.1280  -26.1760  -19.8670 O.2     1  ILE1       -0.2867
      5  CB       -10.1710  -29.1920  -18.5110 C.3     1  ILE1        0.0252
      6  CG1      -11.4830  -29.8000  -18.0030 C.3     1  ILE1        0.0019
      7  CG2       -9.3770  -28.5540  -17.3640 C.3     1  ILE1        0.0019
      8  CD1      -11.3200  -30.8340  -16.8990 C.3     1  ILE1        0.0001
      9  N         -6.6320  -22.8210  -16.4210 N.3     7  TRP7       -0.1241
     10  CA        -7.0870  -24.0750  -15.8300 C.3     7  TRP7        0.1605
     11  C         -6.1570  -24.5470  -14.7190 C.2     7  TRP7        0.2264
     12  O         -6.6150  -25.1650  -13.7510 O.2     7  TRP7       -0.2867
     13  CB        -7.2120  -25.1530  -16.9110 C.3     7  TRP7        0.0550
     14  CG        -5.9090  -25.8050  -17.2780 C.ar    7  TRP7        0.0003
     15  CD1       -5.0680  -25.4470  -18.2920 C.ar    7  TRP7        0.0946
     16  CD2       -5.3020  -26.9310  -16.6330 C.ar    7  TRP7        0.0152
     17  NE1       -3.9750  -26.2790  -18.3170 N.ar    7  TRP7       -0.2442
     18  CE2       -4.0950  -27.1980  -17.3080 C.ar    7  TRP7        0.0810
     19  CE3       -5.6610  -27.7370  -15.5480 C.ar    7  TRP7        0.0012
     20  CZ2       -3.2460  -28.2370  -16.9340 C.ar    7  TRP7        0.0191
     21  CZ3       -4.8170  -28.7670  -15.1790 C.ar    7  TRP7        0.0001
     22  CH2       -3.6230  -29.0080  -15.8700 C.ar    7  TRP7        0.0015
     23  N         -7.3950  -25.7760  -11.0330 N.3    11  ALA11      -0.1245
     24  CA        -7.1200  -27.1190  -10.5330 C.3    11  ALA11       0.1562
     25  C         -6.3760  -27.0700   -9.2060 C.2    11  ALA11       0.2260
     26  O         -6.6750  -27.8470   -8.2910 O.2    11  ALA11      -0.2867
     27  CB        -6.3200  -27.9100  -11.5700 C.3    11  ALA11       0.0290
     28  N         -8.8850  -26.0060   -6.5260 N.3    14  THR14      -0.1203
     29  CA        -9.7450  -27.1300   -6.1770 C.3    14  THR14       0.1994
     30  C         -9.0370  -28.0730   -5.2120 C.2    14  THR14       0.2617
     31  O         -9.6130  -28.5020   -4.2060 O.2    14  THR14      -0.2717
     32  CB       -10.1670  -27.8790   -7.4430 C.3    14  THR14       0.1784
     33  OG1      -10.8270  -26.9790   -8.3420 O.3    14  THR14      -0.2211
     34  CG2      -11.1050  -29.0380   -7.1040 C.3    14  THR14       0.0376
     35  N         -7.7800  -28.4080   -5.5080 N.am   15  ALA15      -0.1979
     36  CA        -7.0490  -29.3520   -4.6710 C.3    15  ALA15       0.1597
     37  C         -6.8210  -28.7900   -3.2750 C.2    15  ALA15       0.2287
     38  O         -6.9990  -29.4970   -2.2770 O.2    15  ALA15      -0.2864
     39  CB        -5.7160  -29.7120   -5.3280 C.3    15  ALA15       0.0319
     40  N        -10.0410  -28.7510   -1.2530 N.3    18  GLY18      -0.1210
     41  CA       -10.4140  -30.0980   -0.8540 C.3    18  GLY18       0.1956
     42  C         -9.5440  -30.6170    0.2750 C.2    18  GLY18       0.2611
     43  O        -10.0440  -31.1720    1.2580 O.2    18  GLY18      -0.2717
     44  N         -8.2270  -30.4440    0.1480 N.am   19  LEU19      -0.1979
     45  CA        -7.3230  -30.8590    1.2150 C.3    19  LEU19       0.1596
     46  C         -7.6110  -30.0990    2.5040 C.2    19  LEU19       0.2287
     47  O         -7.6160  -30.6860    3.5940 O.2    19  LEU19      -0.2864
     48  CB        -5.8720  -30.6550    0.7780 C.3    19  LEU19       0.0297
     49  CG        -5.1940  -31.8100    0.0310 C.3    19  LEU19       0.0022
     50  CD1       -5.0080  -33.0150    0.9420 C.3    19  LEU19       0.0001
     51  CD2       -5.9630  -32.2110   -1.2160 C.3    19  LEU19       0.0001
     52  N        -10.6960  -31.5840    4.2200 N.3    22  LEU22      -0.1245
     53  CA       -10.4640  -32.8730    4.8660 C.3    22  LEU22       0.1561
     54  C         -9.6730  -32.7160    6.1570 C.2    22  LEU22       0.2260
     55  O         -9.9620  -33.3910    7.1520 O.2    22  LEU22      -0.2867
     56  CB        -9.7400  -33.8130    3.9040 C.3    22  LEU22       0.0270
     57  CG       -10.5660  -34.2410    2.6900 C.3    22  LEU22       0.0019
     58  CD1       -9.7000  -34.9720    1.6810 C.3    22  LEU22       0.0001
     59  CD2      -11.7420  -35.1100    3.1170 C.3    22  LEU22       0.0001
     60  N        -14.5940  -25.5220   -2.4510 N.3    51  PHE51      -0.1241
     61  CA       -14.1710  -26.6660   -3.2520 C.3    51  PHE51       0.1605
     62  C        -15.1480  -26.9230   -4.3960 C.2    51  PHE51       0.2264
     63  O        -14.7380  -27.1030   -5.5480 O.2    51  PHE51      -0.2867
     64  CB       -14.0390  -27.9070   -2.3660 C.3    51  PHE51       0.0534
     65  CG       -13.9850  -29.1980   -3.1380 C.ar   51  PHE51      -0.0203
     66  CD1      -12.8050  -29.6240   -3.7240 C.ar   51  PHE51      -0.0042
     67  CD2      -15.1180  -29.9830   -3.2770 C.ar   51  PHE51      -0.0042
     68  CE1      -12.7580  -30.8110   -4.4410 C.ar   51  PHE51      -0.0003
     69  CE2      -15.0770  -31.1670   -3.9870 C.ar   51  PHE51      -0.0003
     70  CZ       -13.8970  -31.5820   -4.5700 C.ar   51  PHE51      -0.0000
     71  N        -14.3710  -26.4740   -8.4530 N.3    55  LEU55      -0.1245
     72  CA       -14.5590  -27.6000   -9.3610 C.3    55  LEU55       0.1561
     73  C        -15.4930  -27.2320  -10.5050 C.2    55  LEU55       0.2260
     74  O        -15.2580  -27.6170  -11.6550 O.2    55  LEU55      -0.2867
     75  CB       -15.1060  -28.8060   -8.5970 C.3    55  LEU55       0.0270
     76  CG       -15.3150  -30.0850   -9.4180 C.3    55  LEU55       0.0019
     77  CD1      -13.9990  -30.5880  -10.0010 C.3    55  LEU55       0.0001
     78  CD2      -15.9640  -31.1630   -8.5650 C.3    55  LEU55       0.0001
     79  N        -13.4650  -25.2710  -12.9050 N.3    58  LEU58      -0.1245
     80  CA       -12.5290  -26.1370  -13.6140 C.3    58  LEU58       0.1561
     81  C        -13.2210  -26.9050  -14.7340 C.2    58  LEU58       0.2260
     82  O        -12.7000  -26.9890  -15.8520 O.2    58  LEU58      -0.2867
     83  CB       -11.8730  -27.1060  -12.6270 C.3    58  LEU58       0.0270
     84  CG       -10.8720  -28.1080  -13.2080 C.3    58  LEU58       0.0019
     85  CD1       -9.6620  -27.3890  -13.7740 C.3    58  LEU58       0.0001
     86  CD2      -10.4550  -29.1130  -12.1490 C.3    58  LEU58       0.0001
@<TRIPOS>BOND
     1     1     2    1
     2     3     4    2
     3     3     2    1
     4     2     5    1
     5     5     6    1
     6     5     7    1
     7    17    15   ar
     8    17    18   ar
     9    15    14   ar
    10     6     8    1
    11    18    20   ar
    12    18    16   ar
    13    14    13    1
    14    14    16   ar
    15    20    22   ar
    16    13    10    1
    17    16    19   ar
    18     9    10    1
    19    22    21   ar
    20    82    81    2
    21    10    11    1
    22    19    21   ar
    23    81    80    1
    24    11    12    2
    25    85    84    1
    26    80    79    1
    27    80    83    1
    28    84    83    1
    29    84    86    1
    30    74    73    2
    31    27    24    1
    32    23    24    1
    33    24    25    1
    34    73    72    1
    35    77    76    1
    36    76    75    1
    37    76    78    1
    38    72    75    1
    39    72    71    1
    40    25    26    2
    41    33    32    1
    42    32    34    1
    43    32    29    1
    44    28    29    1
    45    29    30    1
    46    63    62    2
    47    35    30   am
    48    35    36    1
    49    39    36    1
    50    30    31    2
    51    36    37    1
    52    70    68   ar
    53    70    69   ar
    54    68    66   ar
    55    62    61    1
    56    69    67   ar
    57    66    65   ar
    58    67    65   ar
    59    37    38    2
    60    61    60    1
    61    61    64    1
    62    65    64    1
    63    40    41    1
    64    51    49    1
    65    41    42    1
    66    49    48    1
    67    49    50    1
    68    44    42   am
    69    44    45    1
    70    42    43    2
    71    48    45    1
    72    45    46    1
    73    58    57    1
    74    46    47    2
    75    57    59    1
    76    57    56    1
    77    56    53    1
    78    52    53    1
    79    53    54    1
    80    54    55    2
