@<TRIPOS>MOLECULE
tmp/5h2iA07.pdb
 78 70 0 0 0
SMALL
GASTEIGER

@<TRIPOS>ATOM
      1  N        -23.4280   -8.7830   19.6070 N.3   101  ASP101     -0.1239
      2  CA       -24.8740   -8.7750   19.7640 C.3   101  ASP101      0.1674
      3  C        -25.5570   -9.1020   18.4370 C.2   101  ASP101      0.2266
      4  O        -24.9690   -8.9960   17.3570 O.2   101  ASP101     -0.2867
      5  CB       -25.3500   -7.4180   20.2840 C.3   101  ASP101      0.1410
      6  CG       -25.0880   -6.2920   19.3050 C.2   101  ASP101      0.3668
      7  OD1      -25.9460   -6.0540   18.4280 O.co2 101  ASP101     -0.2456
      8  OD2      -24.0280   -5.6430   19.4130 O.co2 101  ASP101     -0.2456
      9  N        -28.0510   -7.6490   16.7640 N.3   103  GLY103     -0.1210
     10  CA       -28.2540   -6.5610   15.8210 C.3   103  GLY103      0.1956
     11  C        -27.0220   -6.2870   14.9810 C.2   103  GLY103      0.2612
     12  O        -27.1230   -6.0010   13.7860 O.2   103  GLY103     -0.2717
     13  N        -25.8420   -6.3740   15.5950 N.am  104  THR104     -0.1952
     14  CA       -24.6030   -6.1500   14.8610 C.3   104  THR104      0.1897
     15  C        -24.3290   -7.2820   13.8760 C.2   104  THR104      0.2313
     16  O        -23.8390   -7.0400   12.7680 O.2   104  THR104     -0.2863
     17  CB       -23.4420   -5.9970   15.8430 C.3   104  THR104      0.1794
     18  OG1      -23.6750   -4.8600   16.6830 O.3   104  THR104     -0.2208
     19  CG2      -22.1280   -5.8070   15.1080 C.3   104  THR104      0.0378
     20  N        -26.4960   -6.7350   10.8000 N.3   107  ALA107     -0.1245
     21  CA       -25.9950   -5.6480    9.9660 C.3   107  ALA107      0.1562
     22  C        -24.8050   -6.1000    9.1290 C.2   107  ALA107      0.2260
     23  O        -24.6890   -5.7350    7.9520 O.2   107  ALA107     -0.2867
     24  CB       -25.6080   -4.4560   10.8380 C.3   107  ALA107      0.0290
     25  N        -26.0400   -8.6180    6.3950 N.3   110  GLY110     -0.1210
     26  CA       -26.8190   -7.9260    5.3820 C.3   110  GLY110      0.1956
     27  C        -25.9600   -7.0710    4.4710 C.2   110  GLY110      0.2611
     28  O        -26.1370   -7.0770    3.2510 O.2   110  GLY110     -0.2717
     29  N        -25.0240   -6.3160    5.0480 N.am  111  ALA111     -0.1979
     30  CA       -24.1020   -5.5400    4.2270 C.3   111  ALA111      0.1597
     31  C        -23.2620   -6.4550    3.3460 C.2   111  ALA111      0.2287
     32  O        -22.9590   -6.1210    2.1950 O.2   111  ALA111     -0.2864
     33  CB       -23.2050   -4.6810    5.1180 C.3   111  ALA111      0.0319
     34  N        -25.2660   -7.4890    0.3660 N.3   114  ILE114     -0.1245
     35  CA       -25.3220   -6.3980   -0.6060 C.3   114  ILE114      0.1561
     36  C        -24.0020   -6.2980   -1.3580 C.2   114  ILE114      0.2260
     37  O        -23.9780   -6.0840   -2.5750 O.2   114  ILE114     -0.2867
     38  CB       -25.6860   -5.0770    0.0960 C.3   114  ILE114      0.0252
     39  CG1      -27.1320   -5.1370    0.5890 C.3   114  ILE114      0.0019
     40  CG2      -25.4970   -3.8820   -0.8470 C.3   114  ILE114      0.0019
     41  CD1      -27.5090   -4.0210    1.5330 C.3   114  ILE114      0.0001
     42  N        -20.7830    0.8280   -5.4080 N.3   137  ILE137     -0.1245
     43  CA       -21.7570    0.4900   -4.3720 C.3   137  ILE137      0.1561
     44  C        -21.2630   -0.6930   -3.5500 C.2   137  ILE137      0.2260
     45  O        -21.3370   -0.6910   -2.3150 O.2   137  ILE137     -0.2867
     46  CB       -23.1280    0.2030   -5.0080 C.3   137  ILE137      0.0252
     47  CG1      -23.7130    1.4880   -5.5970 C.3   137  ILE137      0.0019
     48  CG2      -24.0950   -0.3970   -3.9900 C.3   137  ILE137      0.0019
     49  CD1      -24.8420    1.2440   -6.5770 C.3   137  ILE137      0.0001
     50  N        -18.5450    0.3720   -1.1960 N.3   140  ALA140     -0.1231
     51  CA       -19.0670    1.0960   -0.0430 C.3   140  ALA140      0.1694
     52  C        -19.5830    0.1300    1.0170 C.2   140  ALA140      0.2591
     53  O        -19.4100    0.3620    2.2200 O.2   140  ALA140     -0.2718
     54  CB       -20.1740    2.0520   -0.4800 C.3   140  ALA140      0.0304
     55  N        -20.2220   -0.9600    0.5870 N.am  141  ALA141     -0.1980
     56  CA       -20.6910   -1.9690    1.5290 C.3   141  ALA141      0.1597
     57  C        -19.5230   -2.6340    2.2440 C.2   141  ALA141      0.2287
     58  O        -19.6080   -2.9380    3.4380 O.2   141  ALA141     -0.2864
     59  CB       -21.5350   -3.0130    0.8000 C.3   141  ALA141      0.0319
     60  N        -18.1740   -0.3700    4.9930 N.3   144  TYR144     -0.1241
     61  CA       -19.0020   -0.4410    6.1920 C.3   144  TYR144      0.1605
     62  C        -18.6170   -1.6450    7.0430 C.2   144  TYR144      0.2264
     63  O        -18.4690   -1.5350    8.2650 O.2   144  TYR144     -0.2867
     64  CB       -20.4820   -0.5070    5.8220 C.3   144  TYR144      0.0534
     65  CG       -21.3570   -0.6960    7.0370 C.ar  144  TYR144     -0.0201
     66  CD1      -21.7240    0.3880    7.8230 C.ar  144  TYR144     -0.0009
     67  CD2      -21.7840   -1.9600    7.4210 C.ar  144  TYR144     -0.0009
     68  CE1      -22.5060    0.2210    8.9470 C.ar  144  TYR144      0.0417
     69  CE2      -22.5660   -2.1370    8.5430 C.ar  144  TYR144      0.0417
     70  CZ       -22.9230   -1.0430    9.3030 C.ar  144  TYR144      0.1957
     71  OH       -23.7030   -1.2170   10.4220 O.3   144  TYR144     -0.2866
     72  N        -17.0370   -1.6240   10.9610 N.3   148  VAL148     -0.1245
     73  CA       -17.6120   -2.3150   12.1120 C.3   148  VAL148      0.1561
     74  C        -16.5820   -3.2360   12.7510 C.2   148  VAL148      0.2260
     75  O        -16.4830   -3.3220   13.9810 O.2   148  VAL148     -0.2867
     76  CB       -18.8800   -3.0830   11.6940 C.3   148  VAL148      0.0252
     77  CG1      -19.3920   -3.9550   12.8390 C.3   148  VAL148      0.0019
     78  CG2      -19.9580   -2.1110   11.2510 C.3   148  VAL148      0.0019
@<TRIPOS>BOND
     1    49    47    1
     2    47    46    1
     3    42    43    1
     4    46    43    1
     5    46    48    1
     6    43    44    1
     7    44    45    2
     8    37    36    2
     9    36    35    1
    10    50    51    1
    11    40    38    1
    12    35    38    1
    13    35    34    1
    14    54    51    1
    15    51    52    1
    16    38    39    1
    17    55    52   am
    18    55    56    1
    19    39    41    1
    20    59    56    1
    21    52    53    2
    22    56    57    1
    23    32    31    2
    24    57    58    2
    25    28    27    2
    26    31    30    1
    27    30    29    1
    28    30    33    1
    29    27    29   am
    30    27    26    1
    31    60    61    1
    32    26    25    1
    33    64    61    1
    34    64    65    1
    35    61    62    1
    36    65    67   ar
    37    65    66   ar
    38    62    63    2
    39    67    69   ar
    40    66    68   ar
    41    23    22    2
    42    69    70   ar
    43    68    70   ar
    44    22    21    1
    45    70    71    1
    46    21    20    1
    47    21    24    1
    48    72    73    1
    49    78    76    1
    50    76    73    1
    51    76    77    1
    52    73    74    1
    53    74    75    2
    54    16    15    2
    55    12    11    2
    56    15    14    1
    57    14    13    1
    58    14    17    1
    59    11    13   am
    60    11    10    1
    61    19    17    1
    62    10     9    1
    63    17    18    1
    64     4     3    2
    65     7     6   ar
    66     3     2    1
    67     6     8   ar
    68     6     5    1
    69     1     2    1
    70     2     5    1
