@<TRIPOS>MOLECULE
tmp/5h2iA00.pdb
 124 118 0 0 0
SMALL
GASTEIGER

@<TRIPOS>ATOM
      1  N        -17.1400  -25.7270    6.7680 N.3    45  LEU45      -0.1245
      2  CA       -18.0600  -25.5170    5.6550 C.3    45  LEU45       0.1561
      3  C        -17.4850  -24.5670    4.6130 C.2    45  LEU45       0.2260
      4  O        -17.8150  -24.6750    3.4270 O.2    45  LEU45      -0.2867
      5  CB       -19.3910  -24.9600    6.1690 C.3    45  LEU45       0.0270
      6  CG       -20.4650  -25.9230    6.6690 C.3    45  LEU45       0.0019
      7  CD1      -21.6190  -25.1390    7.2790 C.3    45  LEU45       0.0001
      8  CD2      -20.9680  -26.8170    5.5400 C.3    45  LEU45       0.0001
      9  N        -17.5610  -25.5160    0.6010 N.3    49  ILE49      -0.1245
     10  CA       -18.3110  -24.7710   -0.4070 C.3    49  ILE49       0.1561
     11  C        -17.3780  -24.3030   -1.5170 C.2    49  ILE49       0.2260
     12  O        -17.6640  -24.4720   -2.7080 O.2    49  ILE49      -0.2867
     13  CB       -19.0460  -23.5910    0.2540 C.3    49  ILE49       0.0252
     14  CG1      -20.2030  -24.1140    1.1100 C.3    49  ILE49       0.0019
     15  CG2      -19.5450  -22.5900   -0.7940 C.3    49  ILE49       0.0019
     16  CD1      -20.7140  -23.1130    2.1250 C.3    49  ILE49       0.0001
     17  N        -16.4490  -26.9450   -4.0960 N.3    52  THR52      -0.1203
     18  CA       -17.4320  -27.2850   -5.1220 C.3    52  THR52       0.1994
     19  C        -17.4710  -26.2320   -6.2220 C.2    52  THR52       0.2617
     20  O        -17.6710  -26.5610   -7.3970 O.2    52  THR52      -0.2717
     21  CB       -18.8210  -27.4510   -4.5020 C.3    52  THR52       0.1784
     22  OG1      -19.2780  -26.1950   -3.9880 O.3    52  THR52      -0.2211
     23  CG2      -18.7940  -28.4770   -3.3840 C.3    52  THR52       0.0376
     24  N        -17.2900  -24.9600   -5.8640 N.am   53  MET53      -0.1979
     25  CA       -17.3620  -23.8950   -6.8570 C.3    53  MET53       0.1605
     26  C        -16.0880  -23.8040   -7.6870 C.2    53  MET53       0.2287
     27  O        -16.1560  -23.4820   -8.8770 O.2    53  MET53      -0.2864
     28  CB       -17.6560  -22.5630   -6.1700 C.3    53  MET53       0.0413
     29  CG       -19.0510  -22.4750   -5.5480 C.3    53  MET53       0.0598
     30  SD       -20.3850  -22.6680   -6.7520 S.3    53  MET53      -0.1393
     31  CE       -20.7060  -24.4260   -6.6330 C.3    53  MET53       0.0692
     32  N        -18.5340  -25.3480  -15.8870 N.3    61  TYR61      -0.1241
     33  CA       -19.9410  -25.0700  -15.6210 C.3    61  TYR61       0.1605
     34  C        -20.1390  -23.6570  -15.0840 C.2    61  TYR61       0.2264
     35  O        -21.1440  -23.0070  -15.3890 O.2    61  TYR61      -0.2867
     36  CB       -20.5000  -26.0920  -14.6310 C.3    61  TYR61       0.0534
     37  CG       -21.9700  -25.9010  -14.3420 C.ar   61  TYR61      -0.0201
     38  CD1      -22.9350  -26.4870  -15.1480 C.ar   61  TYR61      -0.0009
     39  CD2      -22.3940  -25.1260  -13.2700 C.ar   61  TYR61      -0.0009
     40  CE1      -24.2810  -26.3120  -14.8930 C.ar   61  TYR61       0.0417
     41  CE2      -23.7390  -24.9450  -13.0070 C.ar   61  TYR61       0.0417
     42  CZ       -24.6770  -25.5400  -13.8220 C.ar   61  TYR61       0.1957
     43  OH       -26.0140  -25.3630  -13.5620 O.3    61  TYR61      -0.2866
     44  N        -19.5700  -18.1180  -17.9170 N.3    64  THR64      -0.1218
     45  CA       -20.4860  -17.6170  -18.9320 C.3    64  THR64       0.1862
     46  C        -19.7910  -16.5210  -19.7310 C.2    64  THR64       0.2287
     47  O        -18.7170  -16.0380  -19.3660 O.2    64  THR64      -0.2866
     48  CB       -21.7940  -17.0890  -18.3170 C.3    64  THR64       0.1770
     49  OG1      -22.7560  -16.8680  -19.3550 O.3    64  THR64      -0.2211
     50  CG2      -21.5650  -15.7830  -17.5570 C.3    64  THR64       0.0375
     51  N        -18.9490  -16.7750  -13.1040 N.3    77  TRP77      -0.1241
     52  CA       -19.9920  -16.3700  -12.1710 C.3    77  TRP77       0.1605
     53  C        -20.0060  -17.2200  -10.9080 C.2    77  TRP77       0.2264
     54  O        -20.5590  -16.7840   -9.8910 O.2    77  TRP77      -0.2867
     55  CB       -21.3650  -16.4270  -12.8570 C.3    77  TRP77       0.0550
     56  CG       -21.7580  -17.7940  -13.3390 C.ar   77  TRP77       0.0003
     57  CD1      -21.6330  -18.2820  -14.6060 C.ar   77  TRP77       0.0946
     58  CD2      -22.3430  -18.8460  -12.5600 C.ar   77  TRP77       0.0152
     59  NE1      -22.1010  -19.5740  -14.6650 N.ar   77  TRP77      -0.2442
     60  CE2      -22.5420  -19.9430  -13.4220 C.ar   77  TRP77       0.0810
     61  CE3      -22.7160  -18.9670  -11.2180 C.ar   77  TRP77       0.0012
     62  CZ2      -23.0970  -21.1450  -12.9860 C.ar   77  TRP77       0.0191
     63  CZ3      -23.2660  -20.1610  -10.7870 C.ar   77  TRP77       0.0001
     64  CH2      -23.4510  -21.2340  -11.6690 C.ar   77  TRP77       0.0015
     65  N        -19.1750  -15.7770   -7.2920 N.3    80  TYR80      -0.1227
     66  CA       -20.1250  -15.0510   -6.4570 C.3    80  TYR80       0.1736
     67  C        -21.0450  -16.0010   -5.7070 C.2    80  TYR80       0.2595
     68  O        -21.4650  -15.6950   -4.5850 O.2    80  TYR80      -0.2718
     69  CB       -20.9230  -14.0720   -7.3200 C.3    80  TYR80       0.0548
     70  CG       -20.0130  -13.1550   -8.0950 C.ar   80  TYR80      -0.0200
     71  CD1      -19.5590  -11.9680   -7.5400 C.ar   80  TYR80      -0.0009
     72  CD2      -19.5710  -13.4950   -9.3640 C.ar   80  TYR80      -0.0009
     73  CE1      -18.7050  -11.1360   -8.2340 C.ar   80  TYR80       0.0417
     74  CE2      -18.7170  -12.6690  -10.0680 C.ar   80  TYR80       0.0417
     75  CZ       -18.2850  -11.4920   -9.4940 C.ar   80  TYR80       0.1957
     76  OH       -17.4330  -10.6660  -10.1890 O.3    80  TYR80      -0.2866
     77  N        -21.3620  -17.1550   -6.2990 N.am   81  ALA81      -0.1980
     78  CA       -22.1270  -18.1670   -5.5800 C.3    81  ALA81       0.1597
     79  C        -21.3320  -18.7020   -4.3960 C.2    81  ALA81       0.2287
     80  O        -21.8910  -18.9550   -3.3220 O.2    81  ALA81      -0.2864
     81  CB       -22.5110  -19.3030   -6.5280 C.3    81  ALA81       0.0319
     82  N        -21.1050  -15.6300   -1.7980 N.3    84  LEU84      -0.1231
     83  CA       -22.3910  -15.3280   -1.1750 C.3    84  LEU84       0.1693
     84  C        -22.5700  -16.0940    0.1290 C.2    84  LEU84       0.2592
     85  O        -23.1470  -15.5720    1.0920 O.2    84  LEU84      -0.2718
     86  CB       -23.5250  -15.6570   -2.1470 C.3    84  LEU84       0.0284
     87  CG       -24.9510  -15.5270   -1.6110 C.3    84  LEU84       0.0019
     88  CD1      -25.2410  -14.0910   -1.2120 C.3    84  LEU84       0.0001
     89  CD2      -25.9510  -16.0140   -2.6480 C.3    84  LEU84       0.0001
     90  N        -22.0900  -17.3340    0.1810 N.am   85  PHE85      -0.1976
     91  CA       -22.2420  -18.1600    1.3710 C.3    85  PHE85       0.1639
     92  C        -21.0060  -18.1860    2.2580 C.2    85  PHE85       0.2290
     93  O        -21.1430  -18.2840    3.4820 O.2    85  PHE85      -0.2864
     94  CB       -22.6060  -19.5930    0.9670 C.3    85  PHE85       0.0560
     95  CG       -23.9200  -19.6960    0.2460 C.ar   85  PHE85      -0.0200
     96  CD1      -25.1130  -19.5540    0.9350 C.ar   85  PHE85      -0.0042
     97  CD2      -23.9610  -19.9190   -1.1200 C.ar   85  PHE85      -0.0042
     98  CE1      -26.3260  -19.6380    0.2740 C.ar   85  PHE85      -0.0003
     99  CE2      -25.1700  -20.0040   -1.7860 C.ar   85  PHE85      -0.0003
    100  CZ       -26.3540  -19.8630   -1.0860 C.ar   85  PHE85      -0.0000
    101  N        -20.1920  -16.6120    6.4730 N.3    89  LEU89      -0.1245
    102  CA       -19.7320  -17.6010    7.4430 C.3    89  LEU89       0.1561
    103  C        -18.4260  -17.1640    8.0960 C.2    89  LEU89       0.2260
    104  O        -18.2150  -17.3950    9.2910 O.2    89  LEU89      -0.2867
    105  CB       -19.5630  -18.9620    6.7670 C.3    89  LEU89       0.0270
    106  CG       -20.8480  -19.6860    6.3650 C.3    89  LEU89       0.0019
    107  CD1      -20.5310  -20.9260    5.5360 C.3    89  LEU89       0.0001
    108  CD2      -21.6640  -20.0650    7.5930 C.3    89  LEU89       0.0001
    109  N        -22.0020   -9.1480   -8.2300 N.3   120  LEU120     -0.1245
    110  CA       -22.4950  -10.0560   -9.2620 C.3   120  LEU120      0.1561
    111  C        -23.2100   -9.2910  -10.3710 C.2   120  LEU120      0.2260
    112  O        -22.9840   -9.5450  -11.5590 O.2   120  LEU120     -0.2867
    113  CB       -23.4290  -11.0900   -8.6350 C.3   120  LEU120      0.0270
    114  CG       -24.1640  -12.0390   -9.5880 C.3   120  LEU120      0.0019
    115  CD1      -23.1890  -12.9380  -10.3320 C.3   120  LEU120      0.0001
    116  CD2      -25.1740  -12.8650   -8.8200 C.3   120  LEU120      0.0001
    117  N        -22.1320   -8.9950  -14.5260 N.3   124  LEU124     -0.1245
    118  CA       -22.9940   -9.4260  -15.6180 C.3   124  LEU124      0.1561
    119  C        -23.5820   -8.2640  -16.4050 C.2   124  LEU124      0.2260
    120  O        -24.3590   -8.4940  -17.3350 O.2   124  LEU124     -0.2867
    121  CB       -24.1280  -10.2980  -15.0710 C.3   124  LEU124      0.0270
    122  CG       -23.6920  -11.5530  -14.3080 C.3   124  LEU124      0.0019
    123  CD1      -24.9040  -12.2760  -13.7370 C.3   124  LEU124      0.0001
    124  CD2      -22.8900  -12.4890  -15.2000 C.3   124  LEU124      0.0001
@<TRIPOS>BOND
     1    46    47    2
     2    46    45    1
     3    49    48    1
     4    45    48    1
     5    45    44    1
     6    48    50    1
     7   120   119    2
     8   119   118    1
     9    32    33    1
    10    33    34    1
    11    33    36    1
    12   118   121    1
    13   118   117    1
    14    35    34    2
    15   124   122    1
    16    38    40   ar
    17    38    37   ar
    18   121   122    1
    19    40    42   ar
    20    59    57   ar
    21    59    60   ar
    22    36    37    1
    23    57    56   ar
    24    37    39   ar
    25   122   123    1
    26    42    43    1
    27    42    41   ar
    28    60    62   ar
    29    60    58   ar
    30    56    55    1
    31    56    58   ar
    32    39    41   ar
    33    51    52    1
    34    62    64   ar
    35    55    52    1
    36    58    61   ar
    37    52    53    1
    38    64    63   ar
    39   112   111    2
    40    61    63   ar
    41    53    54    2
    42   111   110    1
    43   115   114    1
    44    76    75    1
    45    74    75   ar
    46    74    72   ar
    47   114   116    1
    48   114   113    1
    49    75    73   ar
    50    72    70   ar
    51   110   113    1
    52   110   109    1
    53    27    26    2
    54    73    71   ar
    55    70    71   ar
    56    70    69    1
    57    26    25    1
    58    20    19    2
    59    69    66    1
    60    65    66    1
    61    25    28    1
    62    25    24    1
    63    30    31    1
    64    30    29    1
    65    81    78    1
    66    66    67    1
    67    77    67   am
    68    77    78    1
    69    19    24   am
    70    19    18    1
    71    28    29    1
    72    67    68    2
    73    78    79    1
    74    18    21    1
    75    18    17    1
    76    21    22    1
    77    21    23    1
    78    79    80    2
    79    12    11    2
    80    89    87    1
    81    86    87    1
    82    86    83    1
    83    82    83    1
    84    99    97   ar
    85    99   100   ar
    86    87    88    1
    87    11    10    1
    88    83    84    1
    89    97    95   ar
    90   100    98   ar
    91    15    13    1
    92    10    13    1
    93    10     9    1
    94    84    90   am
    95    84    85    2
    96    90    91    1
    97    95    96   ar
    98    95    94    1
    99    13    14    1
   100    98    96   ar
   101    94    91    1
   102    14    16    1
   103    91    92    1
   104    92    93    2
   105     4     3    2
   106     3     2    1
   107   107   106    1
   108     8     6    1
   109     2     5    1
   110     2     1    1
   111     5     6    1
   112   106   105    1
   113   106   108    1
   114   101   102    1
   115     6     7    1
   116   105   102    1
   117   102   103    1
   118   103   104    2
