@<TRIPOS>MOLECULE
tmp/5h2iA03.pdb
 78 73 0 0 0
SMALL
GASTEIGER

@<TRIPOS>ATOM
      1  N        -21.1050  -15.6300   -1.7980 N.3    84  LEU84      -0.1231
      2  CA       -22.3910  -15.3280   -1.1750 C.3    84  LEU84       0.1693
      3  C        -22.5700  -16.0940    0.1290 C.2    84  LEU84       0.2592
      4  O        -23.1470  -15.5720    1.0920 O.2    84  LEU84      -0.2718
      5  CB       -23.5250  -15.6570   -2.1470 C.3    84  LEU84       0.0284
      6  CG       -24.9510  -15.5270   -1.6110 C.3    84  LEU84       0.0019
      7  CD1      -25.2410  -14.0910   -1.2120 C.3    84  LEU84       0.0001
      8  CD2      -25.9510  -16.0140   -2.6480 C.3    84  LEU84       0.0001
      9  N        -22.0900  -17.3340    0.1810 N.am   85  PHE85      -0.1976
     10  CA       -22.2420  -18.1600    1.3710 C.3    85  PHE85       0.1639
     11  C        -21.0060  -18.1860    2.2580 C.2    85  PHE85       0.2290
     12  O        -21.1430  -18.2840    3.4820 O.2    85  PHE85      -0.2864
     13  CB       -22.6060  -19.5930    0.9670 C.3    85  PHE85       0.0560
     14  CG       -23.9200  -19.6960    0.2460 C.ar   85  PHE85      -0.0200
     15  CD1      -25.1130  -19.5540    0.9350 C.ar   85  PHE85      -0.0042
     16  CD2      -23.9610  -19.9190   -1.1200 C.ar   85  PHE85      -0.0042
     17  CE1      -26.3260  -19.6380    0.2740 C.ar   85  PHE85      -0.0003
     18  CE2      -25.1700  -20.0040   -1.7860 C.ar   85  PHE85      -0.0003
     19  CZ       -26.3540  -19.8630   -1.0860 C.ar   85  PHE85      -0.0000
     20  N        -20.2330  -14.5320    4.5620 N.3    88  PRO88      -0.2102
     21  CA       -20.9710  -14.3760    5.8270 C.3    88  PRO88       0.1504
     22  C        -20.5810  -15.4010    6.8770 C.2    88  PRO88       0.2575
     23  O        -20.6320  -15.0910    8.0740 O.2    88  PRO88      -0.2718
     24  CB       -22.4420  -14.5140    5.4090 C.3    88  PRO88       0.0282
     25  CG       -22.4180  -15.1840    4.1000 C.3    88  PRO88       0.0208
     26  CD       -21.1500  -14.7670    3.4310 C.3    88  PRO88       0.0893
     27  N        -20.1920  -16.6120    6.4730 N.am   89  LEU89      -0.1980
     28  CA       -19.7320  -17.6010    7.4430 C.3    89  LEU89       0.1596
     29  C        -18.4260  -17.1640    8.0960 C.2    89  LEU89       0.2287
     30  O        -18.2150  -17.3950    9.2910 O.2    89  LEU89      -0.2864
     31  CB       -19.5630  -18.9620    6.7670 C.3    89  LEU89       0.0297
     32  CG       -20.8480  -19.6860    6.3650 C.3    89  LEU89       0.0022
     33  CD1      -20.5310  -20.9260    5.5360 C.3    89  LEU89       0.0001
     34  CD2      -21.6640  -20.0650    7.5930 C.3    89  LEU89       0.0001
     35  N        -19.2350  -14.6030   10.6240 N.3    92  LEU92      -0.1245
     36  CA       -19.8410  -15.2160   11.8010 C.3    92  LEU92       0.1561
     37  C        -18.7740  -15.7830   12.7330 C.2    92  LEU92       0.2260
     38  O        -18.9050  -15.6900   13.9590 O.2    92  LEU92      -0.2867
     39  CB       -20.8250  -16.3010   11.3740 C.3    92  LEU92       0.0270
     40  CG       -21.8670  -16.7280   12.4100 C.3    92  LEU92       0.0019
     41  CD1      -22.7960  -15.5730   12.7560 C.3    92  LEU92       0.0001
     42  CD2      -22.6660  -17.9110   11.8890 C.3    92  LEU92       0.0001
     43  N        -26.8270   -9.5020   18.5330 N.3   102  GLN102     -0.1245
     44  CA       -27.5550   -9.9690   17.3560 C.3   102  GLN102      0.1566
     45  C        -27.7190   -8.8630   16.3210 C.2   102  GLN102      0.2260
     46  O        -27.5600   -9.1020   15.1180 O.2   102  GLN102     -0.2867
     47  CB       -28.9210  -10.5140   17.7700 C.3   102  GLN102      0.0367
     48  CG       -28.8560  -11.7350   18.6680 C.3   102  GLN102      0.0905
     49  CD       -30.2220  -12.3460   18.9140 C.2   102  GLN102      0.2608
     50  OE1      -31.2480  -11.7500   18.5850 O.2   102  GLN102     -0.2717
     51  NE2      -30.2400  -13.5430   19.4890 N.am  102  GLN102     -0.0878
     52  N        -24.6280   -8.5250   14.2620 N.3   105  ILE105     -0.1231
     53  CA       -24.4350   -9.6510   13.3490 C.3   105  ILE105      0.1692
     54  C        -25.3080   -9.4840   12.1140 C.2   105  ILE105      0.2591
     55  O        -24.8670   -9.7280   10.9840 O.2   105  ILE105     -0.2718
     56  CB       -24.7290  -10.9830   14.0640 C.3   105  ILE105      0.0266
     57  CG1      -23.6560  -11.2740   15.1160 C.3   105  ILE105      0.0019
     58  CG2      -24.8120  -12.1340   13.0540 C.3   105  ILE105      0.0020
     59  CD1      -23.9670  -12.4710   15.9990 C.3   105  ILE105      0.0001
     60  N        -26.5650   -9.0860   12.3090 N.am  106  LEU106     -0.1980
     61  CA       -27.4760   -8.9390   11.1790 C.3   106  LEU106      0.1596
     62  C        -27.0140   -7.8300   10.2420 C.2   106  LEU106      0.2287
     63  O        -27.1210   -7.9570    9.0160 O.2   106  LEU106     -0.2864
     64  CB       -28.8900   -8.6600   11.6810 C.3   106  LEU106      0.0297
     65  CG       -29.9740   -8.7490   10.6040 C.3   106  LEU106      0.0022
     66  CD1      -30.3050  -10.2040   10.3080 C.3   106  LEU106      0.0001
     67  CD2      -31.2150   -7.9820   11.0190 C.3   106  LEU106      0.0001
     68  N        -24.0070   -9.2880    8.1630 N.3   109  VAL109     -0.1245
     69  CA       -24.4100  -10.2690    7.1590 C.3   109  VAL109      0.1561
     70  C        -25.2080   -9.6000    6.0460 C.2   109  VAL109      0.2260
     71  O        -25.0850   -9.9660    4.8710 O.2   109  VAL109     -0.2867
     72  CB       -25.2040  -11.4050    7.8260 C.3   109  VAL109      0.0252
     73  CG1      -25.7810  -12.3580    6.7810 C.3   109  VAL109      0.0019
     74  CG2      -24.3140  -12.1610    8.8000 C.3   109  VAL109      0.0019
     75  N        -24.1600   -9.4180    2.1180 N.3   113  GLY113     -0.1225
     76  CA       -25.0040   -9.8250    1.0050 C.3   113  GLY113      0.1811
     77  C        -25.1350   -8.7470   -0.0570 C.2   113  GLY113      0.2280
     78  O        -25.1260   -9.0350   -1.2550 O.2   113  GLY113     -0.2866
@<TRIPOS>BOND
     1     8     6    1
     2     5     6    1
     3     5     2    1
     4     1     2    1
     5    18    16   ar
     6    18    19   ar
     7     6     7    1
     8    78    77    2
     9     2     3    1
    10    16    14   ar
    11    19    17   ar
    12    77    76    1
    13     3     9   am
    14     3     4    2
    15     9    10    1
    16    14    15   ar
    17    14    13    1
    18    17    15   ar
    19    13    10    1
    20    76    75    1
    21    10    11    1
    22    11    12    2
    23    26    25    1
    24    26    20    1
    25    25    24    1
    26    20    21    1
    27    71    70    2
    28    24    21    1
    29    33    32    1
    30    21    22    1
    31    70    69    1
    32    32    31    1
    33    32    34    1
    34    27    22   am
    35    27    28    1
    36    31    28    1
    37    73    72    1
    38    22    23    2
    39    69    72    1
    40    69    68    1
    41    28    29    1
    42    72    74    1
    43    29    30    2
    44    63    62    2
    45    62    61    1
    46    66    65    1
    47    65    67    1
    48    65    64    1
    49    35    36    1
    50    55    54    2
    51    61    64    1
    52    61    60    1
    53    39    36    1
    54    39    40    1
    55    36    37    1
    56    42    40    1
    57    54    60   am
    58    54    53    1
    59    40    41    1
    60    37    38    2
    61    58    56    1
    62    53    56    1
    63    53    52    1
    64    56    57    1
    65    57    59    1
    66    46    45    2
    67    45    44    1
    68    44    47    1
    69    44    43    1
    70    47    48    1
    71    50    49    2
    72    48    49    1
    73    49    51   am
