@<TRIPOS>MOLECULE
tmp/5h2rB00.pdb
 222 213 0 0 0
SMALL
GASTEIGER

@<TRIPOS>ATOM
      1  N         33.9740  -19.5890   16.3000 N.3    82  TYR82      -0.1227
      2  CA        33.8980  -19.2080   14.8910 C.3    82  TYR82       0.1736
      3  C         35.2090  -19.3420   14.1120 C.2    82  TYR82       0.2595
      4  O         35.2050  -19.9990   13.0870 O.2    82  TYR82      -0.2718
      5  CB        33.3340  -17.7820   14.7370 C.3    82  TYR82       0.0548
      6  CG        33.0590  -17.4170   13.2970 C.ar   82  TYR82      -0.0200
      7  CD1       31.8380  -17.7190   12.7040 C.ar   82  TYR82      -0.0009
      8  CD2       34.0320  -16.7890   12.5170 C.ar   82  TYR82      -0.0009
      9  CE1       31.6030  -17.4470   11.3500 C.ar   82  TYR82       0.0417
     10  CE2       33.8000  -16.4850   11.1780 C.ar   82  TYR82       0.0417
     11  CZ        32.5770  -16.8010   10.6010 C.ar   82  TYR82       0.1957
     12  OH        32.3460  -16.4850    9.2860 O.3    82  TYR82      -0.2866
     13  N         36.2770  -18.6090   14.5100 N.am   83  HIS83      -0.1975
     14  CA        37.5380  -18.5830   13.7660 C.3    83  HIS83       0.1656
     15  C         38.4120  -19.8280   13.9860 C.2    83  HIS83       0.2291
     16  O         39.5670  -19.7410   14.4270 O.2    83  HIS83      -0.2864
     17  CB        38.2920  -17.2850   14.0460 C.3    83  HIS83       0.0771
     18  CG        37.7040  -16.1000   13.3380 C.ar   83  HIS83       0.0820
     19  ND1       36.9760  -15.1460   14.0160 N.ar   83  HIS83      -0.2267
     20  CD2       37.7450  -15.7680   12.0280 C.ar   83  HIS83       0.1154
     21  CE1       36.6120  -14.2590   13.1080 C.ar   83  HIS83       0.1986
     22  NE2       37.0370  -14.6030   11.8960 N.ar   83  HIS83      -0.2212
     23  N         43.2830  -16.8660    8.2950 N.3   124  ASP124     -0.1239
     24  CA        43.0030  -16.6260    9.7260 C.3   124  ASP124      0.1674
     25  C         43.9050  -17.4270   10.7010 C.2   124  ASP124      0.2266
     26  O         43.5020  -17.6650   11.8530 O.2   124  ASP124     -0.2867
     27  CB        41.5270  -16.8760   10.0560 C.3   124  ASP124      0.1410
     28  CG        40.6230  -15.6860    9.7710 C.2   124  ASP124      0.3668
     29  OD1       41.0660  -14.5380    9.9740 O.co2 124  ASP124     -0.2456
     30  OD2       39.4690  -15.9050    9.4120 O.co2 124  ASP124     -0.2456
     31  N         44.0850  -17.4600   14.8830 N.3   127  HIS127     -0.1241
     32  CA        43.0630  -16.5570   15.3930 C.3   127  HIS127      0.1621
     33  C         42.6280  -17.0970   16.7750 C.2   127  HIS127      0.2264
     34  O         42.3420  -18.2920   16.9110 O.2   127  HIS127     -0.2867
     35  CB        41.8780  -16.5110   14.4410 C.3   127  HIS127      0.0745
     36  CG        41.0400  -15.2850   14.6100 C.ar  127  HIS127      0.0817
     37  ND1       40.2880  -15.0760   15.7530 N.ar  127  HIS127     -0.2268
     38  CD2       40.8210  -14.2670   13.7490 C.ar  127  HIS127      0.1154
     39  CE1       39.6450  -13.9460   15.5540 C.ar  127  HIS127      0.1986
     40  NE2       39.9260  -13.4250   14.3600 N.ar  127  HIS127     -0.2212
     41  N         39.1160   -9.8670   18.2700 N.3   131  ASN131     -0.1240
     42  CA        39.3090   -8.9360   17.1570 C.3   131  ASN131      0.1653
     43  C         40.5480   -8.0360   17.3410 C.2   131  ASN131      0.2266
     44  O         41.0930   -7.9890   18.4390 O.2   131  ASN131     -0.2867
     45  CB        38.0240   -8.1250   16.8940 C.3   131  ASN131      0.1155
     46  CG        37.6070   -7.1730   18.0000 C.2   131  ASN131      0.2627
     47  OD1       38.3190   -6.9420   19.0000 O.2   131  ASN131     -0.2716
     48  ND2       36.4160   -6.6040   17.8520 N.am  131  ASN131     -0.0877
     49  N         41.6230   -8.6760    4.1310 N.3   197  THR197     -0.1218
     50  CA        40.5280   -9.2460    4.9350 C.3   197  THR197      0.1862
     51  C         40.1660   -8.4080    6.1750 C.2   197  THR197      0.2287
     52  O         39.1520   -8.6970    6.8190 O.2   197  THR197     -0.2866
     53  CB        40.7830  -10.7180    5.3070 C.3   197  THR197      0.1770
     54  OG1       41.9580  -10.8080    6.0860 O.3   197  THR197     -0.2211
     55  CG2       40.9110  -11.6240    4.0910 C.3   197  THR197      0.0375
     56  N         38.4360   -6.0150    8.2300 N.3   199  MET199     -0.1245
     57  CA        37.1370   -5.3680    8.0510 C.3   199  MET199      0.1570
     58  C         37.1590   -3.8740    8.3550 C.2   199  MET199      0.2261
     59  O         36.2720   -3.1570    7.9030 O.2   199  MET199     -0.2867
     60  CB        36.0130   -6.0980    8.7950 C.3   199  MET199      0.0387
     61  CG        35.6320   -7.4070    8.1040 C.3   199  MET199      0.0595
     62  SD        34.9240   -7.2380    6.4110 S.3   199  MET199     -0.1393
     63  CE        33.3980   -6.4380    6.7830 C.3   199  MET199      0.0692
     64  N         34.9450  -14.2380    3.0610 N.3   234  ASP234     -0.1225
     65  CA        34.8420  -13.9130    4.4980 C.3   234  ASP234      0.1805
     66  C         33.4630  -13.5090    4.9460 C.2   234  ASP234      0.2597
     67  O         33.1230  -13.7270    6.0990 O.2   234  ASP234     -0.2718
     68  CB        35.8520  -12.8330    4.8910 C.3   234  ASP234      0.1424
     69  CG        36.9860  -13.2860    5.8070 C.2   234  ASP234      0.3668
     70  OD1       36.9070  -14.4190    6.3450 O.co2 234  ASP234     -0.2456
     71  OD2       37.9340  -12.5010    6.0030 O.co2 234  ASP234     -0.2456
     72  N         32.6920  -12.8640    4.0890 N.am  235  ILE235     -0.1980
     73  CA        31.3440  -12.4270    4.4860 C.3   235  ILE235      0.1595
     74  C         30.2590  -13.2350    3.7100 C.2   235  ILE235      0.2287
     75  O         29.0980  -12.8280    3.6280 O.2   235  ILE235     -0.2864
     76  CB        31.1860  -10.8710    4.4310 C.3   235  ILE235      0.0276
     77  CG1       31.4110  -10.2850    3.0270 C.3   235  ILE235      0.0022
     78  CG2       32.1050  -10.1860    5.4680 C.3   235  ILE235      0.0022
     79  CD1       31.1030   -8.7470    2.9420 C.3   235  ILE235      0.0001
     80  N         28.8130  -16.1700    4.6050 N.3   237  ASN237     -0.1225
     81  CA        27.8760  -16.9500    5.4200 C.3   237  ASN237      0.1785
     82  C         26.4130  -16.6090    5.1530 C.2   237  ASN237      0.2597
     83  O         25.5750  -17.4960    5.2150 O.2   237  ASN237     -0.2718
     84  CB        28.1670  -16.7860    6.9110 C.3   237  ASN237      0.1169
     85  CG        29.4780  -17.3310    7.4380 C.2   237  ASN237      0.2627
     86  OD1       29.8340  -17.0710    8.5710 O.2   237  ASN237     -0.2716
     87  ND2       30.2390  -18.0600    6.6620 N.am  237  ASN237     -0.0877
     88  N         26.1150  -15.3270    4.8270 N.am  238  VAL238     -0.1980
     89  CA        24.7530  -14.8610    4.5290 C.3   238  VAL238      0.1595
     90  C         24.2330  -15.3470    3.1470 C.2   238  VAL238      0.2287
     91  O         23.0610  -15.1450    2.8400 O.2   238  VAL238     -0.2864
     92  CB        24.6900  -13.3080    4.6000 C.3   238  VAL238      0.0276
     93  CG1       25.2190  -12.7910    5.9450 C.3   238  VAL238      0.0022
     94  CG2       25.4470  -12.6820    3.4310 C.3   238  VAL238      0.0022
     95  N         23.4540  -20.8660    7.1370 N.3   245  SER245     -0.1217
     96  CA        23.6880  -19.4760    7.5710 C.3   245  SER245      0.1889
     97  C         23.3790  -19.2620    9.0600 C.2   245  SER245      0.2288
     98  O         24.1640  -18.6310    9.7700 O.2   245  SER245     -0.2866
     99  CB        22.8690  -18.5070    6.7340 C.3   245  SER245      0.2089
    100  OG        23.4440  -17.2150    6.7880 O.3   245  SER245     -0.2183
    101  N         26.2170  -20.6590   11.1710 N.3   248  TRP248     -0.1227
    102  CA        27.3630  -19.7280   11.1790 C.3   248  TRP248      0.1737
    103  C         27.0410  -18.5200   12.0980 C.2   248  TRP248      0.2595
    104  O         27.9150  -18.0610   12.8340 O.2   248  TRP248     -0.2718
    105  CB        27.7010  -19.2360    9.7590 C.3   248  TRP248      0.0564
    106  CG        28.3360  -20.2390    8.8330 C.ar  248  TRP248      0.0003
    107  CD1       27.9020  -20.5780    7.5850 C.ar  248  TRP248      0.0946
    108  CD2       29.5740  -20.9450    9.0320 C.ar  248  TRP248      0.0152
    109  NE1       28.7630  -21.4890    7.0130 N.ar  248  TRP248     -0.2442
    110  CE2       29.7990  -21.7310    7.8790 C.ar  248  TRP248      0.0810
    111  CE3       30.5230  -20.9850   10.0660 C.ar  248  TRP248      0.0012
    112  CZ2       30.9110  -22.5730    7.7520 C.ar  248  TRP248      0.0191
    113  CZ3       31.6390  -21.7980    9.9270 C.ar  248  TRP248      0.0001
    114  CH2       31.8300  -22.5770    8.7820 C.ar  248  TRP248      0.0015
    115  N         25.7800  -18.0350   12.0720 N.am  249  ALA249     -0.1980
    116  CA        25.2900  -16.9210   12.9100 C.3   249  ALA249      0.1597
    117  C         25.3870  -17.2150   14.4150 C.2   249  ALA249      0.2287
    118  O         25.8240  -16.3530   15.1950 O.2   249  ALA249     -0.2864
    119  CB        23.8670  -16.5510   12.5220 C.3   249  ALA249      0.0319
    120  N         29.2780  -17.2060   15.3420 N.3   252  VAL252     -0.1231
    121  CA        29.8490  -15.8670   15.4820 C.3   252  VAL252      0.1692
    122  C         29.3310  -15.1620   16.7720 C.2   252  VAL252      0.2592
    123  O         30.0980  -14.4420   17.4270 O.2   252  VAL252     -0.2718
    124  CB        29.6970  -15.0090   14.1890 C.3   252  VAL252      0.0266
    125  CG1       28.2830  -14.4570   14.0180 C.3   252  VAL252      0.0020
    126  CG2       30.7070  -13.8760   14.1790 C.3   252  VAL252      0.0020
    127  N         28.0700  -15.4250   17.1590 N.am  253  THR253     -0.1953
    128  CA        27.4230  -14.8440   18.3470 C.3   253  THR253      0.1897
    129  C         28.1700  -15.2820   19.6160 C.2   253  THR253      0.2313
    130  O         28.5430  -14.4350   20.4330 O.2   253  THR253     -0.2863
    131  CB        25.8950  -15.1480   18.3340 C.3   253  THR253      0.1794
    132  OG1       25.3390  -14.5500   17.1650 O.3   253  THR253     -0.2208
    133  CG2       25.1670  -14.5860   19.5370 C.3   253  THR253      0.0378
    134  N         31.8440  -13.8110   19.7190 N.3   256  PHE256     -0.1227
    135  CA        31.7930  -12.3860   20.0860 C.3   256  PHE256      0.1736
    136  C         31.4720  -12.1730   21.5800 C.2   256  PHE256      0.2595
    137  O         32.1270  -11.3590   22.2230 O.2   256  PHE256     -0.2718
    138  CB        30.8150  -11.6250   19.1830 C.3   256  PHE256      0.0547
    139  CG        31.2960  -11.2570   17.7950 C.ar  256  PHE256     -0.0202
    140  CD1       32.4070  -11.8820   17.2290 C.ar  256  PHE256     -0.0042
    141  CD2       30.5910  -10.3490   17.0190 C.ar  256  PHE256     -0.0042
    142  CE1       32.8390  -11.5450   15.9380 C.ar  256  PHE256     -0.0003
    143  CE2       31.0300  -10.0020   15.7330 C.ar  256  PHE256     -0.0003
    144  CZ        32.1460  -10.6100   15.1970 C.ar  256  PHE256     -0.0000
    145  N         30.5140  -12.9400   22.1320 N.am  257  TYR257     -0.1976
    146  CA        30.1660  -12.8900   23.5680 C.3   257  TYR257      0.1639
    147  C         31.3570  -13.3190   24.4390 C.2   257  TYR257      0.2290
    148  O         31.6260  -12.6950   25.4590 O.2   257  TYR257     -0.2864
    149  CB        28.9420  -13.7780   23.8670 C.3   257  TYR257      0.0560
    150  CG        27.5890  -13.2080   23.4760 C.ar  257  TYR257     -0.0198
    151  CD1       27.4180  -11.8440   23.2500 C.ar  257  TYR257     -0.0009
    152  CD2       26.4750  -14.0340   23.3450 C.ar  257  TYR257     -0.0009
    153  CE1       26.1770  -11.3220   22.8760 C.ar  257  TYR257      0.0417
    154  CE2       25.2300  -13.5220   22.9800 C.ar  257  TYR257      0.0417
    155  CZ        25.0810  -12.1630   22.7650 C.ar  257  TYR257      0.1957
    156  OH        23.8510  -11.6590   22.4080 O.3   257  TYR257     -0.2866
    157  N         27.1300   -5.8960   20.6580 N.3   273  MET273     -0.1230
    158  CA        27.4650   -7.0280   19.7870 C.3   273  MET273      0.1702
    159  C         28.2960   -8.1020   20.5190 C.2   273  MET273      0.2592
    160  O         28.2210   -9.2780   20.1680 O.2   273  MET273     -0.2718
    161  CB        28.2800   -6.4800   18.6100 C.3   273  MET273      0.0401
    162  CG        28.5600   -7.4670   17.5470 C.3   273  MET273      0.0596
    163  SD        29.4580   -6.6640   16.2330 S.3   273  MET273     -0.1393
    164  CE        28.1040   -5.8300   15.3720 C.3   273  MET273      0.0692
    165  N         29.0970   -7.6810   21.5170 N.am  274  PHE274     -0.1976
    166  CA        29.9990   -8.5420   22.2970 C.3   274  PHE274      0.1639
    167  C         29.5200   -8.7270   23.7430 C.2   274  PHE274      0.2290
    168  O         30.1850   -9.3850   24.5410 O.2   274  PHE274     -0.2864
    169  CB        31.4100   -7.9290   22.2900 C.3   274  PHE274      0.0560
    170  CG        31.9940   -7.7140   20.9200 C.ar  274  PHE274     -0.0200
    171  CD1       31.8060   -6.5130   20.2460 C.ar  274  PHE274     -0.0042
    172  CD2       32.7370   -8.7130   20.2980 C.ar  274  PHE274     -0.0042
    173  CE1       32.3350   -6.3240   18.9640 C.ar  274  PHE274     -0.0003
    174  CE2       33.2590   -8.5240   19.0160 C.ar  274  PHE274     -0.0003
    175  CZ        33.0610   -7.3310   18.3600 C.ar  274  PHE274     -0.0000
    176  N         20.6050   -9.4930   22.7280 N.3   280  MET280     -0.1245
    177  CA        20.1170   -9.1300   21.3990 C.3   280  MET280      0.1570
    178  C         19.7060  -10.3540   20.5740 C.2   280  MET280      0.2261
    179  O         20.3510  -11.4000   20.6430 O.2   280  MET280     -0.2867
    180  CB        21.1720   -8.3140   20.6510 C.3   280  MET280      0.0387
    181  CG        21.6750   -7.1170   21.4290 C.3   280  MET280      0.0595
    182  SD        22.4260   -5.8230   20.4220 S.3   280  MET280     -0.1393
    183  CE        23.7710   -6.6910   19.6710 C.3   280  MET280      0.0692
    184  N         19.2990  -12.9370   17.5920 N.3   282  LEU282     -0.1245
    185  CA        20.1330  -13.4360   16.4910 C.3   282  LEU282      0.1561
    186  C         19.6690  -12.8660   15.1270 C.2   282  LEU282      0.2260
    187  O         20.5020  -12.4050   14.3450 O.2   282  LEU282     -0.2867
    188  CB        20.1390  -14.9700   16.4830 C.3   282  LEU282      0.0270
    189  CG        21.0600  -15.6740   15.4920 C.3   282  LEU282      0.0019
    190  CD1       22.5160  -15.5870   15.9350 C.3   282  LEU282      0.0001
    191  CD2       20.6990  -17.1500   15.3920 C.3   282  LEU282      0.0001
    192  N         20.6380   -9.1250   14.5790 N.3   285  GLY285     -0.1210
    193  CA        22.0590   -9.0100   14.2660 C.3   285  GLY285      0.1956
    194  C         22.3590   -9.3620   12.8280 C.2   285  GLY285      0.2611
    195  O         23.1370   -8.6790   12.1530 O.2   285  GLY285     -0.2717
    196  N         21.6850  -10.4060   12.3370 N.am  286  GLN286     -0.1979
    197  CA        21.8610  -10.8860   10.9760 C.3   286  GLN286      0.1601
    198  C         21.2320   -9.9450    9.9490 C.2   286  GLN286      0.2287
    199  O         21.8780   -9.6520    8.9530 O.2   286  GLN286     -0.2864
    200  CB        21.3870  -12.3390   10.8500 C.3   286  GLN286      0.0394
    201  CG        22.3850  -13.3180   11.4890 C.3   286  GLN286      0.0908
    202  CD        23.7180  -13.2930   10.7860 C.2   286  GLN286      0.2608
    203  OE1       23.8110  -13.5750    9.5960 O.2   286  GLN286     -0.2717
    204  NE2       24.7720  -12.8900   11.4860 N.am  286  GLN286     -0.0878
    205  N         23.6830   -6.9590    9.9080 N.3   289  PHE289     -0.1241
    206  CA        24.8630   -7.3380    9.1440 C.3   289  PHE289      0.1605
    207  C         24.5650   -7.3140    7.6350 C.2   289  PHE289      0.2264
    208  O         25.3300   -6.7360    6.8590 O.2   289  PHE289     -0.2867
    209  CB        25.3590   -8.7270    9.5550 C.3   289  PHE289      0.0534
    210  CG        26.6490   -9.0940    8.8620 C.ar  289  PHE289     -0.0203
    211  CD1       27.8150   -8.3560    9.0850 C.ar  289  PHE289     -0.0042
    212  CD2       26.7240  -10.2210    8.0480 C.ar  289  PHE289     -0.0042
    213  CE1       29.0130   -8.6940    8.4250 C.ar  289  PHE289     -0.0003
    214  CE2       27.9280  -10.5830    7.4260 C.ar  289  PHE289     -0.0003
    215  CZ        29.0510   -9.7930    7.5850 C.ar  289  PHE289     -0.0000
    216  N         26.3320   -4.2840    5.7850 N.3   293  VAL293     -0.1245
    217  CA        27.5660   -4.8080    5.1800 C.3   293  VAL293      0.1561
    218  C         27.3460   -5.6870    3.9530 C.2   293  VAL293      0.2260
    219  O         27.7460   -5.2840    2.8680 O.2   293  VAL293     -0.2867
    220  CB        28.4680   -5.5350    6.2330 C.3   293  VAL293      0.0252
    221  CG1       29.7460   -6.1110    5.6060 C.3   293  VAL293      0.0019
    222  CG2       28.8090   -4.6140    7.3960 C.3   293  VAL293      0.0019
@<TRIPOS>BOND
     1    91    90    2
     2   219   218    2
     3    79    77    1
     4    77    76    1
     5    64    65    1
     6    90    89    1
     7    94    92    1
     8    75    74    2
     9    74    73    1
    10   218   217    1
    11    72    73    1
    12    72    66   am
    13    55    53    1
    14    49    50    1
    15    76    73    1
    16    76    78    1
    17    65    68    1
    18    65    66    1
    19    89    92    1
    20    89    88    1
    21    92    93    1
    22    80    81    1
    23    88    82   am
    24    68    69    1
    25    50    53    1
    26    50    51    1
    27    66    67    2
    28    82    83    2
    29    82    81    1
    30   217   216    1
    31   217   220    1
    32    53    54    1
    33    81    84    1
    34   221   220    1
    35    69    71   ar
    36    69    70   ar
    37    51    52    2
    38   220   222    1
    39    62    63    1
    40    62    61    1
    41    87    85   am
    42    99   100    1
    43    99    96    1
    44   208   207    2
    45    84    85    1
    46   109   107   ar
    47   109   110   ar
    48    95    96    1
    49   214   215   ar
    50   214   212   ar
    51    85    86    2
    52    96    97    1
    53   107   106   ar
    54   215   213   ar
    55   207   206    1
    56   112   110   ar
    57   112   114   ar
    58   110   108   ar
    59    59    58    2
    60   212   210   ar
    61    57    56    1
    62    57    58    1
    63    57    60    1
    64    61    60    1
    65    23    24    1
    66   213   211   ar
    67   114   113   ar
    68   106   108   ar
    69   106   105    1
    70   210   211   ar
    71   210   209    1
    72   199   198    2
    73   108   111   ar
    74    97    98    2
    75   206   209    1
    76   206   205    1
    77    12    11    1
    78    30    28   ar
    79   203   202    2
    80    24    27    1
    81    24    25    1
    82   105   102    1
    83    28    29   ar
    84    28    27    1
    85   113   111   ar
    86   198   197    1
    87    11    10   ar
    88    11     9   ar
    89    25    26    2
    90   202   204   am
    91   202   201    1
    92   200   197    1
    93   200   201    1
    94   197   196    1
    95   101   102    1
    96    10     8   ar
    97   102   103    1
    98     9     7   ar
    99    22    20   ar
   100    22    21   ar
   101    20    18   ar
   102   115   103   am
   103   115   116    1
   104   103   104    2
   105   195   194    2
   106   196   194   am
   107     8     6   ar
   108   119   116    1
   109     7     6   ar
   110   194   193    1
   111   116   117    1
   112     4     3    2
   113    21    19   ar
   114     6     5    1
   115    18    19   ar
   116    18    17    1
   117    38    40   ar
   118    38    36   ar
   119    14    15    1
   120    14    17    1
   121    14    13    1
   122    15    16    2
   123   125   124    1
   124     3    13   am
   125     3     2    1
   126   126   124    1
   127   124   121    1
   128   193   192    1
   129   187   186    2
   130    40    39   ar
   131   117   118    2
   132    35    36    1
   133    35    32    1
   134    36    37   ar
   135     5     2    1
   136    31    32    1
   137     2     1    1
   138   186   185    1
   139   144   143   ar
   140   144   142   ar
   141   120   121    1
   142   164   163    1
   143   191   189    1
   144    32    33    1
   145   121   122    1
   146   189   190    1
   147   189   188    1
   148    39    37   ar
   149   143   141   ar
   150   142   140   ar
   151   163   162    1
   152   188   185    1
   153   185   184    1
   154   122   127   am
   155   122   123    2
   156    33    34    2
   157    45    42    1
   158    45    46    1
   159   141   139   ar
   160    42    43    1
   161    42    41    1
   162   127   128    1
   163   132   131    1
   164   140   139   ar
   165    43    44    2
   166   162   161    1
   167   139   138    1
   168    48    46   am
   169    46    47    2
   170   131   128    1
   171   131   133    1
   172   128   129    1
   173   175   173   ar
   174   175   174   ar
   175   161   158    1
   176   173   171   ar
   177   174   172   ar
   178   138   135    1
   179   129   130    2
   180   183   182    1
   181   134   135    1
   182   158   159    1
   183   158   157    1
   184   135   136    1
   185   160   159    2
   186   171   170   ar
   187   172   170   ar
   188   182   181    1
   189   159   165   am
   190   178   179    2
   191   178   177    1
   192   180   177    1
   193   180   181    1
   194   170   169    1
   195   177   176    1
   196   165   166    1
   197   136   145   am
   198   136   137    2
   199   145   146    1
   200   169   166    1
   201   166   167    1
   202   156   155    1
   203   155   153   ar
   204   155   154   ar
   205   153   151   ar
   206   154   152   ar
   207   151   150   ar
   208   152   150   ar
   209   150   149    1
   210   146   149    1
   211   146   147    1
   212   167   168    2
   213   147   148    2
