@<TRIPOS>MOLECULE
tmp/5h36A00.pdb
 83 76 0 0 0
SMALL
GASTEIGER

@<TRIPOS>ATOM
      1  N         -5.1530    4.8970  -14.3030 N.3    47  ILE47      -0.1245
      2  CA        -3.7180    5.1610  -14.3680 C.3    47  ILE47       0.1561
      3  C         -3.3510    6.2700  -13.3850 C.2    47  ILE47       0.2260
      4  O         -2.3330    6.1880  -12.6810 O.2    47  ILE47      -0.2867
      5  CB        -3.2730    5.5530  -15.7900 C.3    47  ILE47       0.0252
      6  CG1       -3.6250    4.4420  -16.7810 C.3    47  ILE47       0.0019
      7  CG2       -1.7780    5.8270  -15.8270 C.3    47  ILE47       0.0019
      8  CD1       -3.0330    4.6370  -18.1570 C.3    47  ILE47       0.0001
      9  N         -0.5990    5.7520  -10.3210 N.3    51  VAL51      -0.1245
     10  CA         0.6320    6.5010  -10.0920 C.3    51  VAL51       0.1561
     11  C          0.5460    7.3590   -8.8250 C.2    51  VAL51       0.2260
     12  O          1.5370    7.5070   -8.1110 O.2    51  VAL51      -0.2867
     13  CB         0.9950    7.3880  -11.3040 C.3    51  VAL51       0.0252
     14  CG1        1.3360    6.5240  -12.5090 C.3    51  VAL51       0.0019
     15  CG2       -0.1310    8.3420  -11.6330 C.3    51  VAL51       0.0019
     16  N         -1.2240   19.3610  -12.7830 N.3   120  ILE120     -0.1231
     17  CA        -1.4040   19.6170  -14.2070 C.3   120  ILE120      0.1692
     18  C         -1.0800   18.3660  -15.0180 C.2   120  ILE120      0.2592
     19  O         -1.7880   18.0250  -15.9720 O.2   120  ILE120     -0.2718
     20  CB        -0.5150   20.7780  -14.6880 C.3   120  ILE120      0.0266
     21  CG1       -0.8240   22.0510  -13.8970 C.3   120  ILE120      0.0019
     22  CG2       -0.7080   21.0180  -16.1730 C.3   120  ILE120      0.0020
     23  CD1        0.0390   23.2330  -14.2820 C.3   120  ILE120      0.0001
     24  N         -0.0200   17.6770  -14.6100 N.am  121  ALA121     -0.1966
     25  CA         0.4160   16.4550  -15.2730 C.3   121  ALA121      0.1728
     26  C         -0.6880   15.4050  -15.2520 C.2   121  ALA121      0.2616
     27  O         -0.9320   14.7400  -16.2540 O.2   121  ALA121     -0.2715
     28  CB         1.6770   15.9130  -14.6170 C.3   121  ALA121      0.0334
     29  N         -1.3510   15.2630  -14.1070 N.am  122  MET122     -0.1977
     30  CA        -2.4320   14.2930  -13.9600 C.3   122  MET122      0.1605
     31  C         -3.6960   14.7440  -14.6750 C.2   122  MET122      0.2287
     32  O         -4.4900   13.9200  -15.1340 O.2   122  MET122     -0.2864
     33  CB        -2.7350   14.0460  -12.4820 C.3   122  MET122      0.0413
     34  CG        -1.6530   13.2890  -11.7190 C.3   122  MET122      0.0598
     35  SD        -1.6560   11.5000  -11.9660 S.3   122  MET122     -0.1393
     36  CE        -0.7650   11.3210  -13.5110 C.3   122  MET122      0.0692
     37  N         -3.7010   16.4650  -17.5460 N.3   124  VAL124     -0.1231
     38  CA        -3.4240   16.0650  -18.9180 C.3   124  VAL124      0.1692
     39  C         -3.5070   14.5450  -19.0600 C.2   124  VAL124      0.2591
     40  O         -4.0390   14.0260  -20.0420 O.2   124  VAL124     -0.2718
     41  CB        -2.0340   16.5470  -19.3760 C.3   124  VAL124      0.0266
     42  CG1       -1.7920   16.1650  -20.8200 C.3   124  VAL124      0.0020
     43  CG2       -1.9070   18.0520  -19.1990 C.3   124  VAL124      0.0020
     44  N         -3.0050   13.8440  -18.0490 N.am  125  ALA125     -0.1980
     45  CA        -2.9040   12.3890  -18.0720 C.3   125  ALA125      0.1597
     46  C         -4.2420   11.6580  -18.1070 C.2   125  ALA125      0.2287
     47  O         -4.4000   10.7240  -18.8810 O.2   125  ALA125     -0.2864
     48  CB        -2.0980   11.9090  -16.8770 C.3   125  ALA125      0.0319
     49  N         -4.6580    9.7860  -21.5880 N.3   129  PHE129     -0.1241
     50  CA        -4.5140    8.3370  -21.4880 C.3   129  PHE129      0.1605
     51  C         -5.8660    7.6670  -21.6900 C.2   129  PHE129      0.2264
     52  O         -5.9480    6.5750  -22.2650 O.2   129  PHE129     -0.2867
     53  CB        -3.8980    7.9280  -20.1490 C.3   129  PHE129      0.0534
     54  CG        -2.4090    8.1170  -20.0890 C.ar  129  PHE129     -0.0203
     55  CD1       -1.8610    9.3210  -19.6750 C.ar  129  PHE129     -0.0042
     56  CD2       -1.5560    7.0920  -20.4590 C.ar  129  PHE129     -0.0042
     57  CE1       -0.4920    9.4980  -19.6240 C.ar  129  PHE129     -0.0003
     58  CE2       -0.1850    7.2610  -20.4110 C.ar  129  PHE129     -0.0003
     59  CZ         0.3480    8.4660  -19.9910 C.ar  129  PHE129     -0.0000
     60  N         -5.8100    4.6450  -24.4790 N.3   133  LEU133     -0.1245
     61  CA        -6.1410    3.2320  -24.3740 C.3   133  LEU133      0.1561
     62  C         -7.1150    2.8040  -25.4690 C.2   133  LEU133      0.2260
     63  O         -6.8780    1.8120  -26.1590 O.2   133  LEU133     -0.2867
     64  CB        -6.7160    2.9230  -22.9930 C.3   133  LEU133      0.0270
     65  CG        -5.7480    3.1690  -21.8330 C.3   133  LEU133      0.0019
     66  CD1       -6.2810    2.5660  -20.5470 C.3   133  LEU133      0.0001
     67  CD2       -4.3640    2.6260  -22.1520 C.3   133  LEU133      0.0001
     68  N         -3.2250   18.0820  -26.5210 N.3   151  ILE151     -0.1245
     69  CA        -2.4890   18.0730  -25.2630 C.3   151  ILE151      0.1561
     70  C         -2.4890   19.4590  -24.6180 C.2   151  ILE151      0.2260
     71  O         -2.5010   19.5790  -23.3930 O.2   151  ILE151     -0.2867
     72  CB        -1.0260   17.6080  -25.4500 C.3   151  ILE151      0.0252
     73  CG1       -0.9450   16.3860  -26.3690 C.3   151  ILE151      0.0019
     74  CG2       -0.3720   17.3270  -24.1040 C.3   151  ILE151      0.0019
     75  CD1       -0.6480   16.7250  -27.8190 C.3   151  ILE151      0.0001
     76  N         -3.6790   20.8470  -21.0590 N.3   155  LEU155     -0.1245
     77  CA        -2.5820   21.5310  -20.3860 C.3   155  LEU155      0.1561
     78  C         -3.0110   22.8940  -19.8630 C.2   155  LEU155      0.2260
     79  O         -2.7620   23.2220  -18.7110 O.2   155  LEU155     -0.2867
     80  CB        -1.3910   21.6880  -21.3340 C.3   155  LEU155      0.0270
     81  CG        -0.0970   22.2750  -20.7680 C.3   155  LEU155      0.0019
     82  CD1        0.3920   21.4670  -19.5840 C.3   155  LEU155      0.0001
     83  CD2        0.9670   22.3270  -21.8480 C.3   155  LEU155      0.0001
@<TRIPOS>BOND
     1    75    73    1
     2    68    69    1
     3    73    72    1
     4    63    62    2
     5    62    61    1
     6    72    69    1
     7    72    74    1
     8    69    70    1
     9    70    71    2
    10    60    61    1
    11    61    64    1
    12    64    65    1
    13    52    51    2
    14    67    65    1
    15    83    81    1
    16    65    66    1
    17    51    50    1
    18    49    50    1
    19    50    53    1
    20    80    81    1
    21    80    77    1
    22    76    77    1
    23    42    41    1
    24    81    82    1
    25    56    58   ar
    26    56    54   ar
    27    58    59   ar
    28    77    78    1
    29    53    54    1
    30    54    55   ar
    31    40    39    2
    32    59    57   ar
    33    78    79    2
    34    55    57   ar
    35    41    43    1
    36    41    38    1
    37    39    38    1
    38    39    44   am
    39    38    37    1
    40    47    46    2
    41     8     6    1
    42    46    45    1
    43    45    44    1
    44    45    48    1
    45     6     5    1
    46    27    26    2
    47    22    20    1
    48    19    18    2
    49     7     5    1
    50     5     2    1
    51    25    26    1
    52    25    28    1
    53    25    24    1
    54    26    29   am
    55    32    31    2
    56    18    24   am
    57    18    17    1
    58    20    17    1
    59    20    21    1
    60    31    30    1
    61     2     1    1
    62     2     3    1
    63    23    21    1
    64    17    16    1
    65    29    30    1
    66    30    33    1
    67    36    35    1
    68     3     4    2
    69    14    13    1
    70    33    34    1
    71    35    34    1
    72    15    13    1
    73    13    10    1
    74     9    10    1
    75    10    11    1
    76    11    12    2
