@<TRIPOS>MOLECULE
tmp/5h36B00.pdb
 106 99 0 0 0
SMALL
GASTEIGER

@<TRIPOS>ATOM
      1  N         -7.0490   17.4650  -57.9040 N.3    33  VAL33      -0.1231
      2  CA        -7.0460   17.3440  -59.3560 C.3    33  VAL33       0.1692
      3  C         -6.3490   16.0690  -59.8150 C.2    33  VAL33       0.2591
      4  O         -6.8690   15.3430  -60.6590 O.2    33  VAL33      -0.2718
      5  CB        -6.3670   18.5530  -60.0220 C.3    33  VAL33       0.0266
      6  CG1       -6.5150   18.4730  -61.5310 C.3    33  VAL33       0.0020
      7  CG2       -6.9620   19.8490  -59.5000 C.3    33  VAL33       0.0020
      8  N         -5.1740   15.8010  -59.2560 N.am   34  LEU34      -0.1980
      9  CA        -4.4000   14.6290  -59.6500 C.3    34  LEU34       0.1596
     10  C         -5.1240   13.3470  -59.2770 C.2    34  LEU34       0.2287
     11  O         -5.4120   12.5240  -60.1370 O.2    34  LEU34      -0.2864
     12  CB        -3.0100   14.6490  -59.0060 C.3    34  LEU34       0.0297
     13  CG        -2.0700   13.4820  -59.3280 C.3    34  LEU34       0.0022
     14  CD1       -0.6540   13.9880  -59.4710 C.3    34  LEU34       0.0001
     15  CD2       -2.1220   12.3990  -58.2590 C.3    34  LEU34       0.0001
     16  N         -8.2930   12.8470  -61.0750 N.3    37  ALA37      -0.1231
     17  CA        -8.0160   12.4470  -62.4480 C.3    37  ALA37       0.1694
     18  C         -7.6540   10.9660  -62.5280 C.2    37  ALA37       0.2591
     19  O         -8.1210   10.2560  -63.4070 O.2    37  ALA37      -0.2718
     20  CB        -6.9050   13.2950  -63.0330 C.3    37  ALA37       0.0304
     21  N         -6.8120   10.5120  -61.6090 N.am   38  VAL38      -0.1980
     22  CA        -6.3850    9.1190  -61.5700 C.3    38  VAL38       0.1595
     23  C         -7.5750    8.2010  -61.3150 C.2    38  VAL38       0.2287
     24  O         -7.6650    7.1150  -61.8830 O.2    38  VAL38      -0.2864
     25  CB        -5.3100    8.8860  -60.4890 C.3    38  VAL38       0.0276
     26  CG1       -4.9590    7.4130  -60.3930 C.3    38  VAL38       0.0022
     27  CG2       -4.0680    9.7040  -60.7950 C.3    38  VAL38       0.0022
     28  N        -10.3180    8.7970  -64.5590 N.3    41  VAL41      -0.1231
     29  CA        -9.7420    8.3860  -65.8290 C.3    41  VAL41       0.1692
     30  C         -9.0850    7.0000  -65.7700 C.2    41  VAL41       0.2592
     31  O         -9.1340    6.2450  -66.7410 O.2    41  VAL41      -0.2718
     32  CB        -8.7080    9.4410  -66.2990 C.3    41  VAL41       0.0266
     33  CG1       -7.7390    8.8670  -67.2960 C.3    41  VAL41       0.0020
     34  CG2       -9.4140   10.6640  -66.8620 C.3    41  VAL41       0.0020
     35  N         -8.5170    6.6560  -64.6170 N.am   42  GLY42      -0.1957
     36  CA        -7.6960    5.4630  -64.4770 C.3    42  GLY42       0.1869
     37  C         -8.2790    4.1480  -64.9630 C.2    42  GLY42       0.2309
     38  O         -7.5990    3.3840  -65.6550 O.2    42  GLY42      -0.2863
     39  N         -8.4630    4.1320  -68.5950 N.3    45  THR45      -0.1203
     40  CA        -7.1080    4.0950  -69.1240 C.3    45  THR45       0.1994
     41  C         -6.5620    2.6770  -69.1530 C.2    45  THR45       0.2617
     42  O         -6.0100    2.2410  -70.1640 O.2    45  THR45      -0.2717
     43  CB        -6.1570    4.9850  -68.3010 C.3    45  THR45       0.1784
     44  OG1       -6.4190    6.3600  -68.5970 O.3    45  THR45      -0.2211
     45  CG2       -4.7070    4.6800  -68.6400 C.3    45  THR45       0.0376
     46  N         -6.7440    1.9470  -68.0570 N.am   46  ILE46      -0.1979
     47  CA        -6.2910    0.5610  -68.0040 C.3    46  ILE46       0.1595
     48  C         -7.0770   -0.2670  -69.0140 C.2    46  ILE46       0.2287
     49  O         -6.5100   -1.1100  -69.7160 O.2    46  ILE46      -0.2864
     50  CB        -6.4470   -0.0410  -66.5940 C.3    46  ILE46       0.0276
     51  CG1       -5.6850    0.8010  -65.5690 C.3    46  ILE46       0.0022
     52  CG2       -5.9580   -1.4810  -66.5700 C.3    46  ILE46       0.0022
     53  CD1       -5.5920    0.1660  -64.2000 C.3    46  ILE46       0.0001
     54  N         -5.7780    0.4390  -72.4390 N.3    49  LEU49      -0.1245
     55  CA        -4.4290   -0.1030  -72.5520 C.3    49  LEU49       0.1561
     56  C         -4.4530   -1.6020  -72.8310 C.2    49  LEU49       0.2260
     57  O         -3.7950   -2.0780  -73.7560 O.2    49  LEU49      -0.2867
     58  CB        -3.6160    0.1820  -71.2880 C.3    49  LEU49       0.0270
     59  CG        -3.0540    1.5980  -71.1600 C.3    49  LEU49       0.0019
     60  CD1       -2.1770    1.7210  -69.9240 C.3    49  LEU49       0.0001
     61  CD2       -2.2820    1.9760  -72.4120 C.3    49  LEU49       0.0001
     62  N         -8.6430    9.8580  -72.8030 N.3    58  TRP58      -0.1241
     63  CA        -8.4190   11.1750  -72.2160 C.3    58  TRP58       0.1605
     64  C         -7.2830   11.9470  -72.8810 C.2    58  TRP58       0.2264
     65  O         -7.2490   13.1750  -72.8210 O.2    58  TRP58      -0.2867
     66  CB        -8.1420   11.0370  -70.7190 C.3    58  TRP58       0.0550
     67  CG        -6.9310   10.2170  -70.4080 C.ar   58  TRP58       0.0003
     68  CD1       -6.8320    8.8590  -70.4470 C.ar   58  TRP58       0.0946
     69  CD2       -5.6480   10.7010  -69.9930 C.ar   58  TRP58       0.0152
     70  NE1       -5.5670    8.4650  -70.0880 N.ar   58  TRP58      -0.2442
     71  CE2       -4.8200    9.5780  -69.8060 C.ar   58  TRP58       0.0810
     72  CE3       -5.1180   11.9740  -69.7680 C.ar   58  TRP58       0.0012
     73  CZ2       -3.4920    9.6900  -69.4030 C.ar   58  TRP58       0.0191
     74  CZ3       -3.8000   12.0830  -69.3670 C.ar   58  TRP58       0.0001
     75  CH2       -3.0020   10.9480  -69.1890 C.ar   58  TRP58       0.0015
     76  N        -10.1830   15.2420  -68.9990 N.3    65  VAL65      -0.1231
     77  CA        -9.2960   15.6600  -67.9230 C.3    65  VAL65       0.1692
     78  C         -9.7730   17.0000  -67.3960 C.2    65  VAL65       0.2591
     79  O         -9.7110   17.2610  -66.1920 O.2    65  VAL65      -0.2718
     80  CB        -7.8320   15.7760  -68.3890 C.3    65  VAL65       0.0266
     81  CG1       -6.9250   16.1300  -67.2190 C.3    65  VAL65       0.0020
     82  CG2       -7.3820   14.4830  -69.0360 C.3    65  VAL65       0.0020
     83  N        -10.2880   17.8320  -68.2960 N.am   66  LEU66      -0.1980
     84  CA       -10.7850   19.1340  -67.8890 C.3    66  LEU66       0.1596
     85  C        -11.9390   18.9020  -66.9240 C.2    66  LEU66       0.2287
     86  O        -12.0300   19.5670  -65.8890 O.2    66  LEU66      -0.2864
     87  CB       -11.2290   19.9630  -69.0960 C.3    66  LEU66       0.0297
     88  CG       -10.1160   20.4580  -70.0250 C.3    66  LEU66       0.0022
     89  CD1      -10.6990   21.0220  -71.3150 C.3    66  LEU66       0.0001
     90  CD2       -9.2320   21.4880  -69.3320 C.3    66  LEU66       0.0001
     91  N        -10.3920   18.0740  -63.9230 N.3    69  LEU69      -0.1245
     92  CA        -9.8730   19.3260  -63.3920 C.3    69  LEU69       0.1561
     93  C        -11.0130   20.1620  -62.8310 C.2    69  LEU69       0.2260
     94  O        -10.8650   20.8200  -61.8040 O.2    69  LEU69      -0.2867
     95  CB        -9.1200   20.1070  -64.4700 C.3    69  LEU69       0.0270
     96  CG        -8.8520   21.5840  -64.1730 C.3    69  LEU69       0.0019
     97  CD1       -7.9340   21.7400  -62.9700 C.3    69  LEU69       0.0001
     98  CD2       -8.2680   22.2770  -65.3920 C.3    69  LEU69       0.0001
     99  N         -6.7760    2.3770  -57.7260 N.3   132  LEU132     -0.1245
    100  CA        -5.7840    3.4350  -57.8530 C.3   132  LEU132      0.1561
    101  C         -6.0310    4.5210  -56.8160 C.2   132  LEU132      0.2260
    102  O         -5.1020    4.9650  -56.1430 O.2   132  LEU132     -0.2867
    103  CB        -5.7960    4.0260  -59.2630 C.3   132  LEU132      0.0270
    104  CG        -5.4140    3.0680  -60.3930 C.3   132  LEU132      0.0019
    105  CD1       -5.1830    3.8260  -61.6900 C.3   132  LEU132      0.0001
    106  CD2       -4.1850    2.2630  -60.0190 C.3   132  LEU132      0.0001
@<TRIPOS>BOND
     1    57    56    2
     2    64    65    2
     3    64    63    1
     4    56    55    1
     5    62    63    1
     6    55    54    1
     7    55    58    1
     8    61    59    1
     9    63    66    1
    10    89    88    1
    11    58    59    1
    12    59    60    1
    13    66    67    1
    14    68    67   ar
    15    68    70   ar
    16    67    69   ar
    17    42    41    2
    18    70    71   ar
    19    88    90    1
    20    88    87    1
    21    69    71   ar
    22    69    72   ar
    23    71    73   ar
    24    72    74   ar
    25    49    48    2
    26    73    75   ar
    27    74    75   ar
    28    41    40    1
    29    41    46   am
    30    40    39    1
    31    40    43    1
    32    87    84    1
    33    82    80    1
    34    48    47    1
    35    76    77    1
    36    45    43    1
    37    44    43    1
    38    80    77    1
    39    80    81    1
    40    83    84    1
    41    83    78   am
    42    46    47    1
    43    47    50    1
    44    77    78    1
    45    84    85    1
    46    78    79    2
    47    33    32    1
    48    85    86    2
    49    34    32    1
    50    31    30    2
    51    50    52    1
    52    50    51    1
    53    32    29    1
    54    29    30    1
    55    29    28    1
    56    30    35   am
    57    38    37    2
    58    51    53    1
    59    98    96    1
    60    37    36    1
    61    35    36    1
    62    95    96    1
    63    95    92    1
    64    96    97    1
    65    91    92    1
    66    19    18    2
    67    92    93    1
    68    20    17    1
    69    93    94    2
    70    18    17    1
    71    18    21   am
    72    17    16    1
    73    24    23    2
    74   105   104    1
    75    21    22    1
    76    22    23    1
    77    22    25    1
    78     6     5    1
    79    27    25    1
    80     4     3    2
    81    25    26    1
    82   104   106    1
    83   104   103    1
    84    11    10    2
    85     5     7    1
    86     5     2    1
    87     3     2    1
    88     3     8   am
    89     9    10    1
    90     9     8    1
    91     9    12    1
    92    14    13    1
    93     2     1    1
    94    13    12    1
    95    13    15    1
    96   103   100    1
    97   100    99    1
    98   100   101    1
    99   101   102    2
