@<TRIPOS>MOLECULE
tmp/5h39A00.pdb
 122 117 0 0 0
SMALL
GASTEIGER

@<TRIPOS>ATOM
      1  N        -26.0130   19.7930   82.9190 N.3    24  ARG24      -0.1245
      2  CA       -24.6410   20.0740   82.4900 C.3    24  ARG24       0.1563
      3  C        -24.5480   20.7350   81.1060 C.2    24  ARG24       0.2260
      4  O        -23.7820   21.6810   80.9010 O.2    24  ARG24      -0.2867
      5  CB       -23.8430   18.7630   82.5060 C.3    24  ARG24       0.0307
      6  CG       -22.4740   18.8230   81.8600 C.3    24  ARG24       0.0489
      7  CD       -21.8090   17.4390   81.8470 C.3    24  ARG24       0.2205
      8  NE       -22.4360   16.4850   80.9280 N.pl3  24  ARG24      -0.0865
      9  CZ       -22.3500   16.5520   79.5990 C.cat  24  ARG24       0.5346
     10  NH1      -21.6830   17.5490   79.0270 N.pl3  24  ARG24       0.1354
     11  NH2      -22.9460   15.6340   78.8380 N.pl3  24  ARG24       0.1354
     12  N        -14.3120    2.2570   78.7160 N.3   109  TYR109     -0.1241
     13  CA       -14.8930    0.9000   78.8230 C.3   109  TYR109      0.1605
     14  C        -13.9320   -0.2450   78.5330 C.2   109  TYR109      0.2264
     15  O        -13.7790   -1.1540   79.3510 O.2   109  TYR109     -0.2867
     16  CB       -16.1110    0.7580   77.8920 C.3   109  TYR109      0.0534
     17  CG       -17.3010    1.5720   78.3250 C.ar  109  TYR109     -0.0201
     18  CD1      -18.0830    1.1670   79.4010 C.ar  109  TYR109     -0.0009
     19  CD2      -17.6330    2.7460   77.6700 C.ar  109  TYR109     -0.0009
     20  CE1      -19.1590    1.9130   79.8140 C.ar  109  TYR109      0.0417
     21  CE2      -18.7140    3.5000   78.0650 C.ar  109  TYR109      0.0417
     22  CZ       -19.4780    3.0750   79.1380 C.ar  109  TYR109      0.1957
     23  OH       -20.5630    3.8160   79.5360 O.3   109  TYR109     -0.2866
     24  N        -14.5880   10.9230   78.8890 N.3   166  LEU166     -0.1231
     25  CA       -15.9500   11.0590   79.4140 C.3   166  LEU166      0.1678
     26  C        -16.1970    9.9800   80.4520 C.2   166  LEU166      0.2434
     27  O        -15.7390    8.8490   80.2880 O.2   166  LEU166     -0.2733
     28  CB       -17.0190   10.9000   78.3200 C.3   166  LEU166      0.0284
     29  CG       -17.1620   11.8010   77.1080 C.3   166  LEU166      0.0019
     30  CD1      -18.2390   11.1990   76.2060 C.3   166  LEU166      0.0001
     31  CD2      -17.5500   13.2040   77.5420 C.3   166  LEU166      0.0001
     32  N        -16.9620   10.3000   81.4980 N.am  167  PRO167     -0.2729
     33  CA       -17.2390    9.2530   82.4940 C.3   167  PRO167      0.1401
     34  C        -18.2920    8.2490   81.9680 C.2   167  PRO167      0.2269
     35  O        -19.2330    8.6470   81.3080 O.2   167  PRO167     -0.2865
     36  CB       -17.7500   10.0500   83.6990 C.3   167  PRO167      0.0296
     37  CG       -18.4070   11.2540   83.0860 C.3   167  PRO167      0.0237
     38  CD       -17.6570   11.5680   81.7960 C.3   167  PRO167      0.0939
     39  N        -21.5170    5.9040   81.3090 N.3   169  CYS169     -0.1221
     40  CA       -22.9290    5.9520   81.7000 C.3   169  CYS169      0.1808
     41  C        -23.4160    4.5560   82.0800 C.2   169  CYS169      0.2601
     42  O        -24.3160    4.4040   82.9010 O.2   169  CYS169     -0.2717
     43  CB       -23.8220    6.4850   80.5620 C.3   169  CYS169      0.0970
     44  SG       -23.5710    8.1910   80.1000 S.3   169  CYS169     -0.0800
     45  N        -22.8510    3.5410   81.4360 N.am  170  HIS170     -0.1975
     46  CA       -23.2200    2.1530   81.7390 C.3   170  HIS170      0.1656
     47  C        -22.3100    1.6180   82.8100 C.2   170  HIS170      0.2291
     48  O        -21.1670    1.2370   82.5300 O.2   170  HIS170     -0.2864
     49  CB       -23.1370    1.3030   80.4950 C.3   170  HIS170      0.0771
     50  CG       -23.8140    1.9300   79.3290 C.ar  170  HIS170      0.0820
     51  ND1      -23.1800    2.1300   78.1220 N.ar  170  HIS170     -0.2267
     52  CD2      -25.0560    2.4560   79.2010 C.ar  170  HIS170      0.1154
     53  CE1      -24.0180    2.7200   77.2870 C.ar  170  HIS170      0.1986
     54  NE2      -25.1610    2.9330   77.9180 N.ar  170  HIS170     -0.2212
     55  N        -27.5840    1.6370   84.2520 N.3   188  GLN188     -0.1231
     56  CA       -27.1690    2.8340   83.5390 C.3   188  GLN188      0.1698
     57  C        -27.5330    4.1020   84.3330 C.2   188  GLN188      0.2592
     58  O        -28.7100    4.4030   84.5470 O.2   188  GLN188     -0.2718
     59  CB       -27.8190    2.8620   82.1540 C.3   188  GLN188      0.0381
     60  CG       -27.5210    4.1020   81.3370 C.3   188  GLN188      0.0905
     61  CD       -28.0670    3.9660   79.9230 C.2   188  GLN188      0.2608
     62  OE1      -28.5530    2.9000   79.5430 O.2   188  GLN188     -0.2717
     63  NE2      -27.9770    5.0310   79.1400 N.am  188  GLN188     -0.0878
     64  N        -26.5180    4.8390   84.7650 N.am  189  ARG189     -0.1966
     65  CA       -26.7300    5.9830   85.6700 C.3   189  ARG189      0.1729
     66  C        -27.4210    7.1470   84.9690 C.2   189  ARG189      0.2616
     67  O        -28.0340    7.9950   85.6180 O.2   189  ARG189     -0.2715
     68  CB       -25.3930    6.4660   86.2560 C.3   189  ARG189      0.0348
     69  CG       -24.4110    7.0190   85.1800 C.3   189  ARG189      0.0492
     70  CD       -23.2510    7.9030   85.7260 C.3   189  ARG189      0.2205
     71  NE       -22.4180    8.3400   84.6010 N.pl3 189  ARG189     -0.0865
     72  CZ       -22.6670    9.4130   83.8500 C.cat 189  ARG189      0.5346
     73  NH1      -23.6840   10.2150   84.1440 N.pl3 189  ARG189      0.1354
     74  NH2      -21.8780    9.6970   82.8180 N.pl3 189  ARG189      0.1354
     75  N        -27.3230    7.1880   83.6440 N.am  190  SER190     -0.1950
     76  CA       -27.7730    8.3560   82.8930 C.3   190  SER190      0.1924
     77  C        -28.2340    7.9420   81.5060 C.2   190  SER190      0.2314
     78  O        -27.4770    7.3400   80.7390 O.2   190  SER190     -0.2863
     79  CB       -26.6440    9.3870   82.7980 C.3   190  SER190      0.2116
     80  OG       -27.0360   10.5490   82.0920 O.3   190  SER190     -0.2180
     81  N        -30.1170    9.2850   78.0540 N.3   192  ASP192     -0.1239
     82  CA       -30.7300   10.2100   77.0980 C.3   192  ASP192      0.1674
     83  C        -31.7600    9.3930   76.3260 C.2   192  ASP192      0.2266
     84  O        -31.3960    8.5730   75.4740 O.2   192  ASP192     -0.2867
     85  CB       -29.6560   10.8310   76.1810 C.3   192  ASP192      0.1410
     86  CG       -30.2290   11.6130   74.9890 C.2   192  ASP192      0.3668
     87  OD1      -31.4560   11.6720   74.7660 O.co2 192  ASP192     -0.2456
     88  OD2      -29.4110   12.1540   74.2300 O.co2 192  ASP192     -0.2456
     89  N        -29.7310    8.0950   73.1550 N.3   196  GLY196     -0.1225
     90  CA       -28.9080    7.0660   73.7870 C.3   196  GLY196      0.1811
     91  C        -29.5980    5.7320   74.0340 C.2   196  GLY196      0.2280
     92  O        -29.1450    4.6890   73.5670 O.2   196  GLY196     -0.2866
     93  N        -28.5160    1.8040   73.5110 N.3   200  ASN200     -0.1240
     94  CA       -27.9520    1.0920   74.6750 C.3   200  ASN200      0.1653
     95  C        -28.6460   -0.2430   74.9190 C.2   200  ASN200      0.2266
     96  O        -28.0060   -1.2230   75.3130 O.2   200  ASN200     -0.2867
     97  CB       -28.0360    1.9610   75.9480 C.3   200  ASN200      0.1155
     98  CG       -27.3440    3.3150   75.7870 C.2   200  ASN200      0.2627
     99  OD1      -27.8020    4.3260   76.3130 O.2   200  ASN200     -0.2716
    100  ND2      -26.2500    3.3370   75.0440 N.am  200  ASN200     -0.0877
    101  N        -33.7170   10.8710   81.1660 N.3   230  HIS230     -0.1241
    102  CA       -34.0770   12.2370   80.8020 C.3   230  HIS230      0.1621
    103  C        -34.3620   12.4720   79.3260 C.2   230  HIS230      0.2264
    104  O        -33.9080   11.7370   78.4350 O.2   230  HIS230     -0.2867
    105  CB       -32.9770   13.2050   81.2500 C.3   230  HIS230      0.0745
    106  CG       -31.6120   12.8190   80.7810 C.ar  230  HIS230      0.0817
    107  ND1      -30.7690   12.0180   81.5240 N.ar  230  HIS230     -0.2268
    108  CD2      -30.9460   13.1140   79.6400 C.ar  230  HIS230      0.1154
    109  CE1      -29.6380   11.8420   80.8630 C.ar  230  HIS230      0.1986
    110  NE2      -29.7200   12.4940   79.7160 N.ar  230  HIS230     -0.2212
    111  N        -33.9310   15.6110   76.6350 N.3   232  TYR232     -0.1241
    112  CA       -33.4130   16.9470   76.3520 C.3   232  TYR232      0.1605
    113  C        -34.5270   17.8160   75.7740 C.2   232  TYR232      0.2264
    114  O        -35.3610   17.3290   75.0180 O.2   232  TYR232     -0.2867
    115  CB       -32.2160   16.8640   75.4090 C.3   232  TYR232      0.0534
    116  CG       -30.9610   16.4420   76.1350 C.ar  232  TYR232     -0.0201
    117  CD1      -30.2620   17.3520   76.9050 C.ar  232  TYR232     -0.0009
    118  CD2      -30.4970   15.1330   76.0800 C.ar  232  TYR232     -0.0009
    119  CE1      -29.1190   16.9880   77.5890 C.ar  232  TYR232      0.0417
    120  CE2      -29.3600   14.7580   76.7610 C.ar  232  TYR232      0.0417
    121  CZ       -28.6770   15.6940   77.5230 C.ar  232  TYR232      0.1957
    122  OH       -27.5390   15.3590   78.2170 O.3   232  TYR232     -0.2866
@<TRIPOS>BOND
     1    89    90    1
     2    93    94    1
     3    92    91    2
     4    90    91    1
     5    88    86   ar
     6    94    95    1
     7    94    97    1
     8    87    86   ar
     9    95    96    2
    10    86    85    1
    11   114   113    2
    12   100    98   am
    13   115   116    1
    14   115   112    1
    15    84    83    2
    16   113   112    1
    17    98    97    1
    18    98    99    2
    19   118   116   ar
    20   118   120   ar
    21   116   117   ar
    22    85    82    1
    23    30    29    1
    24    83    82    1
    25   112   111    1
    26   120   121   ar
    27   117   119   ar
    28    82    81    1
    29    29    31    1
    30    29    28    1
    31    53    54   ar
    32    53    51   ar
    33   121   119   ar
    34   121   122    1
    35    19    21   ar
    36    19    17   ar
    37    16    17    1
    38    16    13    1
    39    54    52   ar
    40    21    22   ar
    41    51    50   ar
    42    28    25    1
    43    17    18   ar
    44   104   103    2
    45    14    13    1
    46    14    15    2
    47    12    13    1
    48    11     9    1
    49    24    25    1
    50    10     9    1
    51    22    23    1
    52    22    20   ar
    53    63    61   am
    54    52    50   ar
    55   103   102    1
    56    50    49    1
    57    18    20   ar
    58    25    26    1
    59    62    61    2
    60     9     8    2
    61   108   110   ar
    62   108   106   ar
    63   110   109   ar
    64    61    60    1
    65    44    43    1
    66    27    26    2
    67    26    32   am
    68    49    46    1
    69    43    40    1
    70    78    77    2
    71   106   105    1
    72   106   107   ar
    73   102   101    1
    74   102   105    1
    75   109   107   ar
    76     4     3    2
    77     8     7    1
    78     3     2    1
    79    35    34    2
    80    39    40    1
    81    60    59    1
    82    45    46    1
    83    45    41   am
    84    32    38    1
    85    32    33    1
    86    77    76    1
    87    40    41    1
    88    46    47    1
    89    38    37    1
    90     7     6    1
    91     6     5    1
    92    34    33    1
    93    41    42    2
    94    80    79    1
    95    59    56    1
    96     2     5    1
    97     2     1    1
    98    33    36    1
    99    48    47    2
   100    79    76    1
   101    74    72    1
   102    76    75    1
   103    37    36    1
   104    56    55    1
   105    56    57    1
   106    75    66   am
   107    72    73    1
   108    72    71    2
   109    57    58    2
   110    57    64   am
   111    71    70    1
   112    64    65    1
   113    66    67    2
   114    66    65    1
   115    69    70    1
   116    69    68    1
   117    65    68    1
