@<TRIPOS>MOLECULE
tmp/5h3oD00.pdb
 145 136 0 0 0
SMALL
GASTEIGER

@<TRIPOS>ATOM
      1  N         80.4590  117.6610  139.6700 N.3   411  CYS411     -0.1235
      2  CA        80.4350  117.0820  141.0010 C.3   411  CYS411      0.1677
      3  C         79.0230  116.6230  141.3760 C.2   411  CYS411      0.2270
      4  O         78.0270  117.1470  140.8710 O.2   411  CYS411     -0.2867
      5  CB        80.9520  118.0930  142.0300 C.3   411  CYS411      0.0956
      6  SG        82.7480  118.1750  142.1640 S.3   411  CYS411     -0.0801
      7  N         76.2280  126.2790  140.9750 N.3   430  VAL430     -0.1245
      8  CA        76.0190  125.4050  142.1320 C.3   430  VAL430      0.1561
      9  C         74.5290  125.1920  142.4100 C.2   430  VAL430      0.2260
     10  O         73.7930  126.1430  142.6550 O.2   430  VAL430     -0.2867
     11  CB        76.6910  125.9680  143.4050 C.3   430  VAL430      0.0252
     12  CG1       76.6410  124.9400  144.5200 C.3   430  VAL430      0.0019
     13  CG2       78.1330  126.3620  143.1240 C.3   430  VAL430      0.0019
     14  N         67.3050  125.5190  144.1390 N.3   437  LYS437     -0.1245
     15  CA        68.3100  125.8460  145.1490 C.3   437  LYS437      0.1561
     16  C         68.8450  127.2550  144.8750 C.2   437  LYS437      0.2260
     17  O         68.2530  128.0340  144.1180 O.2   437  LYS437     -0.2867
     18  CB        69.4490  124.8160  145.1550 C.3   437  LYS437      0.0271
     19  CG        70.4190  124.9280  146.3790 C.3   437  LYS437      0.0035
     20  CD        71.8880  124.6870  146.0160 C.3   437  LYS437      0.0206
     21  CE        72.7580  124.5470  147.2710 C.3   437  LYS437      0.1093
     22  NZ        72.5230  123.2800  148.0450 N.3   437  LYS437     -0.1314
     23  N         74.3210  129.3240  142.2340 N.3   440  VAL440     -0.1245
     24  CA        75.4720  130.1910  142.3990 C.3   440  VAL440      0.1561
     25  C         76.3430  129.9560  141.1920 C.2   440  VAL440      0.2260
     26  O         76.7170  128.8210  140.8960 O.2   440  VAL440     -0.2867
     27  CB        76.2610  129.8520  143.6750 C.3   440  VAL440      0.0252
     28  CG1       77.4980  130.7310  143.7820 C.3   440  VAL440      0.0019
     29  CG2       75.3780  130.0120  144.9030 C.3   440  VAL440      0.0019
     30  N         79.8300  130.5720  139.1580 N.3   442  LEU442     -0.1245
     31  CA        81.2310  130.9190  139.0830 C.3   442  LEU442      0.1561
     32  C         81.5860  131.1430  137.6190 C.2   442  LEU442      0.2260
     33  O         81.2070  130.3530  136.7510 O.2   442  LEU442     -0.2867
     34  CB        82.1070  129.8140  139.6850 C.3   442  LEU442      0.0270
     35  CG        81.8470  129.2670  141.0910 C.3   442  LEU442      0.0019
     36  CD1       80.8930  128.0950  141.0580 C.3   442  LEU442      0.0001
     37  CD2       83.1540  128.8460  141.7390 C.3   442  LEU442      0.0001
     38  N         87.4950  129.5180  141.7140 N.3   447  VAL447     -0.1231
     39  CA        88.0690  128.3280  142.3340 C.3   447  VAL447      0.1692
     40  C         87.0410  127.5300  143.1210 C.2   447  VAL447      0.2592
     41  O         86.3110  128.0860  143.9390 O.2   447  VAL447     -0.2718
     42  CB        89.2110  128.6980  143.2950 C.3   447  VAL447      0.0266
     43  CG1       89.7070  127.4630  144.0390 C.3   447  VAL447      0.0020
     44  CG2       90.3400  129.3810  142.5410 C.3   447  VAL447      0.0020
     45  N         86.9860  126.2280  142.8750 N.am  448  PHE448     -0.1962
     46  CA        86.1120  125.3620  143.6450 C.3   448  PHE448      0.1771
     47  C         86.6560  123.9390  143.7220 C.2   448  PHE448      0.2620
     48  O         87.7180  123.6340  143.1900 O.2   448  PHE448     -0.2715
     49  CB        84.7130  125.3590  143.0490 C.3   448  PHE448      0.0574
     50  CG        84.6180  124.6020  141.7730 C.ar  448  PHE448     -0.0200
     51  CD1       84.1360  123.3020  141.7580 C.ar  448  PHE448     -0.0042
     52  CD2       85.0330  125.1790  140.5850 C.ar  448  PHE448     -0.0042
     53  CE1       84.0530  122.5920  140.5800 C.ar  448  PHE448     -0.0003
     54  CE2       84.9500  124.4800  139.4000 C.ar  448  PHE448     -0.0003
     55  CZ        84.4570  123.1810  139.3970 C.ar  448  PHE448     -0.0000
     56  N         85.9210  123.0710  144.4030 N.am  449  GLY449     -0.1940
     57  CA        86.3590  121.7050  144.6050 C.3   449  GLY449      0.2014
     58  C         87.4190  121.6110  145.6850 C.2   449  GLY449      0.2639
     59  O         87.9780  120.5400  145.9330 O.2   449  GLY449     -0.2714
     60  N         87.6870  122.7340  146.3420 N.am  450  GLU450     -0.1963
     61  CA        88.7860  122.8080  147.2980 C.3   450  GLU450      0.1733
     62  C         88.4290  122.3360  148.7090 C.2   450  GLU450      0.2616
     63  O         89.3240  122.0460  149.5030 O.2   450  GLU450     -0.2715
     64  CB        89.3300  124.2440  147.3750 C.3   450  GLU450      0.0429
     65  CG        88.7150  125.1280  148.4830 C.3   450  GLU450      0.1163
     66  CD        87.4460  125.8760  148.0560 C.2   450  GLU450      0.3649
     67  OE1       86.5620  125.2530  147.4280 O.co2 450  GLU450     -0.2457
     68  OE2       87.3300  127.0880  148.3630 O.co2 450  GLU450     -0.2457
     69  N         87.1400  122.2540  149.0300 N.am  451  LEU451     -0.1963
     70  CA        86.7530  121.9240  150.3970 C.3   451  LEU451      0.1728
     71  C         87.0900  120.4850  150.7520 C.2   451  LEU451      0.2616
     72  O         87.5220  120.1980  151.8680 O.2   451  LEU451     -0.2715
     73  CB        85.2650  122.1880  150.6200 C.3   451  LEU451      0.0311
     74  CG        84.9520  123.6240  151.0520 C.3   451  LEU451      0.0022
     75  CD1       83.5560  123.7260  151.6540 C.3   451  LEU451      0.0001
     76  CD2       86.0030  124.1450  152.0350 C.3   451  LEU451      0.0001
     77  N         86.9240  119.5870  149.7900 N.am  452  SER452     -0.1950
     78  CA        87.1630  118.1730  150.0360 C.3   452  SER452      0.1924
     79  C         88.6400  117.8470  150.1610 C.2   452  SER452      0.2314
     80  O         89.0320  117.0570  151.0170 O.2   452  SER452     -0.2863
     81  CB        86.5460  117.3330  148.9230 C.3   452  SER452      0.2116
     82  OG        85.1360  117.4540  148.9340 O.3   452  SER452     -0.2180
     83  N         82.0540  115.6730  148.5740 N.3   465  ARG465     -0.1231
     84  CA        81.5740  116.8790  147.8970 C.3   465  ARG465      0.1694
     85  C         80.3350  117.4370  148.6140 C.2   465  ARG465      0.2593
     86  O         79.2930  116.7800  148.6760 O.2   465  ARG465     -0.2718
     87  CB        81.2570  116.5950  146.4210 C.3   465  ARG465      0.0321
     88  CG        82.4230  116.0580  145.5840 C.3   465  ARG465      0.0489
     89  CD        83.5530  117.0700  145.4200 C.3   465  ARG465      0.2205
     90  NE        84.5570  116.6110  144.4590 N.pl3 465  ARG465     -0.0865
     91  CZ        85.7550  117.1670  144.2950 C.cat 465  ARG465      0.5346
     92  NH1       86.1190  118.2020  145.0400 N.pl3 465  ARG465      0.1354
     93  NH2       86.5980  116.6760  143.3980 N.pl3 465  ARG465      0.1354
     94  N         80.4620  118.6500  149.1510 N.am  466  THR466     -0.1939
     95  CA        79.3930  119.2730  149.9300 C.3   466  THR466      0.2028
     96  C         78.1600  119.5380  149.0830 C.2   466  THR466      0.2642
     97  O         77.0390  119.2230  149.4810 O.2   466  THR466     -0.2714
     98  CB        79.8330  120.6120  150.5450 C.3   466  THR466      0.1808
     99  OG1       80.0550  121.5730  149.5040 O.3   466  THR466     -0.2208
    100  CG2       81.0900  120.4370  151.3790 C.3   466  THR466      0.0379
    101  N         78.3830  120.1270  147.9150 N.am  467  ALA467     -0.1977
    102  CA        77.3090  120.4070  146.9740 C.3   467  ALA467      0.1597
    103  C         77.5640  119.6460  145.6810 C.2   467  ALA467      0.2287
    104  O         78.5220  118.8790  145.5910 O.2   467  ALA467     -0.2864
    105  CB        77.2150  121.8990  146.7100 C.3   467  ALA467      0.0319
    106  N         78.1610  120.5390  141.6680 N.3   469  VAL469     -0.1245
    107  CA        78.3960  121.6270  140.7290 C.3   469  VAL469      0.1561
    108  C         78.0530  121.2210  139.3110 C.2   469  VAL469      0.2260
    109  O         78.5080  120.1840  138.8310 O.2   469  VAL469     -0.2867
    110  CB        79.8570  122.0810  140.7640 C.3   469  VAL469      0.0252
    111  CG1       80.0660  123.2500  139.8110 C.3   469  VAL469      0.0019
    112  CG2       80.2580  122.4590  142.1790 C.3   469  VAL469      0.0019
    113  N         83.4890  128.8540  154.5060 N.3   506  ILE506     -0.1231
    114  CA        82.5360  128.1880  153.6090 C.3   506  ILE506      0.1692
    115  C         81.7770  127.0730  154.3440 C.2   506  ILE506      0.2591
    116  O         80.5790  126.8810  154.1160 O.2   506  ILE506     -0.2718
    117  CB        83.2170  127.5880  152.3500 C.3   506  ILE506      0.0266
    118  CG1       84.1660  128.6000  151.7090 C.3   506  ILE506      0.0019
    119  CG2       82.1650  127.1310  151.3350 C.3   506  ILE506      0.0020
    120  CD1       84.8300  128.0990  150.4490 C.3   506  ILE506      0.0001
    121  N         82.4730  126.3420  155.2180 N.am  507  LEU507     -0.1980
    122  CA        81.8470  125.2690  156.0030 C.3   507  LEU507      0.1596
    123  C         81.0210  125.8340  157.1780 C.2   507  LEU507      0.2287
    124  O         80.2090  125.1250  157.7830 O.2   507  LEU507     -0.2864
    125  CB        82.9150  124.2830  156.5050 C.3   507  LEU507      0.0297
    126  CG        82.5090  122.8680  156.9530 C.3   507  LEU507      0.0022
    127  CD1       82.1810  122.8140  158.4460 C.3   507  LEU507      0.0001
    128  CD2       81.3410  122.3300  156.1280 C.3   507  LEU507      0.0001
    129  N         78.6190  128.0590  156.9840 N.3   509  LYS509     -0.1231
    130  CA        77.2280  128.0860  156.5290 C.3   509  LYS509      0.1693
    131  C         76.4950  126.7750  156.8630 C.2   509  LYS509      0.2592
    132  O         75.3040  126.7750  157.1850 O.2   509  LYS509     -0.2718
    133  CB        77.1940  128.3640  155.0160 C.3   509  LYS509      0.0285
    134  CG        77.8480  129.6990  154.6200 C.3   509  LYS509      0.0035
    135  CD        78.4420  129.7080  153.2020 C.3   509  LYS509      0.0206
    136  CE        77.4000  129.5850  152.0940 C.3   509  LYS509      0.1093
    137  NZ        77.1150  128.1740  151.7070 N.3   509  LYS509     -0.1314
    138  N         77.2320  125.6680  156.8020 N.am  510  ASP510     -0.1974
    139  CA        76.7080  124.3320  157.0820 C.3   510  ASP510      0.1709
    140  C         76.9380  123.9010  158.5320 C.2   510  ASP510      0.2293
    141  O         76.1080  123.2120  159.1280 O.2   510  ASP510     -0.2864
    142  CB        77.3490  123.3210  156.1270 C.3   510  ASP510      0.1436
    143  CG        77.2740  121.9030  156.6420 C.2   510  ASP510      0.3671
    144  OD1       76.1900  121.2940  156.5410 O.co2 510  ASP510     -0.2456
    145  OD2       78.3000  121.3970  157.1440 O.co2 510  ASP510     -0.2456
@<TRIPOS>BOND
     1    33    32    2
     2    32    31    1
     3   109   108    2
     4    31    30    1
     5    31    34    1
     6   108   107    1
     7    55    54   ar
     8    55    53   ar
     9    54    52   ar
    10     1     2    1
    11    34    35    1
    12   111   110    1
    13    53    51   ar
    14    52    50   ar
    15   107   110    1
    16   107   106    1
    17   110   112    1
    18     4     3    2
    19    26    25    2
    20     7     8    1
    21     2     3    1
    22     2     5    1
    23    36    35    1
    24    35    37    1
    25    25    24    1
    26    38    39    1
    27    51    50   ar
    28    50    49    1
    29     5     6    1
    30     8     9    1
    31     8    11    1
    32    23    24    1
    33    39    40    1
    34    39    42    1
    35    24    27    1
    36     9    10    2
    37    44    42    1
    38    45    40   am
    39    45    46    1
    40    49    46    1
    41    40    41    2
    42    13    11    1
    43    48    47    2
    44    42    43    1
    45    93    91    1
    46    11    12    1
    47    46    47    1
    48    27    28    1
    49    27    29    1
    50    47    56   am
    51    17    16    2
    52    14    15    1
    53    91    90    2
    54    91    92    1
    55    56    57    1
    56    90    89    1
    57    57    58    1
    58    16    15    1
    59    15    18    1
    60    18    19    1
    61    89    88    1
    62    88    87    1
    63   104   103    2
    64   103   102    1
    65    58    59    2
    66    58    60   am
    67    20    19    1
    68    20    21    1
    69    60    61    1
    70    87    84    1
    71   105   102    1
    72   102   101    1
    73    21    22    1
    74    61    64    1
    75    61    62    1
    76    64    65    1
    77    67    66   ar
    78    84    83    1
    79    84    85    1
    80   101    96   am
    81    66    68   ar
    82    66    65    1
    83    85    86    2
    84    85    94   am
    85    62    69   am
    86    62    63    2
    87    81    82    1
    88    81    78    1
    89    69    70    1
    90    96    97    2
    91    96    95    1
    92    94    95    1
    93    99    98    1
    94    77    78    1
    95    77    71   am
    96    95    98    1
    97    78    79    1
    98    79    80    2
    99    70    73    1
   100    70    71    1
   101   120   118    1
   102    98   100    1
   103    73    74    1
   104    71    72    2
   105    74    75    1
   106    74    76    1
   107   119   117    1
   108   137   136    1
   109   118   117    1
   110   136   135    1
   111   117   114    1
   112   135   134    1
   113   114   115    1
   114   114   113    1
   115   116   115    2
   116   115   121   am
   117   134   133    1
   118   133   130    1
   119   121   122    1
   120   122   125    1
   121   122   123    1
   122   142   143    1
   123   142   139    1
   124   128   126    1
   125   125   126    1
   126   130   131    1
   127   130   129    1
   128   144   143   ar
   129   143   145   ar
   130   138   131   am
   131   138   139    1
   132   131   132    2
   133   126   127    1
   134   139   140    1
   135   123   124    2
   136   140   141    2
