@<TRIPOS>MOLECULE
tmp/5h3qA01.pdb
 79 75 0 0 0
SMALL
GASTEIGER

@<TRIPOS>ATOM
      1  N         67.8810   12.7170  -21.0850 N.3    24  ARG24      -0.1245
      2  CA        66.8080   11.8160  -21.5060 C.3    24  ARG24       0.1563
      3  C         67.1680   10.3250  -21.3450 C.2    24  ARG24       0.2260
      4  O         66.3790    9.5230  -20.8280 O.2    24  ARG24      -0.2867
      5  CB        66.4510   12.1250  -22.9410 C.3    24  ARG24       0.0307
      6  CG        65.6350   11.0570  -23.5800 C.3    24  ARG24       0.0489
      7  CD        65.2540   11.4400  -24.9900 C.3    24  ARG24       0.2205
      8  NE        64.1730   10.5370  -25.3760 N.pl3  24  ARG24      -0.0865
      9  CZ        62.9540   10.8780  -25.8010 C.cat  24  ARG24       0.5346
     10  NH1       62.5930   12.1610  -25.9720 N.pl3  24  ARG24       0.1354
     11  NH2       62.0730    9.8980  -26.0710 N.pl3  24  ARG24       0.1354
     12  N         66.3140    8.6410  -17.9520 N.3    27  ILE27      -0.1245
     13  CA        64.9660    8.6010  -17.4050 C.3    27  ILE27       0.1561
     14  C         64.0990    7.6840  -18.1680 C.2    27  ILE27       0.2260
     15  O         63.9970    7.8000  -19.3540 O.2    27  ILE27      -0.2867
     16  CB        64.2390    9.9870  -17.4330 C.3    27  ILE27       0.0252
     17  CG1       65.0790   10.9780  -16.6890 C.3    27  ILE27       0.0019
     18  CG2       62.8710    9.8730  -16.7250 C.3    27  ILE27       0.0019
     19  CD1       64.3290   12.1250  -16.0840 C.3    27  ILE27       0.0001
     20  N         60.1340    6.6370  -18.2510 N.3    29  LEU29      -0.1245
     21  CA        58.8090    6.7920  -17.7860 C.3    29  LEU29       0.1561
     22  C         58.1920    5.4350  -17.6630 C.2    29  LEU29       0.2260
     23  O         58.3180    4.6350  -18.5630 O.2    29  LEU29      -0.2867
     24  CB        57.9460    7.6250  -18.7330 C.3    29  LEU29       0.0270
     25  CG        58.3380    9.0770  -18.9350 C.3    29  LEU29       0.0019
     26  CD1       57.1930    9.7300  -19.7380 C.3    29  LEU29       0.0001
     27  CD2       58.6830    9.8990  -17.6680 C.3    29  LEU29       0.0001
     28  N         64.6390   17.7390  -16.8690 N.3    86  CYS86      -0.1221
     29  CA        64.9790   17.0860  -18.1430 C.3    86  CYS86       0.1808
     30  C         64.2500   17.9160  -19.1980 C.2    86  CYS86       0.2602
     31  O         63.0250   17.8870  -19.2780 O.2    86  CYS86      -0.2717
     32  CB        64.5680   15.5980  -18.2080 C.3    86  CYS86       0.0970
     33  SG        65.2230   14.7180  -19.7290 S.3    86  CYS86      -0.0800
     34  N         65.0150   18.7320  -19.9400 N.am   87  THR87      -0.1939
     35  CA        64.5250   19.5830  -20.9690 C.3    87  THR87       0.2028
     36  C         65.0510   19.1860  -22.3700 C.2    87  THR87       0.2642
     37  O         64.9370   19.9520  -23.2520 O.2    87  THR87      -0.2714
     38  CB        64.9390   21.0250  -20.7110 C.3    87  THR87       0.1808
     39  OG1       66.3420   21.0290  -20.6150 O.3    87  THR87      -0.2208
     40  CG2       64.3990   21.5340  -19.4330 C.3    87  THR87       0.0379
     41  N         65.5990   18.0160  -22.5820 N.am   88  GLU88      -0.1963
     42  CA        66.0020   17.6310  -23.9510 C.3    88  GLU88       0.1733
     43  C         64.9230   16.7070  -24.5400 C.2    88  GLU88       0.2617
     44  O         64.9000   15.5080  -24.2860 O.2    88  GLU88      -0.2715
     45  CB        67.4110   17.0350  -23.9660 C.3    88  GLU88       0.0429
     46  CG        67.5700   15.7030  -23.3220 C.3    88  GLU88       0.1163
     47  CD        69.0110   15.2220  -23.2030 C.2    88  GLU88       0.3649
     48  OE1       69.9340   16.0030  -22.9080 O.co2  88  GLU88      -0.2457
     49  OE2       69.2160   14.0060  -23.3260 O.co2  88  GLU88      -0.2457
     50  N         63.9850   17.2840  -25.2650 N.am   89  GLY89      -0.1940
     51  CA        62.7450   16.5680  -25.6620 C.3    89  GLY89       0.2014
     52  C         61.4510   17.0520  -25.0100 C.2    89  GLY89       0.2639
     53  O         61.4100   18.1310  -24.3740 O.2    89  GLY89      -0.2714
     54  N         60.3880   16.2550  -25.1870 N.am   90  ARG90      -0.1963
     55  CA        59.1070   16.5600  -24.6020 C.3    90  ARG90       0.1714
     56  C         58.6190   15.2560  -24.0160 C.2    90  ARG90       0.2458
     57  O         59.0570   14.1670  -24.4760 O.2    90  ARG90      -0.2730
     58  CB        58.1050   17.1140  -25.5640 C.3    90  ARG90       0.0347
     59  CG        57.9440   18.6300  -25.6480 C.3    90  ARG90       0.0492
     60  CD        59.1490   19.4050  -25.2150 C.3    90  ARG90       0.2205
     61  NE        59.4340   20.5820  -26.0060 N.pl3  90  ARG90      -0.0865
     62  CZ        58.9060   21.7790  -25.8260 C.cat  90  ARG90       0.5346
     63  NH1       58.0120   22.0000  -24.8590 N.pl3  90  ARG90       0.1354
     64  NH2       59.2740   22.7620  -26.6440 N.pl3  90  ARG90       0.1354
     65  N         57.7970   15.3530  -22.9490 N.am   91  PRO91      -0.2727
     66  CA        57.5460   16.5900  -22.1890 C.3    91  PRO91       0.1402
     67  C         58.7800   17.1000  -21.4060 C.2    91  PRO91       0.2269
     68  O         59.7070   16.3260  -21.0920 O.2    91  PRO91      -0.2865
     69  CB        56.4820   16.1230  -21.1970 C.3    91  PRO91       0.0296
     70  CG        56.9560   14.7420  -20.8460 C.3    91  PRO91       0.0237
     71  CD        57.3790   14.1710  -22.1790 C.3    91  PRO91       0.0939
     72  N         60.2580   17.8470  -18.0180 N.3    93  LEU93      -0.1245
     73  CA        60.0800   17.2440  -16.7030 C.3    93  LEU93       0.1561
     74  C         60.8100   18.0030  -15.6130 C.2    93  LEU93       0.2260
     75  O         61.9140   18.5830  -15.8020 O.2    93  LEU93      -0.2867
     76  CB        60.6320   15.7970  -16.6250 C.3    93  LEU93       0.0270
     77  CG        60.1150   14.7970  -17.6500 C.3    93  LEU93       0.0019
     78  CD1       60.7300   13.4060  -17.4610 C.3    93  LEU93       0.0001
     79  CD2       58.5830   14.7670  -17.5560 C.3    93  LEU93       0.0001
@<TRIPOS>BOND
     1    64    62    1
     2    11     9    1
     3    61    62    2
     4    61    60    1
     5    10     9    1
     6    62    63    1
     7     9     8    2
     8    51    50    1
     9    51    52    1
    10    59    58    1
    11    59    60    1
    12    58    55    1
    13     8     7    1
    14    50    43   am
    15    54    52   am
    16    54    55    1
    17    52    53    2
    18     7     6    1
    19    55    56    1
    20    43    44    2
    21    43    42    1
    22    57    56    2
    23    56    65   am
    24    45    42    1
    25    45    46    1
    26    42    41    1
    27     6     5    1
    28    49    47   ar
    29    46    47    1
    30    37    36    2
    31    47    48   ar
    32    65    66    1
    33    65    71    1
    34     5     2    1
    35    41    36   am
    36    36    35    1
    37    66    67    1
    38    66    69    1
    39    71    70    1
    40     2     3    1
    41     2     1    1
    42    67    68    2
    43     3     4    2
    44    69    70    1
    45    35    38    1
    46    35    34    1
    47    38    39    1
    48    38    40    1
    49    34    30   am
    50    26    25    1
    51    33    32    1
    52    15    14    2
    53    31    30    2
    54    30    29    1
    55    25    24    1
    56    25    27    1
    57    24    21    1
    58    23    22    2
    59    20    21    1
    60    32    29    1
    61    14    13    1
    62    29    28    1
    63    72    73    1
    64    12    13    1
    65    21    22    1
    66    77    79    1
    67    77    78    1
    68    77    76    1
    69    16    13    1
    70    16    18    1
    71    16    17    1
    72    73    76    1
    73    73    74    1
    74    17    19    1
    75    75    74    2
