@<TRIPOS>MOLECULE
tmp/5h3tC00.pdb
 154 144 0 0 0
SMALL
GASTEIGER

@<TRIPOS>ATOM
      1  N         64.0660  -26.3210  204.9530 N.3   330  PHE330     -0.1241
      2  CA        63.7000  -27.4520  204.0990 C.3   330  PHE330      0.1605
      3  C         64.7300  -28.5710  204.2420 C.2   330  PHE330      0.2264
      4  O         65.9330  -28.3200  204.3310 O.2   330  PHE330     -0.2867
      5  CB        63.6280  -27.0660  202.6040 C.3   330  PHE330      0.0534
      6  CG        62.6280  -25.9930  202.2570 C.ar  330  PHE330     -0.0203
      7  CD1       61.6980  -25.5280  203.1770 C.ar  330  PHE330     -0.0042
      8  CD2       62.6060  -25.4600  200.9580 C.ar  330  PHE330     -0.0042
      9  CE1       60.7740  -24.5120  202.8190 C.ar  330  PHE330     -0.0003
     10  CE2       61.6940  -24.4560  200.6010 C.ar  330  PHE330     -0.0003
     11  CZ        60.7800  -23.9790  201.5470 C.ar  330  PHE330     -0.0000
     12  N         66.4350  -30.8480  202.0860 N.3   332  TYR332     -0.1241
     13  CA        66.6120  -31.0280  200.6480 C.3   332  TYR332      0.1605
     14  C         67.1780  -32.3900  200.2940 C.2   332  TYR332      0.2264
     15  O         66.8260  -32.9380  199.2540 O.2   332  TYR332     -0.2867
     16  CB        67.5460  -29.9680  200.0590 C.3   332  TYR332      0.0534
     17  CG        66.9240  -28.6240  199.8110 C.ar  332  TYR332     -0.0201
     18  CD1       66.0990  -28.4090  198.7080 C.ar  332  TYR332     -0.0009
     19  CD2       67.1750  -27.5510  200.6620 C.ar  332  TYR332     -0.0009
     20  CE1       65.5320  -27.1760  198.4620 C.ar  332  TYR332      0.0417
     21  CE2       66.6090  -26.2950  200.4180 C.ar  332  TYR332      0.0417
     22  CZ        65.7890  -26.1170  199.3210 C.ar  332  TYR332      0.1957
     23  OH        65.2170  -24.8900  199.0720 O.3   332  TYR332     -0.2866
     24  N         71.9730  -28.5280  199.2720 N.3   376  THR376     -0.1218
     25  CA        71.0160  -29.0080  198.2850 C.3   376  THR376      0.1862
     26  C         71.3490  -30.3810  197.7350 C.2   376  THR376      0.2287
     27  O         70.4980  -30.9880  197.0840 O.2   376  THR376     -0.2866
     28  CB        70.9220  -28.0270  197.1080 C.3   376  THR376      0.1770
     29  OG1       72.2480  -27.7100  196.6800 O.3   376  THR376     -0.2211
     30  CG2       70.1970  -26.7410  197.4970 C.3   376  THR376      0.0375
     31  N         72.6550  -23.5500  191.7260 N.3   418  THR418     -0.1218
     32  CA        72.5180  -24.5800  192.7580 C.3   418  THR418      0.1862
     33  C         73.1210  -25.9110  192.3150 C.2   418  THR418      0.2287
     34  O         72.9510  -26.3420  191.1660 O.2   418  THR418     -0.2866
     35  CB        71.0420  -24.8100  193.0970 C.3   418  THR418      0.1770
     36  OG1       70.4790  -23.6490  193.7220 O.3   418  THR418     -0.2211
     37  CG2       70.8920  -26.0180  194.0170 C.3   418  THR418      0.0375
     38  N         72.7410  -29.6800  192.3750 N.3   420  TYR420     -0.1227
     39  CA        71.6100  -30.5840  192.5820 C.3   420  TYR420      0.1736
     40  C         72.0060  -32.0430  192.6840 C.2   420  TYR420      0.2596
     41  O         71.2310  -32.8330  193.2240 O.2   420  TYR420     -0.2718
     42  CB        70.5570  -30.4430  191.4600 C.3   420  TYR420      0.0548
     43  CG        69.7500  -29.1630  191.5220 C.ar  420  TYR420     -0.0200
     44  CD1       68.7980  -28.9500  192.5260 C.ar  420  TYR420     -0.0009
     45  CD2       69.9600  -28.1510  190.5910 C.ar  420  TYR420     -0.0009
     46  CE1       68.0750  -27.7640  192.5920 C.ar  420  TYR420      0.0417
     47  CE2       69.2420  -26.9720  190.6390 C.ar  420  TYR420      0.0417
     48  CZ        68.3060  -26.7740  191.6350 C.ar  420  TYR420      0.1957
     49  OH        67.6160  -25.5830  191.6650 O.3   420  TYR420     -0.2866
     50  N         73.1790  -32.4320  192.1940 N.am  421  THR421     -0.1953
     51  CA        73.5450  -33.8400  192.2510 C.3   421  THR421      0.1897
     52  C         75.0170  -33.9600  192.5690 C.2   421  THR421      0.2313
     53  O         75.8290  -33.1840  192.0590 O.2   421  THR421     -0.2863
     54  CB        73.2970  -34.5830  190.9250 C.3   421  THR421      0.1794
     55  OG1       72.1670  -34.0310  190.2380 O.3   421  THR421     -0.2208
     56  CG2       73.0820  -36.0630  191.1810 C.3   421  THR421      0.0378
     57  N         72.7610  -26.4000  188.3640 N.3   438  GLY438     -0.1225
     58  CA        71.5640  -26.0460  187.6190 C.3   438  GLY438      0.1811
     59  C         71.8430  -25.3310  186.3160 C.2   438  GLY438      0.2280
     60  O         70.9580  -25.2350  185.4660 O.2   438  GLY438     -0.2866
     61  N         71.0920  -31.9450  183.9290 N.3   475  THR475     -0.1203
     62  CA        70.4490  -31.6750  185.2130 C.3   475  THR475      0.1994
     63  C         70.5850  -32.7830  186.2640 C.2   475  THR475      0.2617
     64  O         70.1200  -32.6110  187.3980 O.2   475  THR475     -0.2717
     65  CB        68.9660  -31.4160  184.9760 C.3   475  THR475      0.1784
     66  OG1       68.3710  -32.6230  184.4800 O.3   475  THR475     -0.2211
     67  CG2       68.8170  -30.3280  183.9500 C.3   475  THR475      0.0376
     68  N         71.1630  -33.9180  185.9240 N.am  476  GLU476     -0.1979
     69  CA        71.1650  -35.0180  186.8620 C.3   476  GLU476      0.1602
     70  C         72.2090  -35.9910  186.3580 C.2   476  GLU476      0.2287
     71  O         72.3780  -36.1460  185.1440 O.2   476  GLU476     -0.2864
     72  CB        69.7720  -35.6680  186.9600 C.3   476  GLU476      0.0415
     73  CG        69.7300  -37.0270  187.6710 C.3   476  GLU476      0.1163
     74  CD        69.7140  -36.9440  189.2200 C.2   476  GLU476      0.3649
     75  OE1       70.0810  -35.9150  189.8250 O.co2 476  GLU476     -0.2457
     76  OE2       69.3300  -37.9390  189.8570 O.co2 476  GLU476     -0.2457
     77  N         62.2300  -31.3390  182.3900 N.3   515  LEU515     -0.1231
     78  CA        63.5340  -31.4410  183.0410 C.3   515  LEU515      0.1693
     79  C         63.6270  -32.6520  183.9690 C.2   515  LEU515      0.2592
     80  O         62.6770  -32.9880  184.6830 O.2   515  LEU515     -0.2718
     81  CB        63.7690  -30.1550  183.8300 C.3   515  LEU515      0.0284
     82  CG        64.9800  -29.9790  184.7370 C.3   515  LEU515      0.0019
     83  CD1       65.3750  -28.5020  184.7840 C.3   515  LEU515      0.0001
     84  CD2       64.7400  -30.5370  186.1300 C.3   515  LEU515      0.0001
     85  N         64.8080  -33.2540  184.0170 N.am  516  VAL516     -0.1966
     86  CA        65.0390  -34.5060  184.7230 C.3   516  VAL516      0.1727
     87  C         65.6320  -34.2140  186.1070 C.2   516  VAL516      0.2616
     88  O         66.7520  -33.6840  186.2160 O.2   516  VAL516     -0.2715
     89  CB        65.9410  -35.4330  183.8970 C.3   516  VAL516      0.0290
     90  CG1       66.2700  -36.7090  184.7050 C.3   516  VAL516      0.0023
     91  CG2       65.2810  -35.7610  182.5080 C.3   516  VAL516      0.0023
     92  N         64.8780  -34.5430  187.1630 N.am  517  ASN517     -0.1972
     93  CA        65.2480  -34.3010  188.5580 C.3   517  ASN517      0.1688
     94  C         66.0120  -35.4450  189.2190 C.2   517  ASN517      0.2292
     95  O         66.9480  -35.1950  189.9700 O.2   517  ASN517     -0.2864
     96  CB        63.9780  -33.9830  189.3400 C.3   517  ASN517      0.1181
     97  CG        63.3340  -32.7300  188.8410 C.2   517  ASN517      0.2629
     98  OD1       63.9890  -31.7060  188.7290 O.2   517  ASN517     -0.2716
     99  ND2       62.0570  -32.8240  188.4380 N.am  517  ASN517     -0.0877
    100  N         59.9600  -33.1840  185.7100 N.3   540  ASN540     -0.1240
    101  CA        58.9490  -32.2500  186.1810 C.3   540  ASN540      0.1653
    102  C         57.5400  -32.6830  185.8140 C.2   540  ASN540      0.2266
    103  O         56.5890  -32.0540  186.2780 O.2   540  ASN540     -0.2867
    104  CB        59.2240  -30.8330  185.6490 C.3   540  ASN540      0.1155
    105  CG        60.2940  -30.0820  186.4670 C.2   540  ASN540      0.2627
    106  OD1       60.6750  -30.5010  187.5630 O.2   540  ASN540     -0.2716
    107  ND2       60.7580  -28.9590  185.9350 N.am  540  ASN540     -0.0877
    108  N         55.4400  -32.8350  190.0510 N.3   576  LYS576     -0.1245
    109  CA        56.7850  -33.2300  189.6560 C.3   576  LYS576      0.1561
    110  C         57.3990  -34.2310  190.6310 C.2   576  LYS576      0.2260
    111  O         57.0680  -34.2730  191.8250 O.2   576  LYS576     -0.2867
    112  CB        57.7020  -32.0100  189.5560 C.3   576  LYS576      0.0271
    113  CG        58.0270  -31.3450  190.8780 C.3   576  LYS576      0.0035
    114  CD        58.8290  -30.0530  190.6850 C.3   576  LYS576      0.0206
    115  CE        60.3270  -30.2600  190.8290 C.3   576  LYS576      0.1093
    116  NZ        61.0190  -28.9600  190.5030 N.3   576  LYS576     -0.1314
    117  N         60.6360  -35.3620  192.4680 N.3   578  THR578     -0.1218
    118  CA        61.9050  -34.8300  192.9070 C.3   578  THR578      0.1862
    119  C         62.9230  -35.9190  193.1690 C.2   578  THR578      0.2287
    120  O         64.1230  -35.6400  193.1740 O.2   578  THR578     -0.2866
    121  CB        61.6990  -33.9980  194.1710 C.3   578  THR578      0.1770
    122  OG1       61.0860  -34.8170  195.1860 O.3   578  THR578     -0.2211
    123  CG2       60.7860  -32.8190  193.8510 C.3   578  THR578      0.0375
    124  N         56.0720  -33.4760  194.4290 N.3   595  TYR595     -0.1241
    125  CA        55.4420  -32.2230  194.8430 C.3   595  TYR595      0.1605
    126  C         53.9730  -32.3880  195.1860 C.2   595  TYR595      0.2264
    127  O         53.3580  -31.4370  195.6900 O.2   595  TYR595     -0.2867
    128  CB        55.5350  -31.1600  193.7520 C.3   595  TYR595      0.0534
    129  CG        56.7410  -30.2930  193.8810 C.ar  595  TYR595     -0.0201
    130  CD1       57.8430  -30.7260  194.6100 C.ar  595  TYR595     -0.0009
    131  CD2       56.7860  -29.0270  193.2820 C.ar  595  TYR595     -0.0009
    132  CE1       58.9670  -29.9330  194.7390 C.ar  595  TYR595      0.0417
    133  CE2       57.9040  -28.2160  193.4120 C.ar  595  TYR595      0.0417
    134  CZ        58.9970  -28.6790  194.1430 C.ar  595  TYR595      0.1957
    135  OH        60.1230  -27.9030  194.2760 O.3   595  TYR595     -0.2866
    136  N         55.6510  -30.0360  200.0170 N.3   619  ARG619     -0.1245
    137  CA        56.2240  -30.7520  198.8960 C.3   619  ARG619      0.1563
    138  C         57.4470  -31.5690  199.3290 C.2   619  ARG619      0.2260
    139  O         58.3530  -31.0360  199.9880 O.2   619  ARG619     -0.2867
    140  CB        56.5920  -29.7470  197.8140 C.3   619  ARG619      0.0307
    141  CG        55.3860  -29.1630  197.1020 C.3   619  ARG619      0.0489
    142  CD        55.1110  -27.7640  197.5080 C.3   619  ARG619      0.2205
    143  NE        56.2080  -26.9060  197.1080 N.pl3 619  ARG619     -0.0865
    144  CZ        56.2520  -26.2390  195.9630 C.cat 619  ARG619      0.5346
    145  NH1       55.2480  -26.3310  195.1060 N.pl3 619  ARG619      0.1354
    146  NH2       57.2990  -25.4680  195.6810 N.pl3 619  ARG619      0.1354
    147  N         61.0140  -33.4680  198.9140 N.3   621  LEU621     -0.1245
    148  CA        62.2370  -33.1470  198.1980 C.3   621  LEU621      0.1561
    149  C         63.2140  -34.3060  198.0690 C.2   621  LEU621      0.2260
    150  O         64.1660  -34.1870  197.2830 O.2   621  LEU621     -0.2867
    151  CB        62.9620  -31.9740  198.8830 C.3   621  LEU621      0.0270
    152  CG        62.1040  -30.7120  199.0390 C.3   621  LEU621      0.0019
    153  CD1       62.7600  -29.6660  199.9380 C.3   621  LEU621      0.0001
    154  CD2       61.7820  -30.1120  197.6670 C.3   621  LEU621      0.0001
@<TRIPOS>BOND
     1    77    78    1
     2    91    89    1
     3    78    81    1
     4    78    79    1
     5    81    82    1
     6    89    90    1
     7    89    86    1
     8    61    62    1
     9    67    65    1
    10    79    85   am
    11    79    80    2
    12    85    86    1
    13    66    65    1
    14    86    87    1
    15    82    83    1
    16    82    84    1
    17    65    62    1
    18    71    70    2
    19    62    63    1
    20    60    59    2
    21   104   101    1
    22   104   105    1
    23   100   101    1
    24   102   101    1
    25   102   103    2
    26    68    63   am
    27    68    69    1
    28   107   105   am
    29    87    88    2
    30    87    92   am
    31    63    64    2
    32    59    58    1
    33    70    69    1
    34   105   106    2
    35    69    72    1
    36    72    73    1
    37    92    93    1
    38    58    57    1
    39    73    74    1
    40    99    97   am
    41    93    94    1
    42    93    96    1
    43    98    97    2
    44    97    96    1
    45    94    95    2
    46    74    75   ar
    47    74    76   ar
    48   112   109    1
    49   112   113    1
    50   109   108    1
    51   109   110    1
    52    55    54    1
    53   116   115    1
    54    45    47   ar
    55    45    43   ar
    56   110   111    2
    57    47    48   ar
    58   114   115    1
    59   114   113    1
    60    54    56    1
    61    54    51    1
    62    34    33    2
    63    42    43    1
    64    42    39    1
    65    43    44   ar
    66    48    49    1
    67    48    46   ar
    68    31    32    1
    69    53    52    2
    70    50    51    1
    71    50    40   am
    72    51    52    1
    73    33    32    1
    74    38    39    1
    75   117   118    1
    76    44    46   ar
    77    39    40    1
    78    40    41    2
    79    32    35    1
    80   118   119    1
    81   118   121    1
    82    35    36    1
    83    35    37    1
    84   119   120    2
    85   131   133   ar
    86   131   129   ar
    87   133   134   ar
    88   128   129    1
    89   128   125    1
    90   123   121    1
    91   129   130   ar
    92   134   135    1
    93   134   132   ar
    94   121   122    1
    95   124   125    1
    96   130   132   ar
    97   125   126    1
    98   145   144    1
    99   126   127    2
   100   146   144    1
   101   144   143    2
   102    29    28    1
   103    27    26    2
   104   141   142    1
   105   141   140    1
   106   143   142    1
   107    28    30    1
   108    28    25    1
   109   150   149    2
   110   154   152    1
   111    26    25    1
   112   140   137    1
   113   149   148    1
   114   148   151    1
   115   148   147    1
   116    25    24    1
   117    20    18   ar
   118    20    22   ar
   119    18    17   ar
   120   151   152    1
   121   137   138    1
   122   137   136    1
   123   152   153    1
   124    23    22    1
   125    15    14    2
   126    22    21   ar
   127   138   139    2
   128    17    16    1
   129    17    19   ar
   130    16    13    1
   131    14    13    1
   132    21    19   ar
   133    10     8   ar
   134    10    11   ar
   135    13    12    1
   136     8     6   ar
   137    11     9   ar
   138     6     5    1
   139     6     7   ar
   140     5     2    1
   141     9     7   ar
   142     2     3    1
   143     2     1    1
   144     3     4    2
