@<TRIPOS>MOLECULE
tmp/5h47F01.pdb
 117 113 0 0 0
SMALL
GASTEIGER

@<TRIPOS>ATOM
      1  N         36.6000  191.7540   69.9500 N.3    72  ARG72      -0.1245
      2  CA        35.3520  192.3860   70.3170 C.3    72  ARG72       0.1563
      3  C         34.7090  191.5810   71.4600 C.2    72  ARG72       0.2260
      4  O         34.5790  190.3810   71.3500 O.2    72  ARG72      -0.2867
      5  CB        34.4240  192.4880   69.0930 C.3    72  ARG72       0.0307
      6  CG        35.0200  193.2120   67.8750 C.3    72  ARG72       0.0489
      7  CD        35.2380  194.7110   68.1250 C.3    72  ARG72       0.2205
      8  NE        35.8160  195.4520   66.9960 N.pl3  72  ARG72      -0.0865
      9  CZ        37.1250  195.5960   66.7510 C.cat  72  ARG72       0.5346
     10  NH1       38.0560  195.0660   67.5370 N.pl3  72  ARG72       0.1354
     11  NH2       37.5210  196.3010   65.6910 N.pl3  72  ARG72       0.1354
     12  N         29.4520  196.8110   73.2300 N.3    84  GLU84      -0.1245
     13  CA        30.6450  196.2540   72.6050 C.3    84  GLU84       0.1567
     14  C         31.8730  196.9920   73.0930 C.2    84  GLU84       0.2260
     15  O         31.9360  198.2150   72.9790 O.2    84  GLU84      -0.2867
     16  CB        30.5310  196.4300   71.0910 C.3    84  GLU84       0.0388
     17  CG        31.6890  195.8760   70.2510 C.3    84  GLU84       0.1160
     18  CD        31.5150  196.1350   68.7510 C.2    84  GLU84       0.3649
     19  OE1       31.0490  197.2380   68.3870 O.co2  84  GLU84      -0.2457
     20  OE2       31.8260  195.2450   67.9240 O.co2  84  GLU84      -0.2457
     21  N         35.7890  197.2040   72.2290 N.3    86  ALA86      -0.1245
     22  CA        36.6710  196.8830   71.1060 C.3    86  ALA86       0.1562
     23  C         38.1100  197.1250   71.4540 C.2    86  ALA86       0.2260
     24  O         38.4290  198.0740   72.1500 O.2    86  ALA86      -0.2867
     25  CB        36.3010  197.7080   69.8780 C.3    86  ALA86       0.0290
     26  N         41.6050  197.2310   69.0010 N.3    88  ASP88      -0.1239
     27  CA        42.4150  197.0900   67.7880 C.3    88  ASP88       0.1674
     28  C         43.8660  197.2720   68.2080 C.2    88  ASP88       0.2266
     29  O         44.1890  198.2030   68.9380 O.2    88  ASP88      -0.2867
     30  CB        42.0070  198.1220   66.7470 C.3    88  ASP88       0.1410
     31  CG        40.5590  197.9770   66.3310 C.2    88  ASP88       0.3668
     32  OD1       40.1450  196.8320   66.0730 O.co2  88  ASP88      -0.2456
     33  OD2       39.8080  198.9740   66.2620 O.co2  88  ASP88      -0.2456
     34  N         38.3560  200.5720   73.5700 N.3    94  TYR94      -0.1227
     35  CA        37.4250  201.7250   73.5020 C.3    94  TYR94       0.1736
     36  C         35.9660  201.2580   73.2310 C.2    94  TYR94       0.2595
     37  O         35.7210  200.0760   72.9890 O.2    94  TYR94      -0.2718
     38  CB        37.8670  202.6470   72.3730 C.3    94  TYR94       0.0548
     39  CG        37.8260  201.9550   71.0440 C.ar   94  TYR94      -0.0200
     40  CD1       36.6660  201.9780   70.2650 C.ar   94  TYR94      -0.0009
     41  CD2       38.9120  201.2070   70.5820 C.ar   94  TYR94      -0.0009
     42  CE1       36.5980  201.3060   69.0480 C.ar   94  TYR94       0.0417
     43  CE2       38.8580  200.5430   69.3510 C.ar   94  TYR94       0.0417
     44  CZ        37.7000  200.5940   68.5730 C.ar   94  TYR94       0.1957
     45  OH        37.6720  199.8850   67.3560 O.3    94  TYR94      -0.2866
     46  N         35.0020  202.1670   73.2110 N.am   95  ASN95      -0.1960
     47  CA        33.6240  201.7630   72.9300 C.3    95  ASN95       0.1819
     48  C         33.3760  201.5200   71.4730 C.2    95  ASN95       0.2622
     49  O         33.5180  202.4180   70.6480 O.2    95  ASN95      -0.2715
     50  CB        32.5960  202.7770   73.4050 C.3    95  ASN95       0.1195
     51  CG        32.5540  202.8860   74.8990 C.2    95  ASN95       0.2630
     52  OD1       33.0430  202.0120   75.6190 O.2    95  ASN95      -0.2716
     53  ND2       31.9900  203.9810   75.3810 N.am   95  ASN95      -0.0877
     54  N         32.9910  200.2980   71.1600 N.am   96  GLY96      -0.1940
     55  CA        32.4480  199.9930   69.8590 C.3    96  GLY96       0.2014
     56  C         31.1210  200.6840   69.6470 C.2    96  GLY96       0.2638
     57  O         30.5150  201.2110   70.5960 O.2    96  GLY96      -0.2714
     58  N         30.6730  200.6390   68.3980 N.am   97  ALA97      -0.1977
     59  CA        29.5270  201.3870   67.9080 C.3    97  ALA97       0.1597
     60  C         28.2010  200.7460   68.2150 C.2    97  ALA97       0.2287
     61  O         27.1770  201.3820   68.0380 O.2    97  ALA97      -0.2864
     62  CB        29.6390  201.5790   66.3930 C.3    97  ALA97       0.0319
     63  N         33.4520  186.9250   64.1130 N.3   115  PHE115     -0.1241
     64  CA        34.0670  187.4160   62.8740 C.3   115  PHE115      0.1605
     65  C         33.9160  186.3480   61.7630 C.2   115  PHE115      0.2264
     66  O         34.1950  185.1510   61.9940 O.2   115  PHE115     -0.2867
     67  CB        35.5720  187.6870   63.0640 C.3   115  PHE115      0.0534
     68  CG        35.9070  189.0270   63.6880 C.ar  115  PHE115     -0.0203
     69  CD1       35.5910  190.2250   63.0280 C.ar  115  PHE115     -0.0042
     70  CD2       36.6190  189.0970   64.8900 C.ar  115  PHE115     -0.0042
     71  CE1       35.9370  191.4540   63.5750 C.ar  115  PHE115     -0.0003
     72  CE2       36.9640  190.3290   65.4370 C.ar  115  PHE115     -0.0003
     73  CZ        36.6260  191.5070   64.7830 C.ar  115  PHE115     -0.0000
     74  N         36.8800  193.3200   58.3280 N.3   122  LEU122     -0.1245
     75  CA        36.2780  193.1520   59.6460 C.3   122  LEU122      0.1561
     76  C         34.7690  193.1640   59.4830 C.2   122  LEU122      0.2260
     77  O         34.1490  194.2310   59.3930 O.2   122  LEU122     -0.2867
     78  CB        36.7610  194.2490   60.6170 C.3   122  LEU122      0.0270
     79  CG        38.2840  194.3380   60.8500 C.3   122  LEU122      0.0019
     80  CD1       38.5870  195.2420   62.0280 C.3   122  LEU122      0.0001
     81  CD2       38.9540  192.9970   61.0920 C.3   122  LEU122      0.0001
     82  N         31.1990  191.0300   61.1040 N.3   124  LEU124     -0.1245
     83  CA        30.8160  190.3550   62.3280 C.3   124  LEU124      0.1561
     84  C         29.3790  189.9410   62.2510 C.2   124  LEU124      0.2260
     85  O         28.5440  190.6950   61.7000 O.2   124  LEU124     -0.2867
     86  CB        30.9390  191.2910   63.5390 C.3   124  LEU124      0.0270
     87  CG        32.3310  191.6610   64.0620 C.3   124  LEU124      0.0019
     88  CD1       32.2150  192.9460   64.8610 C.3   124  LEU124      0.0001
     89  CD2       32.9700  190.5540   64.8870 C.3   124  LEU124      0.0001
     90  N         27.6120  193.6320   61.2100 N.3   140  TRP140     -0.1241
     91  CA        28.4790  194.7170   60.8190 C.3   140  TRP140      0.1605
     92  C         29.2350  194.3130   59.5550 C.2   140  TRP140      0.2264
     93  O         30.0530  193.3700   59.5840 O.2   140  TRP140     -0.2867
     94  CB        29.4800  195.0280   61.9350 C.3   140  TRP140      0.0550
     95  CG        30.4960  196.1020   61.5710 C.ar  140  TRP140      0.0003
     96  CD1       31.6770  195.9220   60.9240 C.ar  140  TRP140      0.0946
     97  CD2       30.3980  197.4980   61.8470 C.ar  140  TRP140      0.0152
     98  NE1       32.3190  197.1120   60.7670 N.ar  140  TRP140     -0.2442
     99  CE2       31.5620  198.1030   61.3260 C.ar  140  TRP140      0.0810
    100  CE3       29.4390  198.3000   62.4840 C.ar  140  TRP140      0.0012
    101  CZ2       31.8120  199.4760   61.4390 C.ar  140  TRP140      0.0191
    102  CZ3       29.6800  199.6690   62.5920 C.ar  140  TRP140      0.0001
    103  CH2       30.8610  200.2420   62.0740 C.ar  140  TRP140      0.0015
    104  N         25.7530  199.0490   62.2170 N.3   145  TRP145     -0.1241
    105  CA        25.1000  197.8850   62.7970 C.3   145  TRP145      0.1605
    106  C         23.6780  197.7650   62.3050 C.2   145  TRP145      0.2264
    107  O         22.8790  198.6650   62.5160 O.2   145  TRP145     -0.2867
    108  CB        25.1590  197.9160   64.3340 C.3   145  TRP145      0.0550
    109  CG        26.5200  197.5490   64.8690 C.ar  145  TRP145      0.0003
    110  CD1       27.5110  198.4100   65.3030 C.ar  145  TRP145      0.0946
    111  CD2       27.0520  196.2370   65.0030 C.ar  145  TRP145      0.0152
    112  NE1       28.6380  197.7010   65.7150 N.ar  145  TRP145     -0.2442
    113  CE2       28.3770  196.3620   65.5460 C.ar  145  TRP145      0.0810
    114  CE3       26.5460  194.9610   64.7380 C.ar  145  TRP145      0.0012
    115  CZ2       29.1860  195.2610   65.8070 C.ar  145  TRP145      0.0191
    116  CZ3       27.3510  193.8550   65.0020 C.ar  145  TRP145      0.0001
    117  CH2       28.6680  194.0130   65.5290 C.ar  145  TRP145      0.0015
@<TRIPOS>BOND
     1    74    75    1
     2    77    76    2
     3    76    75    1
     4    92    93    2
     5    92    91    1
     6    75    78    1
     7    78    79    1
     8    98    96   ar
     9    98    99   ar
    10    91    90    1
    11    91    94    1
    12    79    81    1
    13    79    80    1
    14    96    95   ar
    15    82    83    1
    16    99   101   ar
    17    99    97   ar
    18   101   103   ar
    19    95    97   ar
    20    95    94    1
    21    85    84    2
    22    65    66    2
    23    65    64    1
    24    97   100   ar
    25   103   102   ar
    26   104   105    1
    27    84    83    1
    28   106   107    2
    29   106   105    1
    30    83    86    1
    31   100   102   ar
    32   105   108    1
    33    64    67    1
    34    64    63    1
    35    69    71   ar
    36    69    68   ar
    37    67    68    1
    38    86    87    1
    39    71    73   ar
    40    68    70   ar
    41    87    88    1
    42    87    89    1
    43   108   109    1
    44   114   116   ar
    45   114   111   ar
    46    73    72   ar
    47   109   111   ar
    48   109   110   ar
    49    70    72   ar
    50   116   117   ar
    51   111   113   ar
    52   110   112   ar
    53   117   115   ar
    54   113   112   ar
    55   113   115   ar
    56    11     9    1
    57    32    31   ar
    58    33    31   ar
    59    31    30    1
    60    62    59    1
    61    30    27    1
    62     9     8    2
    63     9    10    1
    64     8     7    1
    65    45    44    1
    66    27    28    1
    67    27    26    1
    68     6     7    1
    69     6     5    1
    70    59    60    1
    71    59    58    1
    72    20    18   ar
    73    61    60    2
    74    28    29    2
    75    19    18   ar
    76    58    56   am
    77    44    42   ar
    78    44    43   ar
    79    18    17    1
    80    42    40   ar
    81     5     2    1
    82    43    41   ar
    83    56    55    1
    84    56    57    2
    85    55    54    1
    86    25    22    1
    87     1     2    1
    88    17    16    1
    89    40    39   ar
    90     2     3    1
    91    41    39   ar
    92    49    48    2
    93    39    38    1
    94    16    13    1
    95    22    23    1
    96    22    21    1
    97    54    48   am
    98     4     3    2
    99    23    24    2
   100    48    47    1
   101    38    35    1
   102    13    14    1
   103    13    12    1
   104    47    46    1
   105    47    50    1
   106    15    14    2
   107    37    36    2
   108    46    36   am
   109    36    35    1
   110    50    51    1
   111    35    34    1
   112    51    53   am
   113    51    52    2
