@<TRIPOS>MOLECULE
tmp/5h47F03.pdb
 135 128 0 0 0
SMALL
GASTEIGER

@<TRIPOS>ATOM
      1  N         33.5980  179.2510   59.9100 N.3   165  TRP165     -0.1241
      2  CA        34.8270  178.8310   59.1750 C.3   165  TRP165      0.1605
      3  C         34.6080  179.0370   57.6710 C.2   165  TRP165      0.2264
      4  O         33.4760  179.2920   57.2470 O.2   165  TRP165     -0.2867
      5  CB        35.1690  177.3550   59.4700 C.3   165  TRP165      0.0550
      6  CG        34.1900  176.3950   58.7900 C.ar  165  TRP165      0.0003
      7  CD1       34.3090  175.8630   57.5520 C.ar  165  TRP165      0.0946
      8  CD2       32.9370  175.9190   59.3010 C.ar  165  TRP165      0.0152
      9  NE1       33.2260  175.0760   57.2620 N.ar  165  TRP165     -0.2442
     10  CE2       32.3750  175.0850   58.3210 C.ar  165  TRP165      0.0810
     11  CE3       32.2540  176.0930   60.5050 C.ar  165  TRP165      0.0012
     12  CZ2       31.1790  174.4290   58.4970 C.ar  165  TRP165      0.0191
     13  CZ3       31.0570  175.4340   60.6830 C.ar  165  TRP165      0.0001
     14  CH2       30.5270  174.6140   59.6820 C.ar  165  TRP165      0.0015
     15  N         35.2610  176.8950   54.2030 N.3   167  TYR167     -0.1241
     16  CA        35.7130  175.6550   53.5280 C.3   167  TYR167      0.1605
     17  C         36.7920  176.0280   52.4560 C.2   167  TYR167      0.2264
     18  O         36.6300  177.0190   51.7500 O.2   167  TYR167     -0.2867
     19  CB        34.5390  174.9380   52.8410 C.3   167  TYR167      0.0534
     20  CG        33.4610  174.2050   53.6810 C.ar  167  TYR167     -0.0201
     21  CD1       33.7800  173.0740   54.4490 C.ar  167  TYR167     -0.0009
     22  CD2       32.1000  174.5750   53.6090 C.ar  167  TYR167     -0.0009
     23  CE1       32.8050  172.3810   55.1660 C.ar  167  TYR167      0.0417
     24  CE2       31.1210  173.8730   54.3040 C.ar  167  TYR167      0.0417
     25  CZ        31.4760  172.7750   55.0890 C.ar  167  TYR167      0.1957
     26  OH        30.5370  172.0300   55.8000 O.3   167  TYR167     -0.2866
     27  N         27.5640  178.2230   62.0080 N.3   176  ARG176     -0.1245
     28  CA        26.6870  177.3150   62.7630 C.3   176  ARG176      0.1563
     29  C         26.2910  177.9540   64.0960 C.2   176  ARG176      0.2260
     30  O         27.1440  178.3500   64.8810 O.2   176  ARG176     -0.2867
     31  CB        27.3620  175.9530   62.9850 C.3   176  ARG176      0.0307
     32  CG        27.5680  175.0880   61.7260 C.3   176  ARG176      0.0489
     33  CD        26.3360  174.8260   60.8380 C.3   176  ARG176      0.2205
     34  NE        26.7610  174.1500   59.5970 N.pl3 176  ARG176     -0.0865
     35  CZ        27.1550  174.7480   58.4570 C.cat 176  ARG176      0.5346
     36  NH1       27.1530  176.0730   58.3060 N.pl3 176  ARG176      0.1354
     37  NH2       27.5470  173.9940   57.4340 N.pl3 176  ARG176      0.1354
     38  N         20.5380  172.9900   65.9400 N.3   188  GLN188     -0.1245
     39  CA        21.5360  173.6600   65.1020 C.3   188  GLN188      0.1566
     40  C         20.8020  174.3370   63.9580 C.2   188  GLN188      0.2260
     41  O         19.9240  173.7070   63.3540 O.2   188  GLN188     -0.2867
     42  CB        22.5150  172.6390   64.5230 C.3   188  GLN188      0.0367
     43  CG        23.6100  173.2120   63.5950 C.3   188  GLN188      0.0905
     44  CD        24.0480  172.2490   62.4860 C.2   188  GLN188      0.2608
     45  OE1       25.1640  171.7460   62.4880 O.2   188  GLN188     -0.2717
     46  NE2       23.1630  172.0220   61.5240 N.am  188  GLN188     -0.0878
     47  N         22.0630  176.3660   60.3240 N.3   190  ALA190     -0.1245
     48  CA        23.2690  176.3590   59.4910 C.3   190  ALA190      0.1562
     49  C         23.1790  177.3900   58.3860 C.2   190  ALA190      0.2260
     50  O         22.0960  177.6000   57.8010 O.2   190  ALA190     -0.2867
     51  CB        23.5280  174.9750   58.9280 C.3   190  ALA190      0.0290
     52  N         25.3940  178.2510   54.8940 N.3   192  ASP192     -0.1239
     53  CA        26.4420  178.0580   53.8770 C.3   192  ASP192      0.1674
     54  C         26.2710  179.1280   52.7800 C.2   192  ASP192      0.2266
     55  O         25.1320  179.5370   52.5010 O.2   192  ASP192     -0.2867
     56  CB        26.3480  176.6540   53.2660 C.3   192  ASP192      0.1410
     57  CG        26.9550  175.5580   54.1540 C.2   192  ASP192      0.3668
     58  OD1       28.0290  175.7600   54.7650 O.co2 192  ASP192     -0.2456
     59  OD2       26.3690  174.4500   54.1830 O.co2 192  ASP192     -0.2456
     60  N         19.6580  177.1820   55.8870 N.3   198  TYR198     -0.1241
     61  CA        18.8410  175.9790   55.6110 C.3   198  TYR198      0.1605
     62  C         17.5410  176.1170   56.3890 C.2   198  TYR198      0.2264
     63  O         17.5560  176.6710   57.4680 O.2   198  TYR198     -0.2867
     64  CB        19.5310  174.7000   56.0640 C.3   198  TYR198      0.0534
     65  CG        20.8290  174.2820   55.4060 C.ar  198  TYR198     -0.0201
     66  CD1       22.0470  174.7830   55.8500 C.ar  198  TYR198     -0.0009
     67  CD2       20.8630  173.3010   54.4130 C.ar  198  TYR198     -0.0009
     68  CE1       23.2640  174.3630   55.3190 C.ar  198  TYR198      0.0417
     69  CE2       22.0900  172.8800   53.8640 C.ar  198  TYR198      0.0417
     70  CZ        23.2860  173.4230   54.3410 C.ar  198  TYR198      0.1957
     71  OH        24.5040  173.0510   53.8570 O.3   198  TYR198     -0.2866
     72  N         15.7610  174.0690   58.1230 N.3   200  GLU200     -0.1245
     73  CA        15.5440  172.8840   58.9450 C.3   200  GLU200      0.1567
     74  C         16.3420  173.0510   60.2300 C.2   200  GLU200      0.2260
     75  O         17.5250  173.4410   60.1790 O.2   200  GLU200     -0.2867
     76  CB        16.0400  171.6280   58.1870 C.3   200  GLU200      0.0388
     77  CG        17.5870  171.5080   58.0580 C.3   200  GLU200      0.1160
     78  CD        18.0680  170.5970   56.9330 C.2   200  GLU200      0.3649
     79  OE1       17.7310  169.3870   56.9630 O.co2 200  GLU200     -0.2457
     80  OE2       18.8000  171.0900   56.0340 O.co2 200  GLU200     -0.2457
     81  N         18.3270  171.0370   62.9700 N.3   202  THR202     -0.1218
     82  CA        18.9860  169.7420   63.1610 C.3   202  THR202      0.1862
     83  C         19.2170  169.5080   64.6790 C.2   202  THR202      0.2287
     84  O         19.8810  170.3100   65.3420 O.2   202  THR202     -0.2866
     85  CB        20.3300  169.7030   62.4100 C.3   202  THR202      0.1770
     86  OG1       20.0940  169.7540   60.9960 O.3   202  THR202     -0.2211
     87  CG2       21.1200  168.4450   62.7470 C.3   202  THR202      0.0375
     88  N         35.0420  170.6440   51.6240 N.3   224  SER224     -0.1217
     89  CA        33.7400  170.1790   52.1120 C.3   224  SER224      0.1889
     90  C         33.8080  169.3830   53.4450 C.2   224  SER224      0.2288
     91  O         32.9070  168.5590   53.7250 O.2   224  SER224     -0.2866
     92  CB        33.0350  169.4000   51.0110 C.3   224  SER224      0.2089
     93  OG        32.6270  170.3000   50.0000 O.3   224  SER224     -0.2183
     94  N         34.7710  169.6320   57.8130 N.3   226  ILE226     -0.1245
     95  CA        34.8720  170.4040   59.0610 C.3   226  ILE226      0.1561
     96  C         34.8000  169.4950   60.2870 C.2   226  ILE226      0.2260
     97  O         34.2150  168.4160   60.2280 O.2   226  ILE226     -0.2867
     98  CB        33.7610  171.4700   59.1180 C.3   226  ILE226      0.0252
     99  CG1       34.0160  172.5080   60.2180 C.3   226  ILE226      0.0019
    100  CG2       32.3960  170.8160   59.2480 C.3   226  ILE226      0.0019
    101  CD1       35.3550  173.2160   60.1400 C.3   226  ILE226      0.0001
    102  N         33.6820  170.0430   64.2740 N.3   228  MET228     -0.1245
    103  CA        33.1130  170.9440   65.2550 C.3   228  MET228      0.1570
    104  C         33.0260  170.2650   66.6180 C.2   228  MET228      0.2261
    105  O         33.0030  169.0420   66.7190 O.2   228  MET228     -0.2867
    106  CB        31.7380  171.4360   64.8260 C.3   228  MET228      0.0387
    107  CG        31.7320  172.0870   63.4530 C.3   228  MET228      0.0595
    108  SD        30.0910  172.6200   62.9460 S.3   228  MET228     -0.1393
    109  CE        29.1050  171.0980   62.8980 C.3   228  MET228      0.0692
    110  N         31.2830  166.7450   66.0690 N.3   244  TRP244     -0.1241
    111  CA        31.0010  166.5460   64.6520 C.3   244  TRP244      0.1605
    112  C         32.3570  166.2590   64.1210 C.2   244  TRP244      0.2264
    113  O         33.2840  167.0320   64.3430 O.2   244  TRP244     -0.2867
    114  CB        30.4430  167.7750   63.9690 C.3   244  TRP244      0.0550
    115  CG        30.2850  167.5960   62.5050 C.ar  244  TRP244      0.0003
    116  CD1       31.2600  167.7040   61.5430 C.ar  244  TRP244      0.0946
    117  CD2       29.0870  167.2670   61.8190 C.ar  244  TRP244      0.0152
    118  NE1       30.7270  167.4710   60.3010 N.ar  244  TRP244     -0.2442
    119  CE2       29.3920  167.2040   60.4370 C.ar  244  TRP244      0.0810
    120  CE3       27.7860  167.0190   62.2300 C.ar  244  TRP244      0.0012
    121  CZ2       28.4360  166.8950   59.4650 C.ar  244  TRP244      0.0191
    122  CZ3       26.8240  166.7150   61.2560 C.ar  244  TRP244      0.0001
    123  CH2       27.1590  166.6610   59.8880 C.ar  244  TRP244      0.0015
    124  N         27.3330  163.9690   63.6950 N.3   250  TYR250     -0.1241
    125  CA        27.0990  164.0440   65.1530 C.3   250  TYR250      0.1605
    126  C         27.0850  162.6330   65.7860 C.2   250  TYR250      0.2264
    127  O         26.0430  162.0710   66.0440 O.2   250  TYR250     -0.2867
    128  CB        25.8100  164.8320   65.4810 C.3   250  TYR250      0.0534
    129  CG        25.9210  166.3270   65.2410 C.ar  250  TYR250     -0.0201
    130  CD1       26.9410  167.0740   65.8280 C.ar  250  TYR250     -0.0009
    131  CD2       24.9960  166.9960   64.4500 C.ar  250  TYR250     -0.0009
    132  CE1       27.0480  168.4420   65.6030 C.ar  250  TYR250      0.0417
    133  CE2       25.0790  168.3590   64.2310 C.ar  250  TYR250      0.0417
    134  CZ        26.1080  169.0910   64.8020 C.ar  250  TYR250      0.1957
    135  OH        26.1950  170.4690   64.5920 O.3   250  TYR250     -0.2866
@<TRIPOS>BOND
     1    93    92    1
     2    92    89    1
     3    88    89    1
     4    18    17    2
     5    89    90    1
     6    17    16    1
     7    55    54    2
     8    54    53    1
     9    19    16    1
    10    19    20    1
    11    56    53    1
    12    56    57    1
    13    90    91    2
    14    16    15    1
    15    22    20   ar
    16    22    24   ar
    17    20    21   ar
    18    71    70    1
    19    69    70   ar
    20    69    67   ar
    21    53    52    1
    22    57    59   ar
    23    57    58   ar
    24    24    25   ar
    25    70    68   ar
    26    67    65   ar
    27    21    23   ar
    28    25    23   ar
    29    25    26    1
    30    68    66   ar
    31    65    66   ar
    32    65    64    1
    33    61    60    1
    34    61    64    1
    35    61    62    1
    36    80    78   ar
    37    62    63    2
    38    78    79   ar
    39    78    77    1
    40     4     3    2
    41     9     7   ar
    42     9    10   ar
    43    37    35    1
    44     7     6   ar
    45     3     2    1
    46    50    49    2
    47    94    95    1
    48    77    76    1
    49    72    73    1
    50    76    73    1
    51    36    35    1
    52    10    12   ar
    53    10     8   ar
    54    49    48    1
    55    35    34    2
    56    12    14   ar
    57     6     8   ar
    58     6     5    1
    59    51    48    1
    60    73    74    1
    61    95    98    1
    62    95    96    1
    63    98   100    1
    64    98    99    1
    65     2     5    1
    66     2     1    1
    67     8    11   ar
    68   121   123   ar
    69   121   119   ar
    70    48    47    1
    71    34    33    1
    72    14    13   ar
    73   123   122   ar
    74   101    99    1
    75    75    74    2
    76    97    96    2
    77   118   119   ar
    78   118   116   ar
    79   119   117   ar
    80    11    13   ar
    81    33    32    1
    82    86    85    1
    83   122   120   ar
    84    46    44   am
    85   116   115   ar
    86    32    31    1
    87   117   120   ar
    88   117   115   ar
    89    27    28    1
    90    85    87    1
    91    85    82    1
    92    44    45    2
    93    44    43    1
    94   115   114    1
    95    28    31    1
    96    28    29    1
    97   109   108    1
    98   108   107    1
    99    81    82    1
   100    82    83    1
   101    41    40    2
   102   107   106    1
   103    43    42    1
   104   124   125    1
   105    40    39    1
   106   114   111    1
   107    29    30    2
   108   112   113    2
   109   112   111    1
   110   133   131   ar
   111   133   134   ar
   112   102   103    1
   113   131   129   ar
   114    42    39    1
   115   135   134    1
   116   111   110    1
   117    83    84    2
   118   134   132   ar
   119   106   103    1
   120    39    38    1
   121   125   128    1
   122   125   126    1
   123   129   128    1
   124   129   130   ar
   125   103   104    1
   126   132   130   ar
   127   126   127    2
   128   104   105    2
