@<TRIPOS>MOLECULE
tmp/5h47F04.pdb
 121 114 0 0 0
SMALL
GASTEIGER

@<TRIPOS>ATOM
      1  N         37.4680  173.3750   64.0200 N.3   219  PHE219     -0.1241
      2  CA        38.8780  173.2550   63.6730 C.3   219  PHE219      0.1605
      3  C         39.0910  172.4290   62.3980 C.2   219  PHE219      0.2264
      4  O         38.1970  171.6690   61.9530 O.2   219  PHE219     -0.2867
      5  CB        39.7230  172.7100   64.8440 C.3   219  PHE219      0.0534
      6  CG        39.3960  171.2900   65.2460 C.ar  219  PHE219     -0.0203
      7  CD1       40.0090  170.2130   64.6200 C.ar  219  PHE219     -0.0042
      8  CD2       38.4860  171.0280   66.2770 C.ar  219  PHE219     -0.0042
      9  CE1       39.7050  168.9110   64.9930 C.ar  219  PHE219     -0.0003
     10  CE2       38.1860  169.7230   66.6590 C.ar  219  PHE219     -0.0003
     11  CZ        38.8010  168.6650   66.0200 C.ar  219  PHE219     -0.0000
     12  N         33.0230  171.0970   67.6580 N.3   229  ARG229     -0.1245
     13  CA        32.8210  170.6790   69.0340 C.3   229  ARG229      0.1563
     14  C         31.7980  171.6280   69.6440 C.2   229  ARG229      0.2260
     15  O         31.9400  172.8370   69.5330 O.2   229  ARG229     -0.2867
     16  CB        34.1550  170.7060   69.7840 C.3   229  ARG229      0.0307
     17  CG        35.2160  169.7680   69.2000 C.3   229  ARG229      0.0489
     18  CD        34.8030  168.2980   69.3120 C.3   229  ARG229      0.2205
     19  NE        35.8500  167.3560   68.9010 N.pl3 229  ARG229     -0.0865
     20  CZ        35.9270  166.7310   67.7190 C.cat 229  ARG229      0.5346
     21  NH1       35.0220  166.9050   66.7560 N.pl3 229  ARG229      0.1354
     22  NH2       36.9460  165.9160   67.4940 N.pl3 229  ARG229      0.1354
     23  N         30.2200  167.0630   75.7530 N.3   241  GLN241     -0.1245
     24  CA        30.7370  167.3490   74.4130 C.3   241  GLN241      0.1566
     25  C         30.0260  166.5350   73.3530 C.2   241  GLN241      0.2260
     26  O         30.1030  165.3000   73.3540 O.2   241  GLN241     -0.2867
     27  CB        32.2170  167.0250   74.3100 C.3   241  GLN241      0.0367
     28  CG        32.8830  167.3000   72.9590 C.3   241  GLN241      0.0905
     29  CD        34.3340  166.8200   72.9370 C.2   241  GLN241      0.2608
     30  OE1       35.2790  167.6070   73.0790 O.2   241  GLN241     -0.2717
     31  NE2       34.5150  165.4960   72.7880 N.am  241  GLN241     -0.0878
     32  N         30.6550  165.9040   69.5130 N.3   243  CYS243     -0.1235
     33  CA        31.5550  165.9640   68.3500 C.3   243  CYS243      0.1677
     34  C         30.8090  165.9330   67.0070 C.2   243  CYS243      0.2270
     35  O         29.7950  165.2510   66.8390 O.2   243  CYS243     -0.2867
     36  CB        32.5260  164.8040   68.3700 C.3   243  CYS243      0.0956
     37  SG        33.5490  164.7390   69.8340 S.3   243  CYS243     -0.0801
     38  N         32.5010  165.1040   63.4920 N.3   245  ASP245     -0.1239
     39  CA        33.7370  164.7740   62.8020 C.3   245  ASP245      0.1674
     40  C         33.3300  164.5450   61.3610 C.2   245  ASP245      0.2266
     41  O         32.2050  164.0660   61.1230 O.2   245  ASP245     -0.2867
     42  CB        34.3810  163.5580   63.4540 C.3   245  ASP245      0.1410
     43  CG        34.9300  163.8690   64.8360 C.2   245  ASP245      0.3668
     44  OD1       35.5630  164.9210   64.9880 O.co2 245  ASP245     -0.2456
     45  OD2       34.7420  163.0600   65.7780 O.co2 245  ASP245     -0.2456
     46  N         29.4070  161.3920   68.5190 N.3   252  ASP252     -0.1239
     47  CA        29.8750  161.1650   69.8870 C.3   252  ASP252      0.1674
     48  C         29.3010  162.2340   70.8210 C.2   252  ASP252      0.2266
     49  O         29.0760  163.3870   70.4310 O.2   252  ASP252     -0.2867
     50  CB        31.3910  161.1410   69.9190 C.3   252  ASP252      0.1410
     51  CG        31.9350  160.7890   71.2800 C.2   252  ASP252      0.3668
     52  OD1       32.0510  161.7020   72.1290 O.co2 252  ASP252     -0.2456
     53  OD2       32.2640  159.6020   71.4920 O.co2 252  ASP252     -0.2456
     54  N         29.7110  162.7280   75.0750 N.3   254  ARG254     -0.1245
     55  CA        30.2580  162.2690   76.3650 C.3   254  ARG254      0.1563
     56  C         30.4720  163.4340   77.3450 C.2   254  ARG254      0.2260
     57  O         30.6000  164.5730   76.9100 O.2   254  ARG254     -0.2867
     58  CB        31.5790  161.5350   76.1580 C.3   254  ARG254      0.0307
     59  CG        32.7280  162.3950   75.6590 C.3   254  ARG254      0.0489
     60  CD        33.9990  161.5800   75.4290 C.3   254  ARG254      0.2205
     61  NE        33.8060  160.6230   74.3330 N.pl3 254  ARG254     -0.0865
     62  CZ        34.4670  159.4710   74.1780 C.cat 254  ARG254      0.5346
     63  NH1       35.3960  159.0820   75.0380 N.pl3 254  ARG254      0.1354
     64  NH2       34.1950  158.6810   73.1430 N.pl3 254  ARG254      0.1354
     65  N         32.7890  165.6250   79.9690 N.3   256  ILE256     -0.1245
     66  CA        34.1730  166.1150   79.9090 C.3   256  ILE256      0.1561
     67  C         34.7200  166.4460   81.2780 C.2   256  ILE256      0.2260
     68  O         35.8040  165.9960   81.6330 O.2   256  ILE256     -0.2867
     69  CB        34.2730  167.4000   79.0490 C.3   256  ILE256      0.0252
     70  CG1       33.8910  167.0970   77.6010 C.3   256  ILE256      0.0019
     71  CG2       35.6800  167.9990   79.0870 C.3   256  ILE256      0.0019
     72  CD1       34.8440  166.1230   76.9030 C.3   256  ILE256      0.0001
     73  N         44.7420  169.2430   66.8840 N.3   273  PRO273     -0.2116
     74  CA        43.9800  170.2960   67.5790 C.3   273  PRO273      0.1372
     75  C         44.3630  170.5040   69.0440 C.2   273  PRO273      0.2244
     76  O         44.7910  169.5770   69.7480 O.2   273  PRO273     -0.2868
     77  CB        42.5240  169.8330   67.4510 C.3   273  PRO273      0.0268
     78  CG        42.5990  168.3680   67.2650 C.3   273  PRO273      0.0207
     79  CD        43.8710  168.1130   66.5060 C.3   273  PRO273      0.0892
     80  N         42.3830  172.3220   72.3660 N.3   275  LEU275     -0.1245
     81  CA        41.1330  172.8030   72.9070 C.3   275  LEU275      0.1561
     82  C         41.3400  173.3210   74.3180 C.2   275  LEU275      0.2260
     83  O         42.0190  172.6840   75.1410 O.2   275  LEU275     -0.2867
     84  CB        40.1360  171.6730   72.9900 C.3   275  LEU275      0.0270
     85  CG        39.9330  170.8620   71.7370 C.3   275  LEU275      0.0019
     86  CD1       38.9320  169.7710   72.0390 C.3   275  LEU275      0.0001
     87  CD2       39.4290  171.7530   70.6230 C.3   275  LEU275      0.0001
     88  N         39.9420  173.4500   81.3880 N.3   291  TRP291     -0.1241
     89  CA        40.1660  172.0620   80.9400 C.3   291  TRP291      0.1605
     90  C         40.8270  172.0660   79.5600 C.2   291  TRP291      0.2264
     91  O         40.3970  172.8360   78.7000 O.2   291  TRP291     -0.2867
     92  CB        38.8680  171.2680   80.8900 C.3   291  TRP291      0.0550
     93  CG        39.0220  169.9290   80.1800 C.ar  291  TRP291      0.0003
     94  CD1       39.4420  168.7460   80.7290 C.ar  291  TRP291      0.0946
     95  CD2       38.7560  169.6540   78.7940 C.ar  291  TRP291      0.0152
     96  NE1       39.4440  167.7620   79.7720 N.ar  291  TRP291     -0.2442
     97  CE2       39.0290  168.2910   78.5800 C.ar  291  TRP291      0.0810
     98  CE3       38.3050  170.4280   77.7180 C.ar  291  TRP291      0.0012
     99  CZ2       38.8750  167.6880   77.3340 C.ar  291  TRP291      0.0191
    100  CZ3       38.1560  169.8300   76.4820 C.ar  291  TRP291      0.0001
    101  CH2       38.4370  168.4720   76.2990 C.ar  291  TRP291      0.0015
    102  N         42.7360  169.9390   76.0060 N.3   293  TRP293     -0.1241
    103  CA        42.8930  168.7520   75.1680 C.3   293  TRP293      0.1605
    104  C         43.9850  168.9790   74.1660 C.2   293  TRP293      0.2264
    105  O         43.9880  169.9890   73.4770 O.2   293  TRP293     -0.2867
    106  CB        41.6000  168.3780   74.4270 C.3   293  TRP293      0.0550
    107  CG        41.6770  166.9670   73.9410 C.ar  293  TRP293      0.0003
    108  CD1       41.2250  165.8590   74.5870 C.ar  293  TRP293      0.0946
    109  CD2       42.3240  166.4980   72.7420 C.ar  293  TRP293      0.0152
    110  NE1       41.5240  164.7370   73.8620 N.ar  293  TRP293     -0.2442
    111  CE2       42.2030  165.0980   72.7280 C.ar  293  TRP293      0.0810
    112  CE3       42.9790  167.1310   71.6700 C.ar  293  TRP293      0.0012
    113  CZ2       42.7140  164.3130   71.6890 C.ar  293  TRP293      0.0191
    114  CZ3       43.4840  166.3490   70.6380 C.ar  293  TRP293      0.0001
    115  CH2       43.3460  164.9530   70.6570 C.ar  293  TRP293      0.0015
    116  N         42.6170  164.4750   77.3330 N.3   299  SER299     -0.1217
    117  CA        41.8970  165.1690   78.4160 C.3   299  SER299      0.1889
    118  C         42.7910  165.3670   79.6100 C.2   299  SER299      0.2288
    119  O         43.1990  164.4000   80.2360 O.2   299  SER299     -0.2866
    120  CB        40.7100  164.3520   78.9350 C.3   299  SER299      0.2089
    121  OG        39.6470  164.3830   78.0430 O.3   299  SER299     -0.2183
@<TRIPOS>BOND
     1    41    40    2
     2    40    39    1
     3     4     3    2
     4     3     2    1
     5    39    42    1
     6    39    38    1
     7    42    43    1
     8     2     1    1
     9     2     5    1
    10     7     9   ar
    11     7     6   ar
    12    43    44   ar
    13    43    45   ar
    14     5     6    1
    15     9    11   ar
    16     6     8   ar
    17    11    10   ar
    18     8    10   ar
    19    79    73    1
    20    79    78    1
    21    21    20    1
    22    35    34    2
    23    73    74    1
    24    34    33    1
    25    78    77    1
    26    77    74    1
    27    22    20    1
    28    74    75    1
    29    12    13    1
    30    20    19    2
    31    33    36    1
    32    33    32    1
    33    36    37    1
    34    46    47    1
    35    19    18    1
    36    13    14    1
    37    13    16    1
    38    75    76    2
    39    17    18    1
    40    17    16    1
    41    15    14    2
    42    47    50    1
    43    47    48    1
    44    50    51    1
    45    49    48    2
    46    87    85    1
    47   114   115   ar
    48   114   112   ar
    49   115   113   ar
    50    51    53   ar
    51    51    52   ar
    52   112   109   ar
    53   113   111   ar
    54    85    86    1
    55    85    84    1
    56    80    81    1
    57   111   109   ar
    58   111   110   ar
    59   109   107   ar
    60    31    29   am
    61    81    84    1
    62    81    82    1
    63    29    28    1
    64    29    30    2
    65    28    27    1
    66    64    62    1
    67    25    26    2
    68    25    24    1
    69   105   104    2
    70   110   108   ar
    71   107   106    1
    72   107   108   ar
    73   104   103    1
    74    62    61    2
    75    62    63    1
    76    27    24    1
    77    82    83    2
    78    61    60    1
    79    24    23    1
    80   106   103    1
    81    54    55    1
    82   103   102    1
    83    60    59    1
    84    59    58    1
    85    58    55    1
    86   101   100   ar
    87   101    99   ar
    88    55    56    1
    89   100    98   ar
    90    72    70    1
    91    57    56    2
    92   116   117    1
    93    99    97   ar
    94    70    69    1
    95    98    95   ar
    96   121   120    1
    97   117   120    1
    98   117   118    1
    99    97    95   ar
   100    97    96   ar
   101    91    90    2
   102    95    93   ar
   103    69    71    1
   104    69    66    1
   105    90    89    1
   106   118   119    2
   107    96    94   ar
   108    66    65    1
   109    66    67    1
   110    93    94   ar
   111    93    92    1
   112    92    89    1
   113    89    88    1
   114    67    68    2
