@<TRIPOS>MOLECULE
tmp/5h47F05.pdb
 106 102 0 0 0
SMALL
GASTEIGER

@<TRIPOS>ATOM
      1  N         48.2890  179.7050   70.9440 N.3    21  ASN21      -0.1240
      2  CA        48.3580  179.5170   72.3870 C.3    21  ASN21       0.1653
      3  C         48.6080  180.8450   73.1010 C.2    21  ASN21       0.2266
      4  O         49.1820  180.8750   74.1930 O.2    21  ASN21      -0.2867
      5  CB        49.4680  178.5230   72.7290 C.3    21  ASN21       0.1155
      6  CG        50.8380  179.0280   72.3280 C.2    21  ASN21       0.2627
      7  OD1       50.9670  180.0170   71.5820 O.2    21  ASN21      -0.2716
      8  ND2       51.8650  178.3550   72.7990 N.am   21  ASN21      -0.0877
      9  N         46.2990  183.5790   74.6630 N.3    23  LEU23      -0.1245
     10  CA        44.8990  183.4860   75.1310 C.3    23  LEU23       0.1561
     11  C         44.4500  184.6590   75.9930 C.2    23  LEU23       0.2260
     12  O         45.2010  185.1480   76.8550 O.2    23  LEU23      -0.2867
     13  CB        44.7120  182.2290   75.9790 C.3    23  LEU23       0.0270
     14  CG        45.5630  181.0020   75.6320 C.3    23  LEU23       0.0019
     15  CD1       45.4350  179.9520   76.7370 C.3    23  LEU23       0.0001
     16  CD2       45.1560  180.4580   74.2580 C.3    23  LEU23       0.0001
     17  N         47.0050  184.8400   78.9840 N.3    39  TYR39      -0.1241
     18  CA        48.0800  183.8710   78.8870 C.3    39  TYR39       0.1605
     19  C         49.0920  184.2580   77.7800 C.2    39  TYR39       0.2264
     20  O         48.7940  184.1950   76.5910 O.2    39  TYR39      -0.2867
     21  CB        47.5120  182.4870   78.6040 C.3    39  TYR39       0.0534
     22  CG        48.5650  181.4120   78.7110 C.ar   39  TYR39      -0.0201
     23  CD1       49.3320  181.0260   77.5970 C.ar   39  TYR39      -0.0009
     24  CD2       48.8360  180.7980   79.9380 C.ar   39  TYR39      -0.0009
     25  CE1       50.3130  180.0410   77.7100 C.ar   39  TYR39       0.0417
     26  CE2       49.8140  179.8120   80.0520 C.ar   39  TYR39       0.0417
     27  CZ        50.5470  179.4390   78.9310 C.ar   39  TYR39       0.1957
     28  OH        51.5150  178.4690   79.0500 O.3    39  TYR39      -0.2866
     29  N         50.1320  182.8270   82.9630 N.3    43  TRP43      -0.1241
     30  CA        48.8300  183.4370   83.2610 C.3    43  TRP43       0.1605
     31  C         48.9820  184.7160   84.0670 C.2    43  TRP43       0.2264
     32  O         49.8100  184.7720   84.9730 O.2    43  TRP43      -0.2867
     33  CB        47.9720  182.4680   84.0470 C.3    43  TRP43       0.0550
     34  CG        47.2740  181.4660   83.1990 C.ar   43  TRP43       0.0003
     35  CD1       47.5800  180.1430   83.0810 C.ar   43  TRP43       0.0946
     36  CD2       46.1490  181.7000   82.3270 C.ar   43  TRP43       0.0152
     37  NE1       46.7100  179.5300   82.2140 N.ar   43  TRP43      -0.2442
     38  CE2       45.8160  180.4640   81.7390 C.ar   43  TRP43       0.0810
     39  CE3       45.3680  182.8250   82.0170 C.ar   43  TRP43       0.0012
     40  CZ2       44.7400  180.3200   80.8360 C.ar   43  TRP43       0.0191
     41  CZ3       44.2890  182.6720   81.1180 C.ar   43  TRP43       0.0001
     42  CH2       43.9980  181.4280   80.5370 C.ar   43  TRP43       0.0015
     43  N         42.8050  176.0480   68.6990 N.3   270  TRP270     -0.1241
     44  CA        43.7400  176.2930   67.6130 C.3   270  TRP270      0.1605
     45  C         44.2380  174.9630   67.0250 C.2   270  TRP270      0.2264
     46  O         43.9980  173.9030   67.6130 O.2   270  TRP270     -0.2867
     47  CB        44.8720  177.1940   68.0720 C.3   270  TRP270      0.0550
     48  CG        45.7500  176.6940   69.1440 C.ar  270  TRP270      0.0003
     49  CD1       46.9790  176.1270   68.9920 C.ar  270  TRP270      0.0946
     50  CD2       45.5290  176.7920   70.5520 C.ar  270  TRP270      0.0152
     51  NE1       47.5380  175.8400   70.2250 N.ar  270  TRP270     -0.2442
     52  CE2       46.6650  176.2370   71.1990 C.ar  270  TRP270      0.0810
     53  CE3       44.4780  177.2830   71.3360 C.ar  270  TRP270      0.0012
     54  CZ2       46.7680  176.1430   72.5830 C.ar  270  TRP270      0.0191
     55  CZ3       44.5910  177.2080   72.7070 C.ar  270  TRP270      0.0001
     56  CH2       45.7300  176.6320   73.3210 C.ar  270  TRP270      0.0015
     57  N         40.7150  174.4560   74.6040 N.3   276  ARG276     -0.1245
     58  CA        40.6640  174.9550   75.9480 C.3   276  ARG276      0.1563
     59  C         39.2430  175.3480   76.3050 C.2   276  ARG276      0.2260
     60  O         38.6130  176.1490   75.5970 O.2   276  ARG276     -0.2867
     61  CB        41.6100  176.1440   76.0820 C.3   276  ARG276      0.0307
     62  CG        43.0840  175.8310   75.8090 C.3   276  ARG276      0.0489
     63  CD        43.6940  174.9540   76.8950 C.3   276  ARG276      0.2205
     64  NE        45.1360  174.7800   76.7290 N.pl3 276  ARG276     -0.0865
     65  CZ        45.7080  173.9940   75.8030 C.cat 276  ARG276      0.5346
     66  NH1       44.9710  173.2580   74.9680 N.pl3 276  ARG276      0.1354
     67  NH2       47.0360  173.9200   75.7180 N.pl3 276  ARG276      0.1354
     68  N         40.3160  175.8500   83.9660 N.3   290  GLU290     -0.1245
     69  CA        40.5870  175.5060   82.5620 C.3   290  GLU290      0.1567
     70  C         40.6770  174.0000   82.3610 C.2   290  GLU290      0.2260
     71  O         41.4440  173.3520   83.0750 O.2   290  GLU290     -0.2867
     72  CB        41.9450  176.0830   82.1780 C.3   290  GLU290      0.0388
     73  CG        42.4390  175.7400   80.7730 C.3   290  GLU290      0.1160
     74  CD        43.7500  176.4010   80.4490 C.2   290  GLU290      0.3649
     75  OE1       44.7350  176.0190   81.1150 O.co2 290  GLU290     -0.2457
     76  OE2       43.7850  177.2720   79.5460 O.co2 290  GLU290     -0.2457
     77  N         41.8310  171.1970   79.3610 N.3   292  THR292     -0.1218
     78  CA        42.6480  171.1590   78.1240 C.3   292  THR292      0.1862
     79  C         42.5450  169.8420   77.3180 C.2   292  THR292      0.2287
     80  O         42.2910  168.7660   77.8640 O.2   292  THR292     -0.2866
     81  CB        44.1520  171.4370   78.4060 C.3   292  THR292      0.1770
     82  OG1       44.7810  170.2690   78.9360 O.3   292  THR292     -0.2211
     83  CG2       44.3250  172.5610   79.3900 C.3   292  THR292      0.0375
     84  N         42.9140  168.3710   83.0310 N.3   301  LEU301     -0.1231
     85  CA        42.6630  169.6640   83.6660 C.3   301  LEU301      0.1693
     86  C         43.8770  170.5370   83.4950 C.2   301  LEU301      0.2593
     87  O         45.0100  170.0480   83.5130 O.2   301  LEU301     -0.2718
     88  CB        42.3240  169.5100   85.1450 C.3   301  LEU301      0.0284
     89  CG        40.9210  168.9210   85.3060 C.3   301  LEU301      0.0019
     90  CD1       40.6160  168.5740   86.7550 C.3   301  LEU301      0.0001
     91  CD2       39.8680  169.8800   84.7450 C.3   301  LEU301      0.0001
     92  N         43.6260  171.8230   83.2850 N.am  302  GLY302     -0.1942
     93  CA        44.6810  172.8040   83.1390 C.3   302  GLY302      0.2014
     94  C         44.7420  173.6880   84.3600 C.2   302  GLY302      0.2638
     95  O         44.5990  173.2180   85.4990 O.2   302  GLY302     -0.2714
     96  N         44.9720  174.9730   84.1100 N.am  303  ARG303     -0.1977
     97  CA        44.9890  175.9820   85.1600 C.3   303  ARG303      0.1597
     98  C         43.7970  175.8210   86.1240 C.2   303  ARG303      0.2287
     99  O         42.6370  175.9560   85.7270 O.2   303  ARG303     -0.2864
    100  CB        44.9840  177.3840   84.5310 C.3   303  ARG303      0.0334
    101  CG        45.1340  178.5050   85.5330 C.3   303  ARG303      0.0492
    102  CD        46.4700  178.5130   86.2590 C.3   303  ARG303      0.2205
    103  NE        46.4710  179.7210   87.0800 N.pl3 303  ARG303     -0.0865
    104  CZ        47.5000  180.5290   87.3190 C.cat 303  ARG303      0.5346
    105  NH1       48.7150  180.2880   86.8280 N.pl3 303  ARG303      0.1354
    106  NH2       47.2960  181.6140   88.0650 N.pl3 303  ARG303      0.1354
@<TRIPOS>BOND
     1    45    46    2
     2    45    44    1
     3    44    47    1
     4    44    43    1
     5    47    48    1
     6    49    48   ar
     7    49    51   ar
     8    48    50   ar
     9    51    52   ar
    10    50    52   ar
    11    50    53   ar
    12     1     2    1
    13    52    54   ar
    14    53    55   ar
    15     7     6    2
    16     6     5    1
    17     6     8   am
    18     2     5    1
    19     2     3    1
    20    54    56   ar
    21    55    56   ar
    22     3     4    2
    23    16    14    1
    24    57    58    1
    25     9    10    1
    26    66    65    1
    27    10    13    1
    28    10    11    1
    29    60    59    2
    30    14    13    1
    31    14    15    1
    32    67    65    1
    33    65    64    2
    34    62    61    1
    35    62    63    1
    36    58    61    1
    37    58    59    1
    38    11    12    2
    39    20    19    2
    40    64    63    1
    41    79    80    2
    42    79    78    1
    43    23    25   ar
    44    23    22   ar
    45    25    27   ar
    46    19    18    1
    47    78    81    1
    48    78    77    1
    49    81    82    1
    50    81    83    1
    51    21    22    1
    52    21    18    1
    53    22    24   ar
    54    18    17    1
    55    27    28    1
    56    27    26   ar
    57    76    74   ar
    58    24    26   ar
    59    74    73    1
    60    74    75   ar
    61    42    40   ar
    62    42    41   ar
    63    73    72    1
    64    40    38   ar
    65    41    39   ar
    66    38    37   ar
    67    38    36   ar
    68    39    36   ar
    69    72    69    1
    70    37    35   ar
    71    36    34   ar
    72    70    69    1
    73    70    71    2
    74    69    68    1
    75    29    30    1
    76    84    85    1
    77    35    34   ar
    78    93    92    1
    79    93    94    1
    80    34    33    1
    81    30    33    1
    82    30    31    1
    83    92    86   am
    84    86    87    2
    85    86    85    1
    86    85    88    1
    87    31    32    2
    88    96    94   am
    89    96    97    1
    90    94    95    2
    91   100    97    1
    92   100   101    1
    93    91    89    1
    94    88    89    1
    95    97    98    1
    96    89    90    1
    97   101   102    1
    98    99    98    2
    99   102   103    1
   100   105   104    1
   101   103   104    2
   102   104   106    1
