@<TRIPOS>MOLECULE
tmp/5h47F02.pdb
 96 90 0 0 0
SMALL
GASTEIGER

@<TRIPOS>ATOM
      1  N         33.4770  186.7800   60.5780 N.3   116  LEU116     -0.1245
      2  CA        33.3840  185.8880   59.4300 C.3   116  LEU116      0.1561
      3  C         34.7840  185.5150   59.0160 C.2   116  LEU116      0.2260
      4  O         35.6360  186.3740   58.9710 O.2   116  LEU116     -0.2867
      5  CB        32.6450  186.5570   58.2930 C.3   116  LEU116      0.0270
      6  CG        31.2110  186.8770   58.6680 C.3   116  LEU116      0.0019
      7  CD1       30.4780  187.3850   57.4590 C.3   116  LEU116      0.0001
      8  CD2       30.4610  185.6760   59.2450 C.3   116  LEU116      0.0001
      9  N         29.0840  188.7690   62.8420 N.3   125  ARG125     -0.1245
     10  CA        27.7050  188.4020   63.1850 C.3   125  ARG125      0.1563
     11  C         27.5500  188.1390   64.7000 C.2   125  ARG125      0.2260
     12  O         28.4110  187.4970   65.3540 O.2   125  ARG125     -0.2867
     13  CB        27.2160  187.2230   62.3400 C.3   125  ARG125      0.0307
     14  CG        27.2830  187.4720   60.8390 C.3   125  ARG125      0.0489
     15  CD        26.3950  188.6390   60.4100 C.3   125  ARG125      0.2205
     16  NE        26.3730  188.7980   58.9540 N.pl3 125  ARG125     -0.0865
     17  CZ        27.2400  189.5080   58.2190 C.cat 125  ARG125      0.5346
     18  NH1       28.2180  190.2320   58.7730 N.pl3 125  ARG125      0.1354
     19  NH2       27.1030  189.4990   56.8870 N.pl3 125  ARG125      0.1354
     20  N         19.8240  187.7950   64.4390 N.3   137  GLU137     -0.1245
     21  CA        21.1920  188.1280   64.0000 C.3   137  GLU137      0.1567
     22  C         21.3210  189.6400   63.8140 C.2   137  GLU137      0.2260
     23  O         20.4000  190.3050   63.2810 O.2   137  GLU137     -0.2867
     24  CB        21.5060  187.4510   62.6780 C.3   137  GLU137      0.0388
     25  CG        22.9230  187.5880   62.1520 C.3   137  GLU137      0.1160
     26  CD        23.0310  186.9380   60.7770 C.2   137  GLU137      0.3649
     27  OE1       22.2230  187.3720   59.8890 O.co2 137  GLU137     -0.2457
     28  OE2       23.8840  186.0060   60.6030 O.co2 137  GLU137     -0.2457
     29  N         24.3640  192.4580   62.4240 N.3   139  MET139     -0.1245
     30  CA        25.5750  192.4170   61.5850 C.3   139  MET139      0.1570
     31  C         26.2940  193.7500   61.3470 C.2   139  MET139      0.2261
     32  O         25.6840  194.8340   61.3160 O.2   139  MET139     -0.2867
     33  CB        25.2650  191.7260   60.2560 C.3   139  MET139      0.0387
     34  CG        24.0340  192.2070   59.5220 C.3   139  MET139      0.0595
     35  SD        23.7860  191.2930   57.9600 S.3   139  MET139     -0.1393
     36  CE        22.3660  192.2330   57.3700 C.3   139  MET139      0.0692
     37  N         28.9590  195.0300   58.4570 N.3   141  ASN141     -0.1240
     38  CA        29.6750  194.8460   57.1690 C.3   141  ASN141      0.1653
     39  C         30.4220  196.1110   56.7450 C.2   141  ASN141      0.2266
     40  O         30.6660  196.3230   55.5620 O.2   141  ASN141     -0.2867
     41  CB        28.6900  194.4050   56.0560 C.3   141  ASN141      0.1155
     42  CG        28.0710  193.0440   56.3310 C.2   141  ASN141      0.2627
     43  OD1       28.7740  192.0290   56.4630 O.2   141  ASN141     -0.2716
     44  ND2       26.7530  193.0250   56.4480 N.am  141  ASN141     -0.0877
     45  N         20.3060  191.4780   60.8420 N.3   148  GLY148     -0.1210
     46  CA        20.4390  190.4270   59.8220 C.3   148  GLY148      0.1956
     47  C         19.2360  189.4940   59.7890 C.2   148  GLY148      0.2612
     48  O         18.0930  189.9220   59.9840 O.2   148  GLY148     -0.2717
     49  N         19.4980  188.2140   59.5400 N.am  149  THR149     -0.1952
     50  CA        18.4250  187.2200   59.4840 C.3   149  THR149      0.1897
     51  C         17.9400  186.8620   60.8820 C.2   149  THR149      0.2313
     52  O         18.7400  186.7280   61.8040 O.2   149  THR149     -0.2863
     53  CB        18.8950  185.9340   58.7970 C.3   149  THR149      0.1794
     54  OG1       19.6780  186.2770   57.6350 O.3   149  THR149     -0.2208
     55  CG2       17.6620  185.0510   58.4190 C.3   149  THR149      0.0378
     56  N         31.9680  182.3560   53.8790 N.3   173  PRO173     -0.2116
     57  CA        31.9420  181.8190   55.2300 C.3   173  PRO173      0.1372
     58  C         30.7710  180.8630   55.5160 C.2   173  PRO173      0.2244
     59  O         29.6430  181.0560   55.0300 O.2   173  PRO173     -0.2868
     60  CB        31.7900  183.0840   56.0660 C.3   173  PRO173      0.0268
     61  CG        30.8850  183.9470   55.2310 C.3   173  PRO173      0.0207
     62  CD        31.1580  183.5890   53.7910 C.3   173  PRO173      0.0892
     63  N         28.5390  179.4250   58.7960 N.3   175  ILE175     -0.1245
     64  CA        28.1790  179.6890   60.1820 C.3   175  ILE175      0.1561
     65  C         27.2730  178.6050   60.7660 C.2   175  ILE175      0.2260
     66  O         26.3070  178.1620   60.1280 O.2   175  ILE175     -0.2867
     67  CB        27.4050  181.0060   60.3110 C.3   175  ILE175      0.0252
     68  CG1       28.1720  182.1780   59.6480 C.3   175  ILE175      0.0019
     69  CG2       27.0660  181.2790   61.7850 C.3   175  ILE175      0.0019
     70  CD1       27.2810  183.3730   59.3130 C.3   175  ILE175      0.0001
     71  N         24.3130  178.0550   58.1460 N.3   191  TYR191     -0.1241
     72  CA        24.4660  178.9390   56.9880 C.3   191  TYR191      0.1605
     73  C         25.6660  178.5060   56.1730 C.2   191  TYR191      0.2264
     74  O         26.8040  178.4320   56.6820 O.2   191  TYR191     -0.2867
     75  CB        24.6260  180.4200   57.3880 C.3   191  TYR191      0.0534
     76  CG        24.8560  181.3770   56.2120 C.ar  191  TYR191     -0.0201
     77  CD1       26.1460  181.6030   55.7190 C.ar  191  TYR191     -0.0009
     78  CD2       23.7860  182.0380   55.6010 C.ar  191  TYR191     -0.0009
     79  CE1       26.3680  182.4640   54.6560 C.ar  191  TYR191      0.0417
     80  CE2       23.9820  182.9070   54.5320 C.ar  191  TYR191      0.0417
     81  CZ        25.2720  183.1120   54.0580 C.ar  191  TYR191      0.1957
     82  OH        25.4850  183.9650   53.0020 O.3   191  TYR191     -0.2866
     83  N         20.5230  180.1900   54.6820 N.3   197  TRP197     -0.1241
     84  CA        20.0830  179.5740   55.9320 C.3   197  TRP197      0.1605
     85  C         19.2250  178.4020   55.5470 C.2   197  TRP197      0.2264
     86  O         18.1540  178.6150   54.9570 O.2   197  TRP197     -0.2867
     87  CB        19.2650  180.5630   56.8140 C.3   197  TRP197      0.0550
     88  CG        20.1490  181.6090   57.4710 C.ar  197  TRP197      0.0003
     89  CD1       20.2460  182.9360   57.1370 C.ar  197  TRP197      0.0946
     90  CD2       21.0930  181.3950   58.5340 C.ar  197  TRP197      0.0152
     91  NE1       21.1820  183.5550   57.9280 N.ar  197  TRP197     -0.2442
     92  CE2       21.7280  182.6390   58.7860 C.ar  197  TRP197      0.0810
     93  CE3       21.4650  180.2750   59.2940 C.ar  197  TRP197      0.0012
     94  CZ2       22.7030  182.8010   59.7770 C.ar  197  TRP197      0.0191
     95  CZ3       22.4410  180.4290   60.2630 C.ar  197  TRP197      0.0001
     96  CH2       23.0490  181.7010   60.5070 C.ar  197  TRP197      0.0015
@<TRIPOS>BOND
     1    82    81    1
     2    62    56    1
     3    62    61    1
     4    56    57    1
     5    81    80   ar
     6    81    79   ar
     7    80    78   ar
     8    79    77   ar
     9    83    84    1
    10    86    85    2
    11    59    58    2
    12    57    58    1
    13    57    60    1
    14    61    60    1
    15    85    84    1
    16    40    39    2
    17    78    76   ar
    18    77    76   ar
    19    84    87    1
    20    41    42    1
    21    41    38    1
    22    73    74    2
    23    73    72    1
    24    76    75    1
    25    42    44   am
    26    42    43    2
    27    39    38    1
    28    87    88    1
    29    19    17    1
    30    72    75    1
    31    72    71    1
    32    89    88   ar
    33    89    91   ar
    34    38    37    1
    35    36    35    1
    36     7     6    1
    37    88    90   ar
    38    54    53    1
    39    91    92   ar
    40    35    34    1
    41    17    18    1
    42    17    16    2
    43     5     6    1
    44     5     2    1
    45    55    53    1
    46    90    92   ar
    47    90    93   ar
    48     6     8    1
    49    92    94   ar
    50    63    64    1
    51    53    50    1
    52    16    15    1
    53     4     3    2
    54     3     2    1
    55    93    95   ar
    56    70    68    1
    57     2     1    1
    58    50    49    1
    59    50    51    1
    60    34    33    1
    61    49    47   am
    62    68    67    1
    63    94    96   ar
    64    47    46    1
    65    47    48    2
    66    46    45    1
    67    27    26   ar
    68    66    65    2
    69    64    67    1
    70    64    65    1
    71    33    30    1
    72    95    96   ar
    73    67    69    1
    74    15    14    1
    75    28    26   ar
    76    26    25    1
    77    14    13    1
    78    51    52    2
    79    32    31    2
    80    31    30    1
    81    30    29    1
    82    25    24    1
    83    13    10    1
    84    24    21    1
    85     9    10    1
    86    10    11    1
    87    23    22    2
    88    22    21    1
    89    21    20    1
    90    11    12    2
