@<TRIPOS>MOLECULE
tmp/5h4dA02.pdb
 126 127 0 0 0
SMALL
GASTEIGER

@<TRIPOS>ATOM
      1  N         11.8060   22.2660  -12.4580 N.3    60  PHE60      -0.1227
      2  CA        11.6860   22.8250  -11.1090 C.3    60  PHE60       0.1736
      3  C         11.2380   24.2910  -11.1380 C.2    60  PHE60       0.2595
      4  O         11.5490   25.0560  -10.2240 O.2    60  PHE60      -0.2718
      5  CB        13.0160   22.7110  -10.3760 C.3    60  PHE60       0.0547
      6  CG        13.7020   21.3930  -10.5730 C.ar   60  PHE60      -0.0202
      7  CD1       13.1440   20.2290  -10.0790 C.ar   60  PHE60      -0.0042
      8  CD2       14.9130   21.3170  -11.2490 C.ar   60  PHE60      -0.0042
      9  CE1       13.7740   19.0060  -10.2620 C.ar   60  PHE60      -0.0003
     10  CE2       15.5520   20.1000  -11.4320 C.ar   60  PHE60      -0.0003
     11  CZ        14.9790   18.9390  -10.9400 C.ar   60  PHE60      -0.0000
     12  N         10.5340   24.6760  -12.2040 N.am   61  GLU61      -0.1979
     13  CA         9.8240   25.9440  -12.2710 C.3    61  GLU61       0.1602
     14  C          8.3710   25.6380  -11.9430 C.2    61  GLU61       0.2287
     15  O          7.7560   24.7790  -12.5820 O.2    61  GLU61      -0.2864
     16  CB         9.9150   26.5780  -13.6700 C.3    61  GLU61       0.0415
     17  CG        11.3060   27.0640  -14.0900 C.3    61  GLU61       0.1163
     18  CD        11.2830   28.1040  -15.2080 C.2    61  GLU61       0.3649
     19  OE1       10.2640   28.2240  -15.9150 O.co2  61  GLU61      -0.2457
     20  OE2       12.2900   28.8210  -15.3820 O.co2  61  GLU61      -0.2457
     21  N         19.1170   15.7640   -4.6610 N.3   110  ILE110     -0.1245
     22  CA        17.7120   15.3750   -4.5860 C.3   110  ILE110      0.1561
     23  C         17.5350   13.8830   -4.8870 C.2   110  ILE110      0.2260
     24  O         16.4270   13.4330   -5.1680 O.2   110  ILE110     -0.2867
     25  CB        16.8460   16.2170   -5.5530 C.3   110  ILE110      0.0252
     26  CG1       17.3350   16.0580   -6.9890 C.3   110  ILE110      0.0019
     27  CG2       16.8760   17.6920   -5.1620 C.3   110  ILE110      0.0019
     28  CD1       16.4740   16.7780   -8.0010 C.3   110  ILE110      0.0001
     29  N         17.7080   21.3430   -1.3210 N.3   128  HIS128     -0.1241
     30  CA        16.8120   21.4510   -2.4840 C.3   128  HIS128      0.1621
     31  C         15.6830   20.4110   -2.4450 C.2   128  HIS128      0.2264
     32  O         15.1270   20.0510   -3.4890 O.2   128  HIS128     -0.2867
     33  CB        17.6020   21.3470   -3.7930 C.3   128  HIS128      0.0745
     34  CG        18.5170   22.5070   -4.0380 C.ar  128  HIS128      0.0817
     35  ND1       18.0510   23.7710   -4.3310 N.ar  128  HIS128     -0.2268
     36  CD2       19.8670   22.5970   -4.0330 C.ar  128  HIS128      0.1154
     37  CE1       19.0740   24.5910   -4.4960 C.ar  128  HIS128      0.1986
     38  NE2       20.1880   23.9030   -4.3200 N.ar  128  HIS128     -0.2212
     39  N         10.4320   18.7410   -3.1170 N.3   171  ILE171     -0.1231
     40  CA        11.5810   19.2560   -3.8280 C.3   171  ILE171      0.1692
     41  C         11.3780   20.7630   -3.8160 C.2   171  ILE171      0.2592
     42  O         10.2460   21.2350   -3.9500 O.2   171  ILE171     -0.2718
     43  CB        11.6260   18.7480   -5.2940 C.3   171  ILE171      0.0266
     44  CG1       11.6230   17.2150   -5.3610 C.3   171  ILE171      0.0019
     45  CG2       12.8460   19.2850   -6.0390 C.3   171  ILE171      0.0020
     46  CD1       12.8990   16.5740   -4.8720 C.3   171  ILE171      0.0001
     47  N         12.4590   21.5180   -3.6390 N.am  172  VAL172     -0.1966
     48  CA        12.3960   22.9720   -3.7330 C.3   172  VAL172      0.1727
     49  C         12.4800   23.3590   -5.2090 C.2   172  VAL172      0.2616
     50  O         13.3100   22.8380   -5.9500 O.2   172  VAL172     -0.2715
     51  CB        13.5320   23.6530   -2.9390 C.3   172  VAL172      0.0290
     52  CG1       13.3720   25.1670   -2.9810 C.3   172  VAL172      0.0023
     53  CG2       13.5530   23.1740   -1.4930 C.3   172  VAL172      0.0023
     54  N         11.6000   24.2580   -5.6300 N.am  173  PHE173     -0.1960
     55  CA        11.5400   24.7160   -7.0260 C.3   173  PHE173      0.1771
     56  C         12.0030   26.1620   -7.0900 C.2   173  PHE173      0.2620
     57  O         11.9010   26.8970   -6.1050 O.2   173  PHE173     -0.2715
     58  CB        10.1120   24.6000   -7.5790 C.3   173  PHE173      0.0574
     59  CG         9.7620   23.2320   -8.1190 C.ar  173  PHE173     -0.0200
     60  CD1       10.4070   22.0810   -7.6760 C.ar  173  PHE173     -0.0042
     61  CD2        8.7440   23.0990   -9.0530 C.ar  173  PHE173     -0.0042
     62  CE1       10.0580   20.8440   -8.1750 C.ar  173  PHE173     -0.0003
     63  CE2        8.3880   21.8600   -9.5510 C.ar  173  PHE173     -0.0003
     64  CZ         9.0480   20.7330   -9.1170 C.ar  173  PHE173     -0.0000
     65  N         12.5040   26.5680   -8.2500 N.am  174  PHE174     -0.1960
     66  CA        13.1560   27.8670   -8.3720 C.3   174  PHE174      0.1771
     67  C         12.2400   28.9850   -7.9100 C.2   174  PHE174      0.2620
     68  O         11.2300   29.2770   -8.5450 O.2   174  PHE174     -0.2715
     69  CB        13.6560   28.1080   -9.8050 C.3   174  PHE174      0.0574
     70  CG        14.8530   27.2670  -10.1640 C.ar  174  PHE174     -0.0200
     71  CD1       16.0690   27.4760   -9.5340 C.ar  174  PHE174     -0.0042
     72  CD2       14.7510   26.2440  -11.0970 C.ar  174  PHE174     -0.0042
     73  CE1       17.1560   26.6960   -9.8340 C.ar  174  PHE174     -0.0003
     74  CE2       15.8410   25.4620  -11.4030 C.ar  174  PHE174     -0.0003
     75  CZ        17.0390   25.6880  -10.7650 C.ar  174  PHE174     -0.0000
     76  N         12.5910   29.5700   -6.7680 N.am  175  GLY175     -0.1940
     77  CA        11.8450   30.6760   -6.1720 C.3   175  GLY175      0.2014
     78  C         11.3880   30.3320   -4.7650 C.2   175  GLY175      0.2639
     79  O         11.3260   31.2050   -3.8920 O.2   175  GLY175     -0.2714
     80  N         11.0750   29.0570   -4.5430 N.am  176  GLU176     -0.1963
     81  CA        10.5330   28.6160   -3.2650 C.3   176  GLU176      0.1718
     82  C         11.5210   28.7830   -2.1260 C.2   176  GLU176      0.2458
     83  O         12.7140   28.5180   -2.2960 O.2   176  GLU176     -0.2730
     84  CB        10.1140   27.1590   -3.3380 C.3   176  GLU176      0.0428
     85  CG         8.9030   26.9050   -4.2050 C.3   176  GLU176      0.1163
     86  CD         8.4540   25.4690   -4.1170 C.2   176  GLU176      0.3649
     87  OE1        9.2920   24.5740   -4.3620 O.co2 176  GLU176     -0.2457
     88  OE2        7.2720   25.2380   -3.7890 O.co2 176  GLU176     -0.2457
     89  N         11.0200   29.2140   -0.9560 N.am  177  PRO177     -0.2716
     90  CA        11.8670   29.3770    0.2230 C.3   177  PRO177      0.1536
     91  C         12.3050   28.0230    0.7530 C.2   177  PRO177      0.2598
     92  O         11.5230   27.0710    0.7490 O.2   177  PRO177     -0.2715
     93  CB        10.9680   30.1120    1.2210 C.3   177  PRO177      0.0310
     94  CG         9.5900   29.7430    0.8240 C.3   177  PRO177      0.0237
     95  CD         9.6030   29.4820   -0.6590 C.3   177  PRO177      0.0939
     96  N         13.5590   27.9550    1.1900 N.am  178  LEU178     -0.1978
     97  CA        14.2120   26.6860    1.5060 C.3   178  LEU178      0.1596
     98  C         13.5770   26.0280    2.7250 C.2   178  LEU178      0.2287
     99  O         12.9260   26.7080    3.5260 O.2   178  LEU178     -0.2864
    100  CB        15.7070   26.9070    1.7390 C.3   178  LEU178      0.0297
    101  CG        16.4930   27.3760    0.5200 C.3   178  LEU178      0.0022
    102  CD1       17.8910   27.7850    0.9280 C.3   178  LEU178      0.0001
    103  CD2       16.5660   26.2870   -0.5270 C.3   178  LEU178      0.0001
    104  N         25.9670   28.8680   -6.8980 N.3   204  VAL204     -0.1231
    105  CA        24.7150   29.4600   -6.4320 C.3   204  VAL204      0.1692
    106  C         24.8030   29.9190   -4.9680 C.2   204  VAL204      0.2592
    107  O         25.5080   29.3250   -4.1490 O.2   204  VAL204     -0.2718
    108  CB        23.5240   28.4830   -6.5860 C.3   204  VAL204      0.0266
    109  CG1       22.2110   29.2480   -6.6380 C.3   204  VAL204      0.0020
    110  CG2       23.6710   27.6250   -7.8340 C.3   204  VAL204      0.0020
    111  N         24.0910   30.9980   -4.6600 N.am  205  GLU205     -0.1966
    112  CA        23.8980   31.4510   -3.2880 C.3   205  GLU205      0.1718
    113  C         22.5180   30.9700   -2.8300 C.2   205  GLU205      0.2458
    114  O         21.6250   30.7920   -3.6590 O.2   205  GLU205     -0.2730
    115  CB        23.9900   32.9740   -3.2240 C.3   205  GLU205      0.0428
    116  CG        25.3830   33.5230   -3.4970 C.3   205  GLU205      0.1163
    117  CD        26.2800   33.4920   -2.2700 C.2   205  GLU205      0.3649
    118  OE1       26.5110   32.3950   -1.7080 O.co2 205  GLU205     -0.2457
    119  OE2       26.7590   34.5740   -1.8630 O.co2 205  GLU205     -0.2457
    120  N         22.3190   30.7650   -1.5130 N.am  206  PRO206     -0.2727
    121  CA        23.1860   31.0490   -0.3660 C.3   206  PRO206      0.1402
    122  C         24.3190   30.0520   -0.1600 C.2   206  PRO206      0.2269
    123  O         25.3990   30.4310    0.2800 O.2   206  PRO206     -0.2865
    124  CB        22.2220   30.9300    0.8100 C.3   206  PRO206      0.0296
    125  CG        21.2840   29.8530    0.3850 C.3   206  PRO206      0.0237
    126  CD        21.0870   30.0660   -1.0920 C.3   206  PRO206      0.0939
@<TRIPOS>BOND
     1    19    18   ar
     2    20    18   ar
     3    18    17    1
     4    17    16    1
     5    16    13    1
     6    15    14    2
     7     1     2    1
     8    13    12    1
     9    13    14    1
    10    12     3   am
    11    10     8   ar
    12    10    11   ar
    13    74    72   ar
    14    74    75   ar
    15     8     6   ar
    16     3     2    1
    17     3     4    2
    18     2     5    1
    19    72    70   ar
    20    11     9   ar
    21    75    73   ar
    22     6     5    1
    23     6     7   ar
    24     9     7   ar
    25    70    69    1
    26    70    71   ar
    27    73    71   ar
    28    69    66    1
    29    63    64   ar
    30    63    61   ar
    31    64    62   ar
    32    61    59   ar
    33    68    67    2
    34    66    65    1
    35    66    67    1
    36    65    56   am
    37    62    60   ar
    38    59    60   ar
    39    59    58    1
    40    28    26    1
    41    67    76   am
    42   110   108    1
    43    58    55    1
    44    56    55    1
    45    56    57    2
    46    55    54    1
    47    26    25    1
    48   104   105    1
    49    76    77    1
    50   109   108    1
    51   108   105    1
    52   105   106    1
    53    77    78    1
    54    45    43    1
    55    50    49    2
    56    54    49   am
    57    25    27    1
    58    25    22    1
    59    44    43    1
    60    44    46    1
    61    43    40    1
    62    49    48    1
    63    24    23    2
    64   106   111   am
    65   106   107    2
    66    23    22    1
    67    78    80   am
    68    78    79    2
    69    21    22    1
    70   111   112    1
    71    80    81    1
    72    37    35   ar
    73    37    38   ar
    74    87    86   ar
    75    35    34   ar
    76    38    36   ar
    77    85    86    1
    78    85    84    1
    79    86    88   ar
    80    34    36   ar
    81    34    33    1
    82    42    41    2
    83    40    41    1
    84    40    39    1
    85    41    47   am
    86    33    30    1
    87    48    47    1
    88    48    51    1
    89   114   113    2
    90   116   115    1
    91   116   117    1
    92    32    31    2
    93    84    81    1
    94   112   115    1
    95   112   113    1
    96    81    82    1
    97    52    51    1
    98    51    53    1
    99   113   120   am
   100    30    31    1
   101    30    29    1
   102    83    82    2
   103   117   119   ar
   104   117   118   ar
   105    82    89   am
   106   120   126    1
   107   120   121    1
   108   126   125    1
   109    89    95    1
   110    89    90    1
   111    95    94    1
   112   103   101    1
   113   121   122    1
   114   121   124    1
   115   122   123    2
   116    90    91    1
   117    90    93    1
   118   125   124    1
   119   101   102    1
   120   101   100    1
   121    92    91    2
   122    91    96   am
   123    94    93    1
   124    96    97    1
   125    97   100    1
   126    97    98    1
   127    98    99    2
