@<TRIPOS>MOLECULE
tmp/5h4dA00.pdb
 116 115 0 0 0
SMALL
GASTEIGER

@<TRIPOS>ATOM
      1  N         19.8700   15.4810  -16.3050 N.3    37  PHE37      -0.1227
      2  CA        18.7640   16.1120  -17.0460 C.3    37  PHE37       0.1736
      3  C         19.1730   17.2060  -18.0530 C.2    37  PHE37       0.2595
      4  O         18.6410   17.2520  -19.1670 O.2    37  PHE37      -0.2718
      5  CB        17.7170   16.6580  -16.0480 C.3    37  PHE37       0.0547
      6  CG        18.2940   17.5290  -14.9490 C.ar   37  PHE37      -0.0202
      7  CD1       18.8790   16.9680  -13.8080 C.ar   37  PHE37      -0.0042
      8  CD2       18.2350   18.9120  -15.0450 C.ar   37  PHE37      -0.0042
      9  CE1       19.4040   17.7720  -12.8060 C.ar   37  PHE37      -0.0003
     10  CE2       18.7550   19.7170  -14.0430 C.ar   37  PHE37      -0.0003
     11  CZ        19.3410   19.1490  -12.9240 C.ar   37  PHE37      -0.0000
     12  N         20.1130   18.0710  -17.6640 N.am   38  ARG38      -0.1980
     13  CA        20.6140   19.1280  -18.5490 C.3    38  ARG38       0.1597
     14  C         21.4700   18.5480  -19.6720 C.2    38  ARG38       0.2287
     15  O         21.1640   18.7420  -20.8480 O.2    38  ARG38      -0.2864
     16  CB        21.4490   20.1590  -17.7780 C.3    38  ARG38       0.0334
     17  CG        20.7700   20.7790  -16.5690 C.3    38  ARG38       0.0492
     18  CD        21.6120   21.8950  -15.9750 C.3    38  ARG38       0.2205
     19  NE        22.8180   21.3860  -15.3160 N.pl3  38  ARG38      -0.0865
     20  CZ        23.5810   22.0850  -14.4750 C.cat  38  ARG38       0.5346
     21  NH1       24.6600   21.5220  -13.9410 N.pl3  38  ARG38       0.1354
     22  NH2       23.2750   23.3380  -14.1550 N.pl3  38  ARG38       0.1354
     23  N         13.7690   24.7910  -21.6090 N.3    55  TYR55      -0.1228
     24  CA        15.0740   24.8370  -20.9630 C.3    55  TYR55       0.1721
     25  C         15.0340   23.8890  -19.7630 C.2    55  TYR55       0.2437
     26  O         13.9570   23.5720  -19.2620 O.2    55  TYR55      -0.2733
     27  CB        15.4110   26.2710  -20.5440 C.3    55  TYR55       0.0547
     28  CG        14.2500   26.9840  -19.9150 C.ar   55  TYR55      -0.0200
     29  CD1       13.7870   26.6150  -18.6640 C.ar   55  TYR55      -0.0009
     30  CD2       13.5930   28.0080  -20.5750 C.ar   55  TYR55      -0.0009
     31  CE1       12.7110   27.2480  -18.0770 C.ar   55  TYR55       0.0417
     32  CE2       12.5100   28.6560  -19.9950 C.ar   55  TYR55       0.0417
     33  CZ        12.0740   28.2710  -18.7420 C.ar   55  TYR55       0.1957
     34  OH        11.0090   28.9060  -18.1570 O.3    55  TYR55      -0.2866
     35  N         16.2060   23.4510  -19.2810 N.am   56  PRO56      -0.2718
     36  CA        16.1960   22.4360  -18.2380 C.3    56  PRO56       0.1535
     37  C         15.6610   22.9370  -16.9110 C.2    56  PRO56       0.2598
     38  O         15.2410   22.1410  -16.0750 O.2    56  PRO56      -0.2715
     39  CB        17.6700   22.0500  -18.0840 C.3    56  PRO56       0.0310
     40  CG        18.4640   23.0750  -18.8140 C.3    56  PRO56       0.0237
     41  CD        17.5380   24.0440  -19.4730 C.3    56  PRO56       0.0939
     42  N         15.6690   24.2490  -16.7190 N.am   57  GLU57      -0.1978
     43  CA        15.2050   24.8340  -15.4720 C.3    57  GLU57       0.1602
     44  C         13.7010   24.6000  -15.3140 C.2    57  GLU57       0.2287
     45  O         13.2040   24.5560  -14.1950 O.2    57  GLU57      -0.2864
     46  CB        15.5390   26.3280  -15.4320 C.3    57  GLU57       0.0415
     47  CG        17.0320   26.6540  -15.3670 C.3    57  GLU57       0.1163
     48  CD        17.8670   26.0350  -16.4860 C.2    57  GLU57       0.3649
     49  OE1       18.2310   24.8450  -16.3880 O.co2  57  GLU57      -0.2457
     50  OE2       18.1750   26.7400  -17.4680 O.co2  57  GLU57      -0.2457
     51  N         11.8060   22.2660  -12.4580 N.3    60  PHE60      -0.1227
     52  CA        11.6860   22.8250  -11.1090 C.3    60  PHE60       0.1736
     53  C         11.2380   24.2910  -11.1380 C.2    60  PHE60       0.2595
     54  O         11.5490   25.0560  -10.2240 O.2    60  PHE60      -0.2718
     55  CB        13.0160   22.7110  -10.3760 C.3    60  PHE60       0.0547
     56  CG        13.7020   21.3930  -10.5730 C.ar   60  PHE60      -0.0202
     57  CD1       13.1440   20.2290  -10.0790 C.ar   60  PHE60      -0.0042
     58  CD2       14.9130   21.3170  -11.2490 C.ar   60  PHE60      -0.0042
     59  CE1       13.7740   19.0060  -10.2620 C.ar   60  PHE60      -0.0003
     60  CE2       15.5520   20.1000  -11.4320 C.ar   60  PHE60      -0.0003
     61  CZ        14.9790   18.9390  -10.9400 C.ar   60  PHE60      -0.0000
     62  N         10.5340   24.6760  -12.2040 N.am   61  GLU61      -0.1979
     63  CA         9.8240   25.9440  -12.2710 C.3    61  GLU61       0.1602
     64  C          8.3710   25.6380  -11.9430 C.2    61  GLU61       0.2287
     65  O          7.7560   24.7790  -12.5820 O.2    61  GLU61      -0.2864
     66  CB         9.9150   26.5780  -13.6700 C.3    61  GLU61       0.0415
     67  CG        11.3060   27.0640  -14.0900 C.3    61  GLU61       0.1163
     68  CD        11.2830   28.1040  -15.2080 C.2    61  GLU61       0.3649
     69  OE1       10.2640   28.2240  -15.9150 O.co2  61  GLU61      -0.2457
     70  OE2       12.2900   28.8210  -15.3820 O.co2  61  GLU61      -0.2457
     71  N         22.9000   19.6190   -1.4930 N.3   108  GLN108     -0.1245
     72  CA        22.1840   20.1850   -2.6220 C.3   108  GLN108      0.1566
     73  C         21.3220   19.1170   -3.2710 C.2   108  GLN108      0.2260
     74  O         20.2420   19.4060   -3.7670 O.2   108  GLN108     -0.2867
     75  CB        23.1640   20.7110   -3.6700 C.3   108  GLN108      0.0367
     76  CG        23.9950   21.9060   -3.2390 C.3   108  GLN108      0.0905
     77  CD        23.2190   23.2060   -3.3240 C.2   108  GLN108      0.2608
     78  OE1       22.3230   23.4600   -2.5140 O.2   108  GLN108     -0.2717
     79  NE2       23.5600   24.0430   -4.3000 N.am  108  GLN108     -0.0878
     80  N         17.7080   21.3430   -1.3210 N.3   128  HIS128     -0.1241
     81  CA        16.8120   21.4510   -2.4840 C.3   128  HIS128      0.1621
     82  C         15.6830   20.4110   -2.4450 C.2   128  HIS128      0.2264
     83  O         15.1270   20.0510   -3.4890 O.2   128  HIS128     -0.2867
     84  CB        17.6020   21.3470   -3.7930 C.3   128  HIS128      0.0745
     85  CG        18.5170   22.5070   -4.0380 C.ar  128  HIS128      0.0817
     86  ND1       18.0510   23.7710   -4.3310 N.ar  128  HIS128     -0.2268
     87  CD2       19.8670   22.5970   -4.0330 C.ar  128  HIS128      0.1154
     88  CE1       19.0740   24.5910   -4.4960 C.ar  128  HIS128      0.1986
     89  NE2       20.1880   23.9030   -4.3200 N.ar  128  HIS128     -0.2212
     90  N         12.5040   26.5680   -8.2500 N.3   174  PHE174     -0.1241
     91  CA        13.1560   27.8670   -8.3720 C.3   174  PHE174      0.1605
     92  C         12.2400   28.9850   -7.9100 C.2   174  PHE174      0.2264
     93  O         11.2300   29.2770   -8.5450 O.2   174  PHE174     -0.2867
     94  CB        13.6560   28.1080   -9.8050 C.3   174  PHE174      0.0534
     95  CG        14.8530   27.2670  -10.1640 C.ar  174  PHE174     -0.0203
     96  CD1       16.0690   27.4760   -9.5340 C.ar  174  PHE174     -0.0042
     97  CD2       14.7510   26.2440  -11.0970 C.ar  174  PHE174     -0.0042
     98  CE1       17.1560   26.6960   -9.8340 C.ar  174  PHE174     -0.0003
     99  CE2       15.8410   25.4620  -11.4030 C.ar  174  PHE174     -0.0003
    100  CZ        17.0390   25.6880  -10.7650 C.ar  174  PHE174     -0.0000
    101  N         28.6350   27.7490   -7.1500 N.3   203  GLU203     -0.1231
    102  CA        28.1680   28.9120   -7.8960 C.3   203  GLU203      0.1699
    103  C         27.0470   29.6040   -7.1260 C.2   203  GLU203      0.2592
    104  O         27.1810   30.7560   -6.7080 O.2   203  GLU203     -0.2718
    105  CB        27.6730   28.5140   -9.2970 C.3   203  GLU203      0.0402
    106  CG        28.7700   28.0730  -10.2660 C.3   203  GLU203      0.1161
    107  CD        28.2940   27.9610  -11.7160 C.2   203  GLU203      0.3649
    108  OE1       27.0960   28.2140  -11.9930 O.co2 203  GLU203     -0.2457
    109  OE2       29.1270   27.6170  -12.5880 O.co2 203  GLU203     -0.2457
    110  N         25.9670   28.8680   -6.8980 N.am  204  VAL204     -0.1980
    111  CA        24.7150   29.4600   -6.4320 C.3   204  VAL204      0.1595
    112  C         24.8030   29.9190   -4.9680 C.2   204  VAL204      0.2287
    113  O         25.5080   29.3250   -4.1490 O.2   204  VAL204     -0.2864
    114  CB        23.5240   28.4830   -6.5860 C.3   204  VAL204      0.0276
    115  CG1       22.2110   29.2480   -6.6380 C.3   204  VAL204      0.0022
    116  CG2       23.6710   27.6250   -7.8340 C.3   204  VAL204      0.0022
@<TRIPOS>BOND
     1    23    24    1
     2    24    27    1
     3    24    25    1
     4    15    14    2
     5    30    32   ar
     6    30    28   ar
     7    27    28    1
     8    32    33   ar
     9    28    29   ar
    10    25    35   am
    11    25    26    2
    12    14    13    1
    13    41    35    1
    14    41    40    1
    15    35    36    1
    16     4     3    2
    17    40    39    1
    18    33    34    1
    19    33    31   ar
    20    29    31   ar
    21    13    16    1
    22    13    12    1
    23    36    39    1
    24    36    37    1
    25     3    12   am
    26     3     2    1
    27    16    17    1
    28    50    48   ar
    29     2     1    1
    30     2     5    1
    31    37    42   am
    32    37    38    2
    33    42    43    1
    34    17    18    1
    35    48    49   ar
    36    48    47    1
    37     5     6    1
    38    18    19    1
    39    69    68   ar
    40    43    46    1
    41    43    44    1
    42    46    47    1
    43    70    68   ar
    44    19    20    2
    45    44    45    2
    46    68    67    1
    47     8     6   ar
    48     8    10   ar
    49     6     7   ar
    50    20    22    1
    51    20    21    1
    52    67    66    1
    53    10    11   ar
    54     7     9   ar
    55    66    63    1
    56    11     9   ar
    57   109   107   ar
    58    65    64    2
    59    51    52    1
    60    63    62    1
    61    63    64    1
    62    62    53   am
    63   108   107   ar
    64   107   106    1
    65    60    58   ar
    66    60    61   ar
    67    99    97   ar
    68    99   100   ar
    69    58    56   ar
    70    53    52    1
    71    53    54    2
    72    52    55    1
    73    97    95   ar
    74    61    59   ar
    75   100    98   ar
    76    56    55    1
    77    56    57   ar
    78   106   105    1
    79    59    57   ar
    80    95    94    1
    81    95    96   ar
    82    98    96   ar
    83    94    91    1
    84   105   102    1
    85    93    92    2
    86    91    90    1
    87    91    92    1
    88   102   101    1
    89   102   103    1
    90   116   114    1
    91   103   110   am
    92   103   104    2
    93   110   111    1
    94   115   114    1
    95   114   111    1
    96   111   112    1
    97   112   113    2
    98    88    86   ar
    99    88    89   ar
   100    86    85   ar
   101    89    87   ar
   102    79    77   am
   103    85    87   ar
   104    85    84    1
   105    84    81    1
   106    74    73    2
   107    75    76    1
   108    75    72    1
   109    83    82    2
   110    77    76    1
   111    77    78    2
   112    73    72    1
   113    72    71    1
   114    81    82    1
   115    81    80    1
