@<TRIPOS>MOLECULE
tmp/5h4iB00.pdb
 83 82 0 0 0
SMALL
GASTEIGER

@<TRIPOS>ATOM
      1  N        -14.4150    4.3520   -7.9050 N.3    35  HIS35      -0.1241
      2  CA       -13.4790    5.4600   -8.0430 C.3    35  HIS35       0.1621
      3  C        -14.0360    6.6020   -8.8830 C.2    35  HIS35       0.2264
      4  O        -13.4860    7.7070   -8.8350 O.2    35  HIS35      -0.2867
      5  CB       -12.1600    4.9690   -8.6380 C.3    35  HIS35       0.0745
      6  CG       -12.2170    4.7000  -10.1090 C.ar   35  HIS35       0.0817
      7  ND1      -12.4670    3.4470  -10.6280 N.ar   35  HIS35      -0.2268
      8  CD2      -12.0440    5.5210  -11.1720 C.ar   35  HIS35       0.1154
      9  CE1      -12.4500    3.5090  -11.9490 C.ar   35  HIS35       0.1986
     10  NE2      -12.1970    4.7570  -12.3040 N.ar   35  HIS35      -0.2212
     11  N         -7.4120    1.0050  -24.6920 N.3   113  ASP113     -0.1225
     12  CA        -6.9780    2.2120  -24.0020 C.3   113  ASP113      0.1805
     13  C         -7.8960    3.3730  -24.3600 C.2   113  ASP113      0.2598
     14  O         -8.1810    3.6050  -25.5390 O.2   113  ASP113     -0.2718
     15  CB        -5.5290    2.5530  -24.3560 C.3   113  ASP113      0.1424
     16  CG        -4.8450    3.3710  -23.2770 C.2   113  ASP113      0.3668
     17  OD1       -5.5450    4.0910  -22.5320 O.co2 113  ASP113     -0.2456
     18  OD2       -3.6030    3.2880  -23.1700 O.co2 113  ASP113     -0.2456
     19  N         -8.3440    4.0990  -23.3420 N.am  114  TYR114     -0.1963
     20  CA        -9.2440    5.2300  -23.5050 C.3   114  TYR114      0.1756
     21  C         -8.9780    6.2140  -22.3800 C.2   114  TYR114      0.2461
     22  O         -8.3410    5.8580  -21.3820 O.2   114  TYR114     -0.2730
     23  CB       -10.7100    4.7810  -23.4960 C.3   114  TYR114      0.0574
     24  CG       -11.1960    4.3180  -24.8430 C.ar  114  TYR114     -0.0198
     25  CD1      -11.5990    5.2380  -25.8000 C.ar  114  TYR114     -0.0009
     26  CD2      -11.2510    2.9670  -25.1630 C.ar  114  TYR114     -0.0009
     27  CE1      -12.0410    4.8320  -27.0330 C.ar  114  TYR114      0.0417
     28  CE2      -11.6980    2.5500  -26.4000 C.ar  114  TYR114      0.0417
     29  CZ       -12.0890    3.4910  -27.3300 C.ar  114  TYR114      0.1957
     30  OH       -12.5350    3.1030  -28.5670 O.3   114  TYR114     -0.2866
     31  N         -9.4350    7.4620  -22.5110 N.am  115  PRO115     -0.2716
     32  CA        -9.2920    8.4070  -21.3960 C.3   115  PRO115      0.1536
     33  C         -9.9590    7.8840  -20.1330 C.2   115  PRO115      0.2598
     34  O        -10.9100    7.1000  -20.1840 O.2   115  PRO115     -0.2715
     35  CB        -9.9770    9.6810  -21.9090 C.3   115  PRO115      0.0310
     36  CG       -10.7140    9.2700  -23.1570 C.3   115  PRO115      0.0237
     37  CD        -9.9610    8.1210  -23.7180 C.3   115  PRO115      0.0939
     38  N         -9.4340    8.3280  -18.9880 N.am  116  ALA116     -0.1978
     39  CA        -9.8790    7.8060  -17.6980 C.3   116  ALA116      0.1597
     40  C        -11.3610    8.0680  -17.4480 C.2   116  ALA116      0.2287
     41  O        -12.0200    7.2820  -16.7540 O.2   116  ALA116     -0.2864
     42  CB        -9.0300    8.4030  -16.5780 C.3   116  ALA116      0.0319
     43  N        -14.1460    5.2790  -17.5810 N.3   119  SER119     -0.1217
     44  CA       -14.3470    4.2840  -16.5320 C.3   119  SER119      0.1889
     45  C        -15.8300    4.0950  -16.2420 C.2   119  SER119      0.2288
     46  O        -16.5680    5.0680  -16.0630 O.2   119  SER119     -0.2866
     47  CB       -13.6160    4.7090  -15.2580 C.3   119  SER119      0.2089
     48  OG       -12.2110    4.7130  -15.4390 O.3   119  SER119     -0.2183
     49  N        -15.7910   -1.5180  -17.2130 N.3   134  TYR134     -0.1227
     50  CA       -14.4510   -1.2420  -17.7010 C.3   134  TYR134      0.1736
     51  C        -13.8850   -0.0270  -16.9740 C.2   134  TYR134      0.2596
     52  O        -14.5870    0.9710  -16.7840 O.2   134  TYR134     -0.2718
     53  CB       -14.5160   -1.0040  -19.2100 C.3   134  TYR134      0.0548
     54  CG       -13.3090   -0.3630  -19.8310 C.ar  134  TYR134     -0.0200
     55  CD1      -12.2380   -1.1340  -20.2610 C.ar  134  TYR134     -0.0009
     56  CD2      -13.2540    1.0090  -20.0270 C.ar  134  TYR134     -0.0009
     57  CE1      -11.1330   -0.5540  -20.8500 C.ar  134  TYR134      0.0417
     58  CE2      -12.1590    1.5960  -20.6160 C.ar  134  TYR134      0.0417
     59  CZ       -11.1010    0.8120  -21.0260 C.ar  134  TYR134      0.1957
     60  OH       -10.0060    1.4070  -21.6060 O.3   134  TYR134     -0.2866
     61  N        -12.6220   -0.1140  -16.5480 N.am  135  GLY135     -0.1957
     62  CA       -12.0050    1.0440  -15.9280 C.3   135  GLY135      0.1869
     63  C        -11.1640    0.8130  -14.6850 C.2   135  GLY135      0.2309
     64  O        -10.6790    1.7770  -14.0840 O.2   135  GLY135     -0.2863
     65  N         -1.2390   -1.0250  -16.0780 N.3   139  VAL139     -0.1245
     66  CA        -0.4680   -0.5410  -17.2170 C.3   139  VAL139      0.1561
     67  C          0.7020   -1.4970  -17.4050 C.2   139  VAL139      0.2260
     68  O          1.4720   -1.7340  -16.4650 O.2   139  VAL139     -0.2867
     69  CB         0.0250    0.9000  -17.0100 C.3   139  VAL139      0.0252
     70  CG1        0.9100    1.3290  -18.1700 C.3   139  VAL139      0.0019
     71  CG2       -1.1530    1.8490  -16.8540 C.3   139  VAL139      0.0019
     72  N         -2.9090    0.2900  -21.5740 N.3   145  TYR145     -0.1241
     73  CA        -3.7810    0.0380  -20.4400 C.3   145  TYR145      0.1605
     74  C         -4.5830   -1.2320  -20.6800 C.2   145  TYR145      0.2264
     75  O         -5.0920   -1.4550  -21.7810 O.2   145  TYR145     -0.2867
     76  CB        -4.7180    1.2240  -20.2120 C.3   145  TYR145      0.0534
     77  CG        -5.6670    1.0480  -19.0530 C.ar  145  TYR145     -0.0201
     78  CD1       -5.2180    1.1470  -17.7420 C.ar  145  TYR145     -0.0009
     79  CD2       -7.0150    0.7990  -19.2670 C.ar  145  TYR145     -0.0009
     80  CE1       -6.0840    0.9900  -16.6750 C.ar  145  TYR145      0.0417
     81  CE2       -7.8880    0.6460  -18.2100 C.ar  145  TYR145      0.0417
     82  CZ        -7.4170    0.7400  -16.9140 C.ar  145  TYR145      0.1957
     83  OH        -8.2880    0.5890  -15.8590 O.3   145  TYR145     -0.2866
@<TRIPOS>BOND
     1    30    29    1
     2    29    27   ar
     3    29    28   ar
     4    27    25   ar
     5    28    26   ar
     6    25    24   ar
     7    14    13    2
     8    26    24   ar
     9    24    23    1
    10    11    12    1
    11    13    12    1
    12    13    19   am
    13    15    12    1
    14    15    16    1
    15    37    36    1
    16    37    31    1
    17    20    23    1
    18    20    19    1
    19    20    21    1
    20    16    18   ar
    21    16    17   ar
    22    36    35    1
    23    31    21   am
    24    31    32    1
    25    21    22    2
    26    35    32    1
    27    75    74    2
    28    60    59    1
    29    72    73    1
    30    32    33    1
    31    59    57   ar
    32    59    58   ar
    33    57    55   ar
    34    74    73    1
    35    58    56   ar
    36    73    76    1
    37    55    54   ar
    38    76    77    1
    39    34    33    2
    40    33    38   am
    41    56    54   ar
    42    54    53    1
    43    79    77   ar
    44    79    81   ar
    45    53    50    1
    46    77    78   ar
    47    38    39    1
    48    81    82   ar
    49    70    69    1
    50    78    80   ar
    51    50    49    1
    52    50    51    1
    53    39    40    1
    54    39    42    1
    55    43    44    1
    56    40    41    2
    57    67    66    1
    58    67    68    2
    59    66    69    1
    60    66    65    1
    61    69    71    1
    62    51    52    2
    63    51    61   am
    64    82    80   ar
    65    82    83    1
    66    61    62    1
    67    44    45    1
    68    44    47    1
    69    45    46    2
    70    62    63    1
    71    48    47    1
    72    63    64    2
    73    10     9   ar
    74    10     8   ar
    75     9     7   ar
    76     8     6   ar
    77     7     6   ar
    78     6     5    1
    79     3     4    2
    80     3     2    1
    81     5     2    1
    82     2     1    1
