@<TRIPOS>MOLECULE
tmp/5h4jA00.pdb
 97 91 0 0 0
SMALL
GASTEIGER

@<TRIPOS>ATOM
      1  N          8.0980   -3.1600   17.5610 N.3    42  VAL42      -0.1245
      2  CA         8.8500   -2.5900   18.6930 C.3    42  VAL42       0.1561
      3  C          9.9450   -3.5980   19.0390 C.2    42  VAL42       0.2260
      4  O          9.6790   -4.8020   19.3320 O.2    42  VAL42      -0.2867
      5  CB         7.9200   -2.4030   19.8770 C.3    42  VAL42       0.0252
      6  CG1        8.6890   -1.8990   21.0920 C.3    42  VAL42       0.0019
      7  CG2        6.8150   -1.4140   19.4970 C.3    42  VAL42       0.0019
      8  N         13.1640   -4.6800   21.1910 N.3    44  LYS44      -0.1245
      9  CA        13.8070   -4.4480   22.5060 C.3    44  LYS44       0.1561
     10  C         15.3260   -4.5220   22.3880 C.2    44  LYS44       0.2260
     11  O         15.8630   -5.4080   21.7300 O.2    44  LYS44      -0.2867
     12  CB        13.4220   -5.5120   23.5650 C.3    44  LYS44       0.0271
     13  CG        11.9670   -5.3690   23.9960 C.3    44  LYS44       0.0035
     14  CD        11.5910   -6.5130   24.9520 C.3    44  LYS44       0.0206
     15  CE        10.1610   -6.3590   25.4710 C.3    44  LYS44       0.1093
     16  NZ        10.0550   -7.4100   26.5660 N.3    44  LYS44      -0.1314
     17  N         16.1580    8.2220   19.3910 N.3    59  VAL59      -0.1245
     18  CA        16.4110    7.0070   18.5910 C.3    59  VAL59       0.1561
     19  C         16.2690    7.3900   17.1340 C.2    59  VAL59       0.2260
     20  O         15.1770    7.8390   16.6670 O.2    59  VAL59      -0.2867
     21  CB        15.4250    5.8830   18.9300 C.3    59  VAL59       0.0252
     22  CG1       15.7750    4.6350   18.1900 C.3    59  VAL59       0.0019
     23  CG2       15.2720    5.6370   20.4300 C.3    59  VAL59       0.0019
     24  N         10.2180    5.0110   14.0610 N.3    74  GLY74      -0.1210
     25  CA         9.1000    5.7610   14.5920 C.3    74  GLY74       0.1956
     26  C          9.3650    6.1710   16.0370 C.2    74  GLY74       0.2612
     27  O         10.3740    5.7560   16.6390 O.2    74  GLY74      -0.2717
     28  N          8.4140    6.8900   16.6270 N.am   75  ALA75      -0.1965
     29  CA         8.5100    7.3140   18.0110 C.3    75  ALA75       0.1728
     30  C          9.8470    8.0370   18.2140 C.2    75  ALA75       0.2617
     31  O         10.1500    8.9970   17.4800 O.2    75  ALA75      -0.2715
     32  CB         8.3130    6.1300   18.9440 C.3    75  ALA75       0.0334
     33  N         10.6660    7.5390   19.1070 N.am   76  GLY76      -0.1940
     34  CA        12.0840    7.9280   19.1680 C.3    76  GLY76       0.2014
     35  C         12.5010    8.9400   20.2230 C.2    76  GLY76       0.2639
     36  O         13.6880    9.2400   20.3340 O.2    76  GLY76      -0.2714
     37  N         11.5490    9.5170   20.9360 N.am   77  VAL77      -0.1963
     38  CA        11.8760   10.4700   21.9860 C.3    77  VAL77       0.1727
     39  C         11.9750    9.7900   23.3500 C.2    77  VAL77       0.2616
     40  O         10.9550    9.4400   23.9840 O.2    77  VAL77      -0.2715
     41  CB        10.8020   11.5770   22.0050 C.3    77  VAL77       0.0290
     42  CG1       11.0720   12.6010   23.1160 C.3    77  VAL77       0.0023
     43  CG2       10.7610   12.2780   20.6240 C.3    77  VAL77       0.0023
     44  N         13.2130    9.5890   23.7750 N.am   78  ILE78      -0.1963
     45  CA        13.4900    9.0080   25.1090 C.3    78  ILE78       0.1727
     46  C         13.7690   10.1350   26.1060 C.2    78  ILE78       0.2616
     47  O         14.7600   10.8410   26.0300 O.2    78  ILE78      -0.2715
     48  CB        14.6310    7.9720   25.0980 C.3    78  ILE78       0.0290
     49  CG1       14.3270    6.8400   24.1060 C.3    78  ILE78       0.0022
     50  CG2       14.7440    7.3790   26.5260 C.3    78  ILE78       0.0023
     51  CD1       15.4950    5.9030   23.9570 C.3    78  ILE78       0.0001
     52  N         12.8680   10.3170   27.0450 N.am   79  ASP79      -0.1971
     53  CA        13.0240   11.3630   28.0320 C.3    79  ASP79       0.1709
     54  C         14.2970   11.1600   28.8650 C.2    79  ASP79       0.2293
     55  O         14.7200   10.0280   29.1590 O.2    79  ASP79      -0.2864
     56  CB        11.8260   11.4450   28.9800 C.3    79  ASP79       0.1436
     57  CG        10.5650   11.8970   28.3110 C.2    79  ASP79       0.3671
     58  OD1       10.6100   12.6730   27.3870 O.co2  79  ASP79      -0.2456
     59  OD2        9.5270   11.4900   28.7930 O.co2  79  ASP79      -0.2456
     60  N         14.0670    8.6300   31.6910 N.3    82  TYR82      -0.1241
     61  CA        13.5120    7.3100   31.4660 C.3    82  TYR82       0.1605
     62  C         14.5110    6.2410   31.8590 C.2    82  TYR82       0.2264
     63  O         15.6500    6.2570   31.4040 O.2    82  TYR82      -0.2867
     64  CB        13.1970    7.1210   29.9720 C.3    82  TYR82       0.0534
     65  CG        12.6550    5.7600   29.5810 C.ar   82  TYR82      -0.0201
     66  CD1       11.3730    5.3550   29.9860 C.ar   82  TYR82      -0.0009
     67  CD2       13.4350    4.8640   28.9050 C.ar   82  TYR82      -0.0009
     68  CE1       10.9040    4.1190   29.6680 C.ar   82  TYR82       0.0417
     69  CE2       12.9570    3.6350   28.5200 C.ar   82  TYR82       0.0417
     70  CZ        11.7070    3.2380   28.9300 C.ar   82  TYR82       0.1957
     71  OH        11.1960    2.0060   28.5940 O.3    82  TYR82      -0.2866
     72  N         13.4270   -0.2100   29.7360 N.3    85  ASN85      -0.1225
     73  CA        14.0280   -0.8640   28.6070 C.3    85  ASN85       0.1785
     74  C         13.8590    0.0350   27.3750 C.2    85  ASN85       0.2597
     75  O         12.7560    0.5530   27.1510 O.2    85  ASN85      -0.2718
     76  CB        13.3220   -2.2140   28.3880 C.3    85  ASN85       0.1169
     77  CG        14.0490   -3.1710   27.4470 C.2    85  ASN85       0.2627
     78  OD1       14.9420   -2.8100   26.6990 O.2    85  ASN85      -0.2716
     79  ND2       13.6180   -4.4480   27.4770 N.am   85  ASN85      -0.0877
     80  N         14.9470    0.2360   26.6530 N.am   86  VAL86      -0.1966
     81  CA        14.9220    1.0590   25.4710 C.3    86  VAL86       0.1727
     82  C         14.3960    0.2550   24.2840 C.2    86  VAL86       0.2616
     83  O         14.9820   -0.7270   23.9340 O.2    86  VAL86      -0.2715
     84  CB        16.3040    1.6320   25.1580 C.3    86  VAL86       0.0290
     85  CG1       16.3300    2.2910   23.8060 C.3    86  VAL86       0.0023
     86  CG2       16.7460    2.5690   26.2650 C.3    86  VAL86       0.0023
     87  N         13.2870    0.7210   23.7290 N.am   87  GLY87      -0.1955
     88  CA        12.6710    0.1410   22.5760 C.3    87  GLY87       0.1869
     89  C         12.8960    0.9730   21.3330 C.2    87  GLY87       0.2309
     90  O         12.8890    2.2080   21.3920 O.2    87  GLY87      -0.2863
     91  N         11.2360    1.5090   17.6470 N.3    89  VAL89      -0.1245
     92  CA        10.0510    1.2620   16.7920 C.3    89  VAL89       0.1561
     93  C         10.5080    1.3110   15.3290 C.2    89  VAL89       0.2260
     94  O         10.8070    2.3770   14.7960 O.2    89  VAL89      -0.2867
     95  CB         8.9460    2.2950   17.0620 C.3    89  VAL89       0.0252
     96  CG1        7.7230    2.0320   16.1820 C.3    89  VAL89       0.0019
     97  CG2        8.5930    2.3450   18.5630 C.3    89  VAL89       0.0019
@<TRIPOS>BOND
     1    24    25    1
     2    25    26    1
     3    94    93    2
     4    93    92    1
     5    26    28   am
     6    26    27    2
     7    96    95    1
     8    28    29    1
     9    20    19    2
    10    92    95    1
    11    92    91    1
    12    95    97    1
    13    19    18    1
    14    31    30    2
    15     1     2    1
    16    29    30    1
    17    29    32    1
    18    22    21    1
    19    30    33   am
    20    18    21    1
    21    18    17    1
    22     2     3    1
    23     2     5    1
    24    21    23    1
    25     3     4    2
    26    33    34    1
    27    34    35    1
    28     7     5    1
    29     5     6    1
    30    35    36    2
    31    35    37   am
    32    43    41    1
    33    37    38    1
    34     8     9    1
    35    89    90    2
    36    89    88    1
    37    11    10    2
    38    38    41    1
    39    38    39    1
    40    41    42    1
    41    10     9    1
    42     9    12    1
    43    88    87    1
    44    39    44   am
    45    39    40    2
    46    12    13    1
    47    87    82   am
    48    44    45    1
    49    85    84    1
    50    83    82    2
    51    51    49    1
    52    13    14    1
    53    49    48    1
    54    82    81    1
    55    14    15    1
    56    48    45    1
    57    48    50    1
    58    45    46    1
    59    84    81    1
    60    84    86    1
    61    15    16    1
    62    81    80    1
    63    47    46    2
    64    46    52   am
    65    80    74   am
    66    78    77    2
    67    52    53    1
    68    75    74    2
    69    74    73    1
    70    58    57   ar
    71    77    79   am
    72    77    76    1
    73    53    54    1
    74    53    56    1
    75    57    59   ar
    76    57    56    1
    77    76    73    1
    78    69    67   ar
    79    69    70   ar
    80    71    70    1
    81    73    72    1
    82    54    55    2
    83    67    65   ar
    84    70    68   ar
    85    65    64    1
    86    65    66   ar
    87    68    66   ar
    88    64    61    1
    89    63    62    2
    90    61    60    1
    91    61    62    1
