@<TRIPOS>MOLECULE
tmp/5h4rA00.pdb
 181 178 0 0 0
SMALL
GASTEIGER

@<TRIPOS>ATOM
      1  N         23.6360   48.7620   16.7620 N.3    34  ASN34      -0.1240
      2  CA        22.6180   49.4240   17.5850 C.3    34  ASN34       0.1653
      3  C         21.5500   48.4440   18.0770 C.2    34  ASN34       0.2266
      4  O         20.3740   48.7950   18.2160 O.2    34  ASN34      -0.2867
      5  CB        21.9810   50.5920   16.8330 C.3    34  ASN34       0.1155
      6  CG        22.8370   51.8660   16.9090 C.2    34  ASN34       0.2627
      7  OD1       23.9700   51.8490   17.3830 O.2    34  ASN34      -0.2716
      8  ND2       22.2770   52.9750   16.4500 N.am   34  ASN34      -0.0877
      9  N         17.3140   51.1150   20.3750 N.3    55  TRP55      -0.1241
     10  CA        17.8910   51.9540   19.3460 C.3    55  TRP55       0.1605
     11  C         17.4530   51.5400   17.9440 C.2    55  TRP55       0.2264
     12  O         17.0270   52.4010   17.1680 O.2    55  TRP55      -0.2867
     13  CB        19.4230   51.9480   19.4620 C.3    55  TRP55       0.0550
     14  CG        19.9610   52.6750   20.6880 C.ar   55  TRP55       0.0003
     15  CD1       19.2450   53.3270   21.6530 C.ar   55  TRP55       0.0946
     16  CD2       21.3390   52.7980   21.0610 C.ar   55  TRP55       0.0152
     17  NE1       20.0940   53.8710   22.5900 N.ar   55  TRP55      -0.2442
     18  CE2       21.3860   53.5480   22.2560 C.ar   55  TRP55       0.0810
     19  CE3       22.5390   52.3380   20.5030 C.ar   55  TRP55       0.0012
     20  CZ2       22.5850   53.8510   22.8960 C.ar   55  TRP55       0.0191
     21  CZ3       23.7240   52.6410   21.1450 C.ar   55  TRP55       0.0001
     22  CH2       23.7390   53.3890   22.3200 C.ar   55  TRP55       0.0015
     23  N         31.1630   45.7250   24.0900 N.3   120  HIS120     -0.1226
     24  CA        31.0180   46.9130   23.2650 C.3   120  HIS120      0.1752
     25  C         31.0210   48.1660   24.1310 C.2   120  HIS120      0.2596
     26  O         32.1090   48.6100   24.5570 O.2   120  HIS120     -0.2718
     27  CB        29.7930   46.7530   22.3570 C.3   120  HIS120      0.0759
     28  CG        29.9020   47.5360   21.0970 C.ar  120  HIS120      0.0818
     29  ND1       30.6640   47.1170   20.0210 N.ar  120  HIS120     -0.2268
     30  CD2       29.3710   48.7350   20.7500 C.ar  120  HIS120      0.1154
     31  CE1       30.5690   48.0180   19.0580 C.ar  120  HIS120      0.1986
     32  NE2       29.7830   49.0020   19.4720 N.ar  120  HIS120     -0.2212
     33  N         29.8690   48.8070   24.3810 N.am  121  HIS121     -0.1975
     34  CA        29.8140   50.1200   25.0530 C.3   121  HIS121      0.1656
     35  C         29.8390   49.9640   26.5710 C.2   121  HIS121      0.2291
     36  O         28.9340   50.4050   27.2820 O.2   121  HIS121     -0.2864
     37  CB        28.5760   50.9280   24.6750 C.3   121  HIS121      0.0771
     38  CG        28.4890   51.3480   23.2460 C.ar  121  HIS121      0.0820
     39  ND1       29.5160   51.9830   22.5740 N.ar  121  HIS121     -0.2267
     40  CD2       27.4550   51.2720   22.3690 C.ar  121  HIS121      0.1154
     41  CE1       29.1270   52.2470   21.3350 C.ar  121  HIS121      0.1986
     42  NE2       27.8760   51.8380   21.1920 N.ar  121  HIS121     -0.2212
     43  N         35.6200   46.3750   22.1710 N.3   166  ASN166     -0.1225
     44  CA        35.3620   47.1170   20.9450 C.3   166  ASN166      0.1785
     45  C         36.3820   48.2250   20.7070 C.2   166  ASN166      0.2597
     46  O         37.2850   48.0710   19.8780 O.2   166  ASN166     -0.2718
     47  CB        33.9260   47.6560   21.0200 C.3   166  ASN166      0.1169
     48  CG        33.5560   48.4870   19.8590 C.2   166  ASN166      0.2627
     49  OD1       33.7460   48.0820   18.7180 O.2   166  ASN166     -0.2716
     50  ND2       32.9860   49.6640   20.1220 N.am  166  ASN166     -0.0877
     51  N         36.2780   49.3280   21.4400 N.am  167  GLN167     -0.1979
     52  CA        37.1230   50.5090   21.2100 C.3   167  GLN167      0.1601
     53  C         37.6570   50.9880   22.5570 C.2   167  GLN167      0.2287
     54  O         37.2530   52.0300   23.0890 O.2   167  GLN167     -0.2864
     55  CB        36.3650   51.6090   20.4660 C.3   167  GLN167      0.0394
     56  CG        36.0450   51.1760   19.0770 C.3   167  GLN167      0.0908
     57  CD        35.3780   52.2050   18.2100 C.2   167  GLN167      0.2608
     58  OE1       35.5370   52.1520   16.9930 O.2   167  GLN167     -0.2717
     59  NE2       34.5810   53.0900   18.8010 N.am  167  GLN167     -0.0878
     60  N         40.2730   59.8400   21.3420 N.3   177  TRP177     -0.1241
     61  CA        40.4320   59.3050   19.9960 C.3   177  TRP177      0.1605
     62  C         41.8240   59.5060   19.4120 C.2   177  TRP177      0.2264
     63  O         42.0400   59.1570   18.2440 O.2   177  TRP177     -0.2867
     64  CB        39.4000   59.9280   19.0380 C.3   177  TRP177      0.0550
     65  CG        37.9820   59.7110   19.5110 C.ar  177  TRP177      0.0003
     66  CD1       37.1390   60.6550   20.0180 C.ar  177  TRP177      0.0946
     67  CD2       37.2570   58.4670   19.5550 C.ar  177  TRP177      0.0152
     68  NE1       35.9280   60.0940   20.3350 N.ar  177  TRP177     -0.2442
     69  CE2       35.9870   58.7430   20.0970 C.ar  177  TRP177      0.0810
     70  CE3       37.5680   57.1500   19.2130 C.ar  177  TRP177      0.0012
     71  CZ2       35.0050   57.7560   20.2690 C.ar  177  TRP177      0.0191
     72  CZ3       36.6000   56.1650   19.3950 C.ar  177  TRP177      0.0001
     73  CH2       35.3280   56.4760   19.9140 C.ar  177  TRP177      0.0015
     74  N         41.3550   52.5140   20.9820 N.3   222  ALA222     -0.1245
     75  CA        40.2270   53.0220   20.2020 C.3   222  ALA222      0.1562
     76  C         39.9490   52.1830   18.9580 C.2   222  ALA222      0.2260
     77  O         39.1930   52.6130   18.0810 O.2   222  ALA222     -0.2867
     78  CB        40.4390   54.4940   19.8180 C.3   222  ALA222      0.0290
     79  N         39.0160   49.3130   13.3950 N.3   251  HIS251     -0.1226
     80  CA        37.8660   50.0170   12.8330 C.3   251  HIS251      0.1752
     81  C         38.3990   51.2010   12.0470 C.2   251  HIS251      0.2596
     82  O         39.3640   51.8350   12.4800 O.2   251  HIS251     -0.2718
     83  CB        36.9290   50.5250   13.8970 C.3   251  HIS251      0.0759
     84  CG        36.3540   49.4420   14.7310 C.ar  251  HIS251      0.0818
     85  ND1       35.5890   49.6850   15.8440 N.ar  251  HIS251     -0.2268
     86  CD2       36.4590   48.0970   14.6230 C.ar  251  HIS251      0.1154
     87  CE1       35.2270   48.5330   16.3790 C.ar  251  HIS251      0.1986
     88  NE2       35.7340   47.5510   15.6510 N.ar  251  HIS251     -0.2212
     89  N         37.7730   51.5150   10.9050 N.am  252  ALA252     -0.1966
     90  CA        38.3560   52.5620   10.0490 C.3   252  ALA252      0.1728
     91  C         37.2780   53.1240    9.1180 C.2   252  ALA252      0.2616
     92  O         37.1300   52.6810    7.9780 O.2   252  ALA252     -0.2715
     93  CB        39.5220   52.0280    9.2640 C.3   252  ALA252      0.0334
     94  N         36.5770   54.1450    9.6100 N.am  253  TYR253     -0.1974
     95  CA        35.5990   54.8670    8.7990 C.3   253  TYR253      0.1639
     96  C         36.3620   55.9990    8.1230 C.2   253  TYR253      0.2290
     97  O         36.4130   57.1260    8.5980 O.2   253  TYR253     -0.2864
     98  CB        34.4670   55.3810    9.6640 C.3   253  TYR253      0.0560
     99  CG        33.6380   54.3480   10.3990 C.ar  253  TYR253     -0.0198
    100  CD1       34.0520   53.8120   11.6070 C.ar  253  TYR253     -0.0009
    101  CD2       32.4050   53.9780    9.9290 C.ar  253  TYR253     -0.0009
    102  CE1       33.2660   52.9020   12.3030 C.ar  253  TYR253      0.0417
    103  CE2       31.5990   53.0990   10.6170 C.ar  253  TYR253      0.0417
    104  CZ        32.0340   52.5350   11.7960 C.ar  253  TYR253      0.1957
    105  OH        31.2180   51.6780   12.4860 O.3   253  TYR253     -0.2866
    106  N         37.5560   60.0310    7.0180 N.3   256  TYR256     -0.1241
    107  CA        36.6100   60.4090    8.0640 C.3   256  TYR256      0.1605
    108  C         35.6220   61.4730    7.5930 C.2   256  TYR256      0.2264
    109  O         34.4150   61.3700    7.8630 O.2   256  TYR256     -0.2867
    110  CB        37.3900   60.9000    9.2810 C.3   256  TYR256      0.0534
    111  CG        36.5390   61.5400   10.3470 C.ar  256  TYR256     -0.0201
    112  CD1       35.8230   60.7500   11.2540 C.ar  256  TYR256     -0.0009
    113  CD2       36.4370   62.9100   10.4480 C.ar  256  TYR256     -0.0009
    114  CE1       35.0370   61.3270   12.2030 C.ar  256  TYR256      0.0417
    115  CE2       35.6450   63.4830   11.4140 C.ar  256  TYR256      0.0417
    116  CZ        34.9550   62.6850   12.2830 C.ar  256  TYR256      0.1957
    117  OH        34.1740   63.3090   13.2450 O.3   256  TYR256     -0.2866
    118  N         32.1690   59.3250    8.0960 N.3   260  LEU260     -0.1245
    119  CA        31.6590   59.3240    9.4630 C.3   260  LEU260      0.1561
    120  C         31.3190   60.7120    9.9860 C.2   260  LEU260      0.2260
    121  O         30.3620   60.8530   10.7460 O.2   260  LEU260     -0.2867
    122  CB        32.6760   58.6380   10.3580 C.3   260  LEU260      0.0270
    123  CG        32.3690   58.5970   11.8520 C.3   260  LEU260      0.0019
    124  CD1       31.0770   57.8760   12.1100 C.3   260  LEU260      0.0001
    125  CD2       33.5320   57.9050   12.5720 C.3   260  LEU260      0.0001
    126  N         34.6270   47.0880   11.6740 N.3   305  GLU305     -0.1245
    127  CA        33.6340   48.1240   11.3630 C.3   305  GLU305      0.1567
    128  C         34.1970   49.0860   10.3320 C.2   305  GLU305      0.2260
    129  O         35.3120   49.5950   10.5000 O.2   305  GLU305     -0.2867
    130  CB        33.2170   48.9510   12.5900 C.3   305  GLU305      0.0388
    131  CG        32.5000   48.2140   13.6840 C.3   305  GLU305      0.1160
    132  CD        32.1440   49.1050   14.8630 C.2   305  GLU305      0.3649
    133  OE1       32.0690   50.3530   14.6760 O.co2 305  GLU305     -0.2457
    134  OE2       31.9360   48.5670   15.9830 O.co2 305  GLU305     -0.2457
    135  N         29.0170   48.4890    9.1600 N.3   339  TRP339     -0.1241
    136  CA        28.2430   48.8640   10.3470 C.3   339  TRP339      0.1605
    137  C         26.8120   49.1850    9.9160 C.2   339  TRP339      0.2264
    138  O         26.5490   50.2590    9.3810 O.2   339  TRP339     -0.2867
    139  CB        28.8890   50.0750   11.0200 C.3   339  TRP339      0.0550
    140  CG        28.1780   50.5150   12.2360 C.ar  339  TRP339      0.0003
    141  CD1       27.4440   51.6440   12.3920 C.ar  339  TRP339      0.0946
    142  CD2       28.1100   49.8180   13.4730 C.ar  339  TRP339      0.0152
    143  NE1       26.9180   51.7030   13.6600 N.ar  339  TRP339     -0.2442
    144  CE2       27.3130   50.5890   14.3480 C.ar  339  TRP339      0.0810
    145  CE3       28.6520   48.6180   13.9430 C.ar  339  TRP339      0.0012
    146  CZ2       27.0590   50.2050   15.6460 C.ar  339  TRP339      0.0191
    147  CZ3       28.4030   48.2500   15.2350 C.ar  339  TRP339      0.0001
    148  CH2       27.6100   49.0340   16.0790 C.ar  339  TRP339      0.0015
    149  N         23.3590   49.9290   11.3460 N.3   341  ASN341     -0.1240
    150  CA        22.6440   50.2780   12.5630 C.3   341  ASN341      0.1653
    151  C         21.1440   50.5220   12.3350 C.2   341  ASN341      0.2266
    152  O         20.4730   51.0440   13.2260 O.2   341  ASN341     -0.2867
    153  CB        23.2880   51.4960   13.2310 C.3   341  ASN341      0.1155
    154  CG        23.1660   52.7630   12.3930 C.2   341  ASN341      0.2627
    155  OD1       22.7740   52.7080   11.2360 O.2   341  ASN341     -0.2716
    156  ND2       23.5120   53.8950   12.9720 N.am  341  ASN341     -0.0877
    157  N         19.5910   52.6400   10.7300 N.3   343  ALA343     -0.1245
    158  CA        19.2370   54.0550   10.7480 C.3   343  ALA343      0.1562
    159  C         19.3170   54.6160    9.3320 C.2   343  ALA343      0.2260
    160  O         20.3610   54.5120    8.6790 O.2   343  ALA343     -0.2867
    161  CB        20.1620   54.8480   11.6790 C.3   343  ALA343      0.0290
    162  N         23.2790   58.8590   12.8440 N.3   349  GLU349     -0.1245
    163  CA        24.2800   58.2950   11.9370 C.3   349  GLU349      0.1567
    164  C         23.5940   57.2810   11.0310 C.2   349  GLU349      0.2260
    165  O         23.3380   56.1410   11.4280 O.2   349  GLU349     -0.2867
    166  CB        25.3990   57.6460   12.7320 C.3   349  GLU349      0.0388
    167  CG        26.0900   58.6070   13.6650 C.3   349  GLU349      0.1160
    168  CD        27.2280   57.9990   14.4670 C.2   349  GLU349      0.3649
    169  OE1       27.5300   56.8050   14.2690 O.co2 349  GLU349     -0.2457
    170  OE2       27.8060   58.7340   15.3120 O.co2 349  GLU349     -0.2457
    171  N         23.6850   54.8140    8.7480 N.3   351  PHE351     -0.1241
    172  CA        24.5130   53.7690    8.1770 C.3   351  PHE351      0.1605
    173  C         23.7020   52.5620    7.6990 C.2   351  PHE351      0.2264
    174  O         24.2870   51.5770    7.2490 O.2   351  PHE351     -0.2867
    175  CB        25.5310   53.2940    9.2290 C.3   351  PHE351      0.0534
    176  CG        26.7160   54.2130    9.4340 C.ar  351  PHE351     -0.0203
    177  CD1       27.7270   54.2610    8.4800 C.ar  351  PHE351     -0.0042
    178  CD2       26.8690   54.9430   10.5990 C.ar  351  PHE351     -0.0042
    179  CE1       28.8430   55.0590    8.6680 C.ar  351  PHE351     -0.0003
    180  CE2       27.9860   55.7420   10.8060 C.ar  351  PHE351     -0.0003
    181  CZ        28.9730   55.8030    9.8180 C.ar  351  PHE351     -0.0000
@<TRIPOS>BOND
     1   106   107    1
     2   174   173    2
     3   108   109    2
     4   108   107    1
     5   173   172    1
     6    92    91    2
     7   107   110    1
     8   118   119    1
     9    96    97    2
    10    96    95    1
    11   172   171    1
    12   172   175    1
    13   177   179   ar
    14   177   176   ar
    15   179   181   ar
    16   160   159    2
    17    95    94    1
    18    95    98    1
    19    91    94   am
    20    91    90    1
    21   135   136    1
    22   175   176    1
    23    93    90    1
    24   110   111    1
    25   159   158    1
    26   138   137    2
    27   176   178   ar
    28   119   120    1
    29   119   122    1
    30    98    99    1
    31   181   180   ar
    32   137   136    1
    33   101    99   ar
    34   101   103   ar
    35   120   121    2
    36    90    89    1
    37   128   129    2
    38   128   127    1
    39   136   139    1
    40   111   113   ar
    41   111   112   ar
    42   122   123    1
    43    99   100   ar
    44   113   115   ar
    45   178   180   ar
    46   103   104   ar
    47   157   158    1
    48   158   161    1
    49    89    81   am
    50   139   140    1
    51   164   165    2
    52   164   163    1
    53   155   154    2
    54   112   114   ar
    55   149   150    1
    56   127   126    1
    57   127   130    1
    58   115   116   ar
    59   100   102   ar
    60   104   102   ar
    61   104   105    1
    62   123   124    1
    63   123   125    1
    64   163   166    1
    65   163   162    1
    66    81    82    2
    67    81    80    1
    68   114   116   ar
    69   140   141   ar
    70   140   142   ar
    71   116   117    1
    72   151   150    1
    73   151   152    2
    74   141   143   ar
    75   154   156   am
    76   154   153    1
    77   150   153    1
    78   130   131    1
    79   166   167    1
    80    80    79    1
    81    80    83    1
    82   142   145   ar
    83   142   144   ar
    84   143   144   ar
    85   167   168    1
    86   131   132    1
    87    83    84    1
    88   145   147   ar
    89   169   168   ar
    90   144   146   ar
    91   168   170   ar
    92    86    84   ar
    93    86    88   ar
    94   133   132   ar
    95    84    85   ar
    96   132   134   ar
    97   147   148   ar
    98   146   148   ar
    99    88    87   ar
   100    85    87   ar
   101     8     6   am
   102     1     2    1
   103     5     6    1
   104     5     2    1
   105     6     7    2
   106    58    57    2
   107    12    11    2
   108     2     3    1
   109    11    10    1
   110     3     4    2
   111    77    76    2
   112    57    59   am
   113    57    56    1
   114    63    62    2
   115    49    48    2
   116    76    75    1
   117    64    65    1
   118    64    61    1
   119    31    32   ar
   120    31    29   ar
   121    56    55    1
   122    70    72   ar
   123    70    67   ar
   124    10    13    1
   125    10     9    1
   126    72    73   ar
   127    62    61    1
   128    13    14    1
   129    32    30   ar
   130    65    67   ar
   131    65    66   ar
   132    67    69   ar
   133    78    75    1
   134    48    50   am
   135    48    47    1
   136    46    45    2
   137    73    71   ar
   138    61    60    1
   139    66    68   ar
   140    29    28   ar
   141    69    71   ar
   142    69    68   ar
   143    75    74    1
   144    55    52    1
   145    19    16   ar
   146    19    21   ar
   147    14    16   ar
   148    14    15   ar
   149    45    44    1
   150    45    51   am
   151    30    28   ar
   152    44    47    1
   153    44    43    1
   154    16    18   ar
   155    28    27    1
   156    21    22   ar
   157    42    41   ar
   158    42    40   ar
   159    52    51    1
   160    52    53    1
   161    41    39   ar
   162    15    17   ar
   163    18    17   ar
   164    18    20   ar
   165    22    20   ar
   166    27    24    1
   167    40    38   ar
   168    53    54    2
   169    39    38   ar
   170    38    37    1
   171    24    23    1
   172    24    25    1
   173    25    33   am
   174    25    26    2
   175    33    34    1
   176    37    34    1
   177    34    35    1
   178    35    36    2
