@<TRIPOS>MOLECULE
tmp/5h56B02.pdb
 94 89 0 0 0
SMALL
GASTEIGER

@<TRIPOS>ATOM
      1  N          8.5600    3.2160   40.6410 N.3     9  ASP9       -0.1239
      2  CA         8.6460    4.6740   40.7990 C.3     9  ASP9        0.1674
      3  C          8.5440    5.0290   42.2750 C.2     9  ASP9        0.2266
      4  O          7.6870    4.4630   42.9650 O.2     9  ASP9       -0.2867
      5  CB         7.4960    5.3490   40.0800 C.3     9  ASP9        0.1410
      6  CG         7.4050    4.9450   38.6530 C.2     9  ASP9        0.3668
      7  OD1        6.8710    3.8480   38.3890 O.co2   9  ASP9       -0.2456
      8  OD2        7.8980    5.6890   37.8010 O.co2   9  ASP9       -0.2456
      9  N          8.7150    9.1560   25.1790 N.3    50  LEU50      -0.1231
     10  CA         8.1260    8.2100   26.0860 C.3    50  LEU50       0.1693
     11  C          7.3230    8.8660   27.1940 C.2    50  LEU50       0.2591
     12  O          6.2580    8.3720   27.5700 O.2    50  LEU50      -0.2718
     13  CB         9.2030    7.3000   26.6670 C.3    50  LEU50       0.0284
     14  CG         9.7010    6.2360   25.6920 C.3    50  LEU50       0.0019
     15  CD1       11.0940    5.7600   26.0870 C.3    50  LEU50       0.0001
     16  CD2        8.7340    5.0600   25.6390 C.3    50  LEU50       0.0001
     17  N          7.8310    9.9870   27.6850 N.am   51  LEU51      -0.1980
     18  CA         7.2280   10.6580   28.8350 C.3    51  LEU51       0.1596
     19  C          6.1500   11.6490   28.4410 C.2    51  LEU51       0.2287
     20  O          5.3710   12.0530   29.3030 O.2    51  LEU51      -0.2864
     21  CB         8.3040   11.3340   29.6920 C.3    51  LEU51       0.0297
     22  CG         9.2380   10.3910   30.4650 C.3    51  LEU51       0.0022
     23  CD1       10.2920   11.2030   31.1950 C.3    51  LEU51       0.0001
     24  CD2        8.5150    9.4920   31.4570 C.3    51  LEU51       0.0001
     25  N          6.1150    1.5820   22.8340 N.3    60  GLU60      -0.1245
     26  CA         6.8390    1.9180   24.0630 C.3    60  GLU60       0.1567
     27  C          8.0020    0.9540   24.2940 C.2    60  GLU60       0.2260
     28  O          9.1430    1.3790   24.5010 O.2    60  GLU60      -0.2867
     29  CB         5.9140    1.8980   25.2820 C.3    60  GLU60       0.0388
     30  CG         5.0390    3.1300   25.3940 C.3    60  GLU60       0.1160
     31  CD         3.9830    3.0220   26.4890 C.2    60  GLU60       0.3649
     32  OE1        3.9680    2.0310   27.2530 O.co2  60  GLU60      -0.2457
     33  OE2        3.1200    3.9380   26.5520 O.co2  60  GLU60      -0.2457
     34  N         12.0290    1.9890   24.4930 N.3    64  PHE64      -0.1241
     35  CA        12.8420    1.6960   25.6740 C.3    64  PHE64       0.1605
     36  C         14.0990    0.9280   25.2370 C.2    64  PHE64       0.2264
     37  O         15.2230    1.2200   25.6740 O.2    64  PHE64      -0.2867
     38  CB        12.0850    0.9040   26.7470 C.3    64  PHE64       0.0534
     39  CG        11.1570    1.7560   27.5870 C.ar   64  PHE64      -0.0203
     40  CD1       11.6830    2.7820   28.3750 C.ar   64  PHE64      -0.0042
     41  CD2        9.7820    1.5440   27.5990 C.ar   64  PHE64      -0.0042
     42  CE1       10.8650    3.5680   29.1500 C.ar   64  PHE64      -0.0003
     43  CE2        8.9560    2.3390   28.3640 C.ar   64  PHE64      -0.0003
     44  CZ         9.4980    3.3520   29.1390 C.ar   64  PHE64      -0.0000
     45  N          7.9090   -3.7110   33.9470 N.3    98  TYR98      -0.1227
     46  CA         6.9150   -2.7500   33.4770 C.3    98  TYR98       0.1736
     47  C          6.1780   -3.2740   32.2350 C.2    98  TYR98       0.2595
     48  O          4.9500   -3.3990   32.2460 O.2    98  TYR98      -0.2718
     49  CB         7.5640   -1.3890   33.1690 C.3    98  TYR98       0.0548
     50  CG         7.7840   -0.5490   34.4210 C.ar   98  TYR98      -0.0200
     51  CD1        8.8130   -0.8250   35.3140 C.ar   98  TYR98      -0.0009
     52  CD2        6.9450    0.5090   34.7250 C.ar   98  TYR98      -0.0009
     53  CE1        9.0020   -0.0710   36.4650 C.ar   98  TYR98       0.0417
     54  CE2        7.1210    1.2580   35.8730 C.ar   98  TYR98       0.0417
     55  CZ         8.1420    0.9620   36.7440 C.ar   98  TYR98       0.1957
     56  OH         8.3390    1.7260   37.8750 O.3    98  TYR98      -0.2866
     57  N          6.9290   -3.5760   31.1820 N.am   99  GLN99      -0.1979
     58  CA         6.3200   -4.0390   29.9120 C.3    99  GLN99       0.1601
     59  C          5.8060   -5.4810   29.9620 C.2    99  GLN99       0.2287
     60  O          4.8010   -5.7980   29.3220 O.2    99  GLN99      -0.2864
     61  CB         7.2960   -3.8450   28.7340 C.3    99  GLN99       0.0394
     62  CG         7.3540   -2.4320   28.1870 C.3    99  GLN99       0.0908
     63  CD         7.8550   -1.4000   29.1970 C.2    99  GLN99       0.2608
     64  OE1        8.9470   -1.5510   29.7470 O.2    99  GLN99      -0.2717
     65  NE2        7.0370   -0.3820   29.4940 N.am   99  GLN99      -0.0878
     66  N          2.3440   -4.5050   31.7010 N.3   103  LYS103     -0.1245
     67  CA         1.5420   -4.3310   30.4890 C.3   103  LYS103      0.1561
     68  C          1.1370   -5.6580   29.8350 C.2   103  LYS103      0.2260
     69  O          0.3010   -5.6560   28.9140 O.2   103  LYS103     -0.2867
     70  CB         2.2900   -3.4650   29.4860 C.3   103  LYS103      0.0271
     71  CG         2.6100   -2.0430   29.9630 C.3   103  LYS103      0.0035
     72  CD         1.4000   -1.1410   29.9030 C.3   103  LYS103      0.0206
     73  CE         1.6810    0.2520   30.4470 C.3   103  LYS103      0.1093
     74  NZ         2.3740    1.1840   29.5180 N.3   103  LYS103     -0.1314
     75  N          1.4350    8.2540   40.0170 N.3   147  GLU147     -0.1245
     76  CA         1.5340    7.0070   39.2510 C.3   147  GLU147      0.1567
     77  C          0.3730    6.0950   39.6290 C.2   147  GLU147      0.2260
     78  O         -0.3420    6.3520   40.5990 O.2   147  GLU147     -0.2867
     79  CB         2.8860    6.3130   39.4890 C.3   147  GLU147      0.0388
     80  CG         4.1120    7.0560   38.9390 C.3   147  GLU147      0.1160
     81  CD         4.1140    7.1830   37.4240 C.2   147  GLU147      0.3649
     82  OE1        3.4540    6.3630   36.7440 O.co2 147  GLU147     -0.2457
     83  OE2        4.7600    8.1190   36.9020 O.co2 147  GLU147     -0.2457
     84  N         -1.4100   -0.5220   38.4790 N.3   151  PHE151     -0.1241
     85  CA        -0.2990   -0.9040   37.6240 C.3   151  PHE151      0.1605
     86  C          0.9610   -1.1900   38.4540 C.2   151  PHE151      0.2264
     87  O          1.5830   -2.2570   38.3130 O.2   151  PHE151     -0.2867
     88  CB        -0.0340    0.2140   36.6450 C.3   151  PHE151      0.0534
     89  CG         1.1130   -0.0410   35.7360 C.ar  151  PHE151     -0.0203
     90  CD1        1.0060   -0.9410   34.6950 C.ar  151  PHE151     -0.0042
     91  CD2        2.2930    0.6340   35.9020 C.ar  151  PHE151     -0.0042
     92  CE1        2.0770   -1.1820   33.8530 C.ar  151  PHE151     -0.0003
     93  CE2        3.3590    0.4200   35.0460 C.ar  151  PHE151     -0.0003
     94  CZ         3.2570   -0.5020   34.0260 C.ar  151  PHE151     -0.0000
@<TRIPOS>BOND
     1    25    26    1
     2    26    27    1
     3    26    29    1
     4    27    28    2
     5    34    35    1
     6     9    10    1
     7    36    37    2
     8    36    35    1
     9    29    30    1
    10    30    31    1
    11    16    14    1
    12    35    38    1
    13    14    15    1
    14    14    13    1
    15    10    13    1
    16    10    11    1
    17    31    33   ar
    18    31    32   ar
    19    38    39    1
    20    11    12    2
    21    11    17   am
    22    39    41   ar
    23    39    40   ar
    24    41    43   ar
    25    17    18    1
    26    62    61    1
    27    62    63    1
    28    43    44   ar
    29    40    42   ar
    30    19    18    1
    31    19    20    2
    32    61    58    1
    33    18    21    1
    34    69    68    2
    35    44    42   ar
    36    63    65   am
    37    63    64    2
    38    60    59    2
    39    70    71    1
    40    70    67    1
    41    74    73    1
    42    21    22    1
    43    68    67    1
    44    72    71    1
    45    72    73    1
    46    58    59    1
    47    58    57    1
    48    22    23    1
    49    22    24    1
    50    67    66    1
    51    57    47   am
    52    47    48    2
    53    47    46    1
    54    49    46    1
    55    49    50    1
    56    46    45    1
    57    92    94   ar
    58    92    90   ar
    59    94    93   ar
    60    50    52   ar
    61    50    51   ar
    62    90    89   ar
    63    52    54   ar
    64    93    91   ar
    65    51    53   ar
    66    89    91   ar
    67    89    88    1
    68    54    55   ar
    69    53    55   ar
    70    88    85    1
    71    55    56    1
    72    82    81   ar
    73    83    81   ar
    74    81    80    1
    75    85    86    1
    76    85    84    1
    77     8     6   ar
    78    87    86    2
    79     7     6   ar
    80     6     5    1
    81    80    79    1
    82    76    79    1
    83    76    77    1
    84    76    75    1
    85    77    78    2
    86     5     2    1
    87     1     2    1
    88     2     3    1
    89     3     4    2
