@<TRIPOS>MOLECULE
tmp/5h56B01.pdb
 166 156 0 0 0
SMALL
GASTEIGER

@<TRIPOS>ATOM
      1  N          8.5600    3.2160   40.6410 N.3     9  ASP9       -0.1225
      2  CA         8.6460    4.6740   40.7990 C.3     9  ASP9        0.1805
      3  C          8.5440    5.0290   42.2750 C.2     9  ASP9        0.2598
      4  O          7.6870    4.4630   42.9650 O.2     9  ASP9       -0.2718
      5  CB         7.4960    5.3490   40.0800 C.3     9  ASP9        0.1424
      6  CG         7.4050    4.9450   38.6530 C.2     9  ASP9        0.3668
      7  OD1        6.8710    3.8480   38.3890 O.co2   9  ASP9       -0.2456
      8  OD2        7.8980    5.6890   37.8010 O.co2   9  ASP9       -0.2456
      9  N          9.4030    5.9440   42.7570 N.am   10  GLY10      -0.1957
     10  CA         9.3880    6.3680   44.1560 C.3    10  GLY10       0.1869
     11  C         10.1050    5.4690   45.1460 C.2    10  GLY10       0.2309
     12  O         10.0700    5.6950   46.3550 O.2    10  GLY10      -0.2863
     13  N         15.5310    5.1890   43.6390 N.3    13  LYS13      -0.1231
     14  CA        16.6200    4.8660   42.6940 C.3    13  LYS13       0.1693
     15  C         17.5020    6.0410   42.3210 C.2    13  LYS13       0.2592
     16  O         18.7280    5.9540   42.3590 O.2    13  LYS13      -0.2718
     17  CB        16.0420    4.2860   41.4170 C.3    13  LYS13       0.0285
     18  CG        15.3370    2.9650   41.6470 C.3    13  LYS13       0.0035
     19  CD        14.7800    2.3800   40.3550 C.3    13  LYS13       0.0206
     20  CE        13.8530    3.3010   39.5970 C.3    13  LYS13       0.1093
     21  NZ        12.6500    3.8140   40.3160 N.3    13  LYS13      -0.1314
     22  N         16.8790    7.1520   41.9100 N.am   14  THR14      -0.1953
     23  CA        17.6490    8.2830   41.4480 C.3    14  THR14       0.1897
     24  C         18.4610    8.8330   42.6240 C.2    14  THR14       0.2313
     25  O         19.6250    9.1550   42.4600 O.2    14  THR14      -0.2863
     26  CB        16.7220    9.3210   40.8040 C.3    14  THR14       0.1794
     27  OG1       16.0960    8.6990   39.6610 O.3    14  THR14      -0.2208
     28  CG2       17.4430   10.5160   40.3500 C.3    14  THR14       0.0378
     29  N         18.1130    5.3470   32.4150 N.3    36  GLU36      -0.1231
     30  CA        17.3360    4.6920   31.3780 C.3    36  GLU36       0.1684
     31  C         15.8340    4.9500   31.5490 C.2    36  GLU36       0.2434
     32  O         15.3240    4.8380   32.6570 O.2    36  GLU36      -0.2733
     33  CB        17.5480    3.1870   31.4680 C.3    36  GLU36       0.0402
     34  CG        18.9160    2.7230   30.9870 C.3    36  GLU36       0.1161
     35  CD        18.7610    1.5620   30.0110 C.2    36  GLU36       0.3649
     36  OE1       18.4890    0.4290   30.4650 O.co2  36  GLU36      -0.2457
     37  OE2       18.8480    1.8020   28.7970 O.co2  36  GLU36      -0.2457
     38  N         15.1180    5.3280   30.4870 N.am   37  PRO37      -0.2729
     39  CA        15.6570    5.7290   29.1940 C.3    37  PRO37       0.1401
     40  C         16.4150    7.0500   29.2730 C.2    37  PRO37       0.2269
     41  O         16.2400    7.7970   30.2510 O.2    37  PRO37      -0.2865
     42  CB        14.3960    5.8970   28.3440 C.3    37  PRO37       0.0296
     43  CG        13.3980    6.3700   29.3240 C.3    37  PRO37       0.0237
     44  CD        13.6900    5.6370   30.6080 C.3    37  PRO37       0.0939
     45  N         13.4430    9.4090   25.4400 N.3    47  ARG47      -0.1245
     46  CA        12.8650    9.6000   26.7680 C.3    47  ARG47       0.1563
     47  C         11.7280   10.6290   26.7270 C.2    47  ARG47       0.2260
     48  O         10.6420   10.3730   27.2670 O.2    47  ARG47      -0.2867
     49  CB        13.9520   10.0350   27.7520 C.3    47  ARG47       0.0307
     50  CG        13.4800   10.3030   29.1760 C.3    47  ARG47       0.0489
     51  CD        14.5980   10.7810   30.0750 C.3    47  ARG47       0.2205
     52  NE        14.0420   11.0150   31.4190 N.pl3  47  ARG47      -0.0865
     53  CZ        13.9940   10.1020   32.3930 C.cat  47  ARG47       0.5346
     54  NH1       14.4800    8.8600   32.2370 N.pl3  47  ARG47       0.1354
     55  NH2       13.4480   10.4420   33.5410 N.pl3  47  ARG47       0.1354
     56  N          7.8310    9.9870   27.6850 N.3    51  LEU51      -0.1245
     57  CA         7.2280   10.6580   28.8350 C.3    51  LEU51       0.1561
     58  C          6.1500   11.6490   28.4410 C.2    51  LEU51       0.2260
     59  O          5.3710   12.0530   29.3030 O.2    51  LEU51      -0.2867
     60  CB         8.3040   11.3340   29.6920 C.3    51  LEU51       0.0270
     61  CG         9.2380   10.3910   30.4650 C.3    51  LEU51       0.0019
     62  CD1       10.2920   11.2030   31.1950 C.3    51  LEU51       0.0001
     63  CD2        8.5150    9.4920   31.4570 C.3    51  LEU51       0.0001
     64  N         12.0290    1.9890   24.4930 N.3    64  PHE64      -0.1241
     65  CA        12.8420    1.6960   25.6740 C.3    64  PHE64       0.1605
     66  C         14.0990    0.9280   25.2370 C.2    64  PHE64       0.2264
     67  O         15.2230    1.2200   25.6740 O.2    64  PHE64      -0.2867
     68  CB        12.0850    0.9040   26.7470 C.3    64  PHE64       0.0534
     69  CG        11.1570    1.7560   27.5870 C.ar   64  PHE64      -0.0203
     70  CD1       11.6830    2.7820   28.3750 C.ar   64  PHE64      -0.0042
     71  CD2        9.7820    1.5440   27.5990 C.ar   64  PHE64      -0.0042
     72  CE1       10.8650    3.5680   29.1500 C.ar   64  PHE64      -0.0003
     73  CE2        8.9560    2.3390   28.3640 C.ar   64  PHE64      -0.0003
     74  CZ         9.4980    3.3520   29.1390 C.ar   64  PHE64      -0.0000
     75  N         18.1800    1.9410   25.1800 N.3    68  ARG68      -0.1245
     76  CA        19.1580    1.0200   25.7990 C.3    68  ARG68       0.1563
     77  C         20.2830    0.6480   24.8490 C.2    68  ARG68       0.2260
     78  O         21.4560    0.6960   25.2220 O.2    68  ARG68      -0.2867
     79  CB        18.4650   -0.2410   26.3170 C.3    68  ARG68       0.0307
     80  CG        19.4250   -1.2190   26.9810 C.3    68  ARG68       0.0489
     81  CD        18.7070   -2.1990   27.8600 C.3    68  ARG68       0.2205
     82  NE        17.8840   -1.5200   28.8470 N.pl3  68  ARG68      -0.0865
     83  CZ        16.5920   -1.7410   29.0820 C.cat  68  ARG68       0.5346
     84  NH1       15.8940   -2.6690   28.4200 N.pl3  68  ARG68       0.1354
     85  NH2       15.9700   -0.9840   29.9970 N.pl3  68  ARG68       0.1354
     86  N         20.6210    3.9020   36.5570 N.3    89  ASP89      -0.1225
     87  CA        19.3460    4.2030   37.1660 C.3    89  ASP89       0.1805
     88  C         18.3280    3.6020   36.1990 C.2    89  ASP89       0.2597
     89  O         17.9360    4.2390   35.2300 O.2    89  ASP89      -0.2718
     90  CB        19.2530    5.7300   37.3440 C.3    89  ASP89       0.1424
     91  CG        17.9460    6.2120   37.9580 C.2    89  ASP89       0.3668
     92  OD1       17.0290    5.4000   38.2750 O.co2  89  ASP89      -0.2456
     93  OD2       17.8580    7.4690   38.0660 O.co2  89  ASP89      -0.2456
     94  N         17.9550    2.3540   36.5030 N.am   90  ARG90      -0.1979
     95  CA        17.1500    1.4230   35.7160 C.3    90  ARG90       0.1597
     96  C         17.9770    0.6840   34.6700 C.2    90  ARG90       0.2287
     97  O         18.9040    1.2400   34.0850 O.2    90  ARG90      -0.2864
     98  CB        15.9140    2.0630   35.0670 C.3    90  ARG90       0.0334
     99  CG        14.9330    2.6410   36.0570 C.3    90  ARG90       0.0492
    100  CD        13.6540    3.0200   35.3120 C.3    90  ARG90       0.2205
    101  NE        12.6000    3.5510   36.1930 N.pl3  90  ARG90      -0.0865
    102  CZ        11.7590    2.8260   36.9290 C.cat  90  ARG90       0.5346
    103  NH1       11.7900    1.5020   36.9560 N.pl3  90  ARG90       0.1354
    104  NH2       10.8490    3.4410   37.6690 N.pl3  90  ARG90       0.1354
    105  N         13.7410   -3.4600   34.6380 N.3    94  SER94      -0.1202
    106  CA        12.6320   -2.5090   34.5470 C.3    94  SER94       0.2020
    107  C         11.7660   -2.8170   33.3340 C.2    94  SER94       0.2619
    108  O         10.5360   -2.7260   33.3990 O.2    94  SER94      -0.2717
    109  CB        13.1130   -1.0470   34.4590 C.3    94  SER94       0.2103
    110  OG        13.4480   -0.5650   35.7330 O.3    94  SER94      -0.2182
    111  N         12.3960   -3.1900   32.2310 N.am   95  THR95      -0.1952
    112  CA        11.6230   -3.5180   31.0380 C.3    95  THR95       0.1897
    113  C         10.7710   -4.7680   31.2550 C.2    95  THR95       0.2313
    114  O          9.5900   -4.8040   30.8940 O.2    95  THR95      -0.2863
    115  CB        12.5390   -3.6420   29.7990 C.3    95  THR95       0.1794
    116  OG1       13.4590   -2.5240   29.7770 O.3    95  THR95      -0.2208
    117  CG2       11.6770   -3.5940   28.5700 C.3    95  THR95       0.0378
    118  N          7.9090   -3.7110   33.9470 N.3    98  TYR98      -0.1227
    119  CA         6.9150   -2.7500   33.4770 C.3    98  TYR98       0.1736
    120  C          6.1780   -3.2740   32.2350 C.2    98  TYR98       0.2595
    121  O          4.9500   -3.3990   32.2460 O.2    98  TYR98      -0.2718
    122  CB         7.5640   -1.3890   33.1690 C.3    98  TYR98       0.0548
    123  CG         7.7840   -0.5490   34.4210 C.ar   98  TYR98      -0.0200
    124  CD1        8.8130   -0.8250   35.3140 C.ar   98  TYR98      -0.0009
    125  CD2        6.9450    0.5090   34.7250 C.ar   98  TYR98      -0.0009
    126  CE1        9.0020   -0.0710   36.4650 C.ar   98  TYR98       0.0417
    127  CE2        7.1210    1.2580   35.8730 C.ar   98  TYR98       0.0417
    128  CZ         8.1420    0.9620   36.7440 C.ar   98  TYR98       0.1957
    129  OH         8.3390    1.7260   37.8750 O.3    98  TYR98      -0.2866
    130  N          6.9290   -3.5760   31.1820 N.am   99  GLN99      -0.1979
    131  CA         6.3200   -4.0390   29.9120 C.3    99  GLN99       0.1601
    132  C          5.8060   -5.4810   29.9620 C.2    99  GLN99       0.2287
    133  O          4.8010   -5.7980   29.3220 O.2    99  GLN99      -0.2864
    134  CB         7.2960   -3.8450   28.7340 C.3    99  GLN99       0.0394
    135  CG         7.3540   -2.4320   28.1870 C.3    99  GLN99       0.0908
    136  CD         7.8550   -1.4000   29.1970 C.2    99  GLN99       0.2608
    137  OE1        8.9470   -1.5510   29.7470 O.2    99  GLN99      -0.2717
    138  NE2        7.0370   -0.3820   29.4940 N.am   99  GLN99      -0.0878
    139  N          5.9520   10.3190   46.1560 N.3   140  LEU140     -0.1245
    140  CA         5.7890   10.9940   44.8670 C.3   140  LEU140      0.1561
    141  C          4.7720   12.1200   44.9570 C.2   140  LEU140      0.2260
    142  O          4.9900   13.1680   44.3580 O.2   140  LEU140     -0.2867
    143  CB         5.3800   10.0060   43.7760 C.3   140  LEU140      0.0270
    144  CG         6.3990    8.9040   43.4430 C.3   140  LEU140      0.0019
    145  CD1        5.7260    7.8290   42.6110 C.3   140  LEU140      0.0001
    146  CD2        7.6060    9.4370   42.7150 C.3   140  LEU140      0.0001
    147  N          4.2200   14.2230   41.7090 N.3   145  ARG145     -0.1245
    148  CA         4.3080   13.1320   40.7270 C.3   145  ARG145      0.1563
    149  C          3.2170   12.1470   41.1100 C.2   145  ARG145      0.2260
    150  O          3.0340   11.8570   42.2990 O.2   145  ARG145     -0.2867
    151  CB         5.6800   12.4170   40.7770 C.3   145  ARG145      0.0307
    152  CG         6.8640   13.2000   40.2100 C.3   145  ARG145      0.0489
    153  CD         8.2060   12.8320   40.8610 C.3   145  ARG145      0.2205
    154  NE         8.7300   11.5000   40.5030 N.pl3 145  ARG145     -0.0865
    155  CZ         9.8350   10.9300   41.0230 C.cat 145  ARG145      0.5346
    156  NH1       10.2070    9.6980   40.6260 N.pl3 145  ARG145      0.1354
    157  NH2       10.5620   11.5570   41.9630 N.pl3 145  ARG145      0.1354
    158  N          1.4350    8.2540   40.0170 N.3   147  GLU147     -0.1245
    159  CA         1.5340    7.0070   39.2510 C.3   147  GLU147      0.1567
    160  C          0.3730    6.0950   39.6290 C.2   147  GLU147      0.2260
    161  O         -0.3420    6.3520   40.5990 O.2   147  GLU147     -0.2867
    162  CB         2.8860    6.3130   39.4890 C.3   147  GLU147      0.0388
    163  CG         4.1120    7.0560   38.9390 C.3   147  GLU147      0.1160
    164  CD         4.1140    7.1830   37.4240 C.2   147  GLU147      0.3649
    165  OE1        3.4540    6.3630   36.7440 O.co2 147  GLU147     -0.2457
    166  OE2        4.7600    8.1190   36.9020 O.co2 147  GLU147     -0.2457
@<TRIPOS>BOND
     1    64    65    1
     2    77    78    2
     3    77    76    1
     4    75    76    1
     5    66    65    1
     6    66    67    2
     7    45    46    1
     8    65    68    1
     9    76    79    1
    10    79    80    1
    11    47    46    1
    12    47    48    2
    13    68    69    1
    14    46    49    1
    15    80    81    1
    16    69    71   ar
    17    69    70   ar
    18    71    73   ar
    19    56    57    1
    20    49    50    1
    21    81    82    1
    22   135   134    1
    23   135   136    1
    24    42    39    1
    25    42    43    1
    26    73    74   ar
    27    70    72   ar
    28    84    83    1
    29    58    57    1
    30    58    59    2
    31   117   115    1
    32   134   131    1
    33    37    35   ar
    34    57    60    1
    35    82    83    2
    36    83    85    1
    37    74    72   ar
    38    50    51    1
    39    39    40    1
    40    39    38    1
    41   136   138   am
    42   136   137    2
    43    40    41    2
    44   133   132    2
    45    43    44    1
    46    60    61    1
    47   116   115    1
    48   115   112    1
    49   131   132    1
    50   131   130    1
    51    35    36   ar
    52    35    34    1
    53    51    52    1
    54    61    62    1
    55    61    63    1
    56    38    44    1
    57    38    31   am
    58   114   113    2
    59    34    33    1
    60   112   113    1
    61   112   111    1
    62   130   120   am
    63    30    33    1
    64    30    31    1
    65    30    29    1
    66    52    53    2
    67    31    32    2
    68   111   107   am
    69   120   121    2
    70   120   119    1
    71    54    53    1
    72    53    55    1
    73   122   119    1
    74   122   123    1
    75   107   108    2
    76   107   106    1
    77   119   118    1
    78    97    96    2
    79   123   125   ar
    80   123   124   ar
    81   109   106    1
    82   109   110    1
    83   106   105    1
    84    96    95    1
    85   125   127   ar
    86    98    95    1
    87    98    99    1
    88    89    88    2
    89   100    99    1
    90   100   101    1
    91   124   126   ar
    92    95    94    1
    93   127   128   ar
    94   101   102    2
    95    88    94   am
    96    88    87    1
    97   126   128   ar
    98    86    87    1
    99   128   129    1
   100   165   164   ar
   101   166   164   ar
   102   102   103    1
   103   102   104    1
   104    87    90    1
   105    90    91    1
   106   164   163    1
   107     8     6   ar
   108    91    93   ar
   109    91    92   ar
   110     7     6   ar
   111     6     5    1
   112   163   162    1
   113   159   162    1
   114   159   160    1
   115   159   158    1
   116    20    21    1
   117    20    19    1
   118   160   161    2
   119    27    26    1
   120     5     2    1
   121   152   151    1
   122   152   153    1
   123    28    26    1
   124    19    18    1
   125   154   153    1
   126   154   155    2
   127   156   155    1
   128     1     2    1
   129   148   151    1
   130   148   149    1
   131   148   147    1
   132     2     3    1
   133    26    23    1
   134   155   157    1
   135   149   150    2
   136    17    18    1
   137    17    14    1
   138    23    22    1
   139    23    24    1
   140    22    15   am
   141     3     9   am
   142     3     4    2
   143    15    16    2
   144    15    14    1
   145    25    24    2
   146   145   144    1
   147    14    13    1
   148   146   144    1
   149     9    10    1
   150   144   143    1
   151   143   140    1
   152    10    11    1
   153   142   141    2
   154   140   141    1
   155   140   139    1
   156    11    12    2
