@<TRIPOS>MOLECULE
tmp/5h56B00.pdb
 152 145 0 0 0
SMALL
GASTEIGER

@<TRIPOS>ATOM
      1  N          8.5600    3.2160   40.6410 N.3     9  ASP9       -0.1225
      2  CA         8.6460    4.6740   40.7990 C.3     9  ASP9        0.1805
      3  C          8.5440    5.0290   42.2750 C.2     9  ASP9        0.2598
      4  O          7.6870    4.4630   42.9650 O.2     9  ASP9       -0.2718
      5  CB         7.4960    5.3490   40.0800 C.3     9  ASP9        0.1424
      6  CG         7.4050    4.9450   38.6530 C.2     9  ASP9        0.3668
      7  OD1        6.8710    3.8480   38.3890 O.co2   9  ASP9       -0.2456
      8  OD2        7.8980    5.6890   37.8010 O.co2   9  ASP9       -0.2456
      9  N          9.4030    5.9440   42.7570 N.am   10  GLY10      -0.1942
     10  CA         9.3880    6.3680   44.1560 C.3    10  GLY10       0.2014
     11  C         10.1050    5.4690   45.1460 C.2    10  GLY10       0.2640
     12  O         10.0700    5.6950   46.3550 O.2    10  GLY10      -0.2714
     13  N         10.8270    4.4890   44.6440 N.am   11  SER11      -0.1935
     14  CA        11.5830    3.5990   45.5160 C.3    11  SER11       0.2055
     15  C         12.9220    4.1610   45.9530 C.2    11  SER11       0.2644
     16  O         13.5660    3.5720   46.8140 O.2    11  SER11      -0.2714
     17  CB        11.7540    2.2140   44.8620 C.3    11  SER11       0.2130
     18  OG        12.4390    2.3090   43.6360 O.3    11  SER11      -0.2179
     19  N         13.3740    5.2730   45.3710 N.am   12  GLY12      -0.1939
     20  CA        14.6250    5.9010   45.7750 C.3    12  GLY12       0.2014
     21  C         15.7910    5.6680   44.8500 C.2    12  GLY12       0.2639
     22  O         16.9310    5.9530   45.2180 O.2    12  GLY12      -0.2714
     23  N         15.5310    5.1890   43.6390 N.am   13  LYS13      -0.1963
     24  CA        16.6200    4.8660   42.6940 C.3    13  LYS13       0.1728
     25  C         17.5020    6.0410   42.3210 C.2    13  LYS13       0.2617
     26  O         18.7280    5.9540   42.3590 O.2    13  LYS13      -0.2715
     27  CB        16.0420    4.2860   41.4170 C.3    13  LYS13       0.0311
     28  CG        15.3370    2.9650   41.6470 C.3    13  LYS13       0.0038
     29  CD        14.7800    2.3800   40.3550 C.3    13  LYS13       0.0206
     30  CE        13.8530    3.3010   39.5970 C.3    13  LYS13       0.1093
     31  NZ        12.6500    3.8140   40.3160 N.3    13  LYS13      -0.1314
     32  N         16.8790    7.1520   41.9100 N.am   14  THR14      -0.1937
     33  CA        17.6490    8.2830   41.4480 C.3    14  THR14       0.2028
     34  C         18.4610    8.8330   42.6240 C.2    14  THR14       0.2643
     35  O         19.6250    9.1550   42.4600 O.2    14  THR14      -0.2714
     36  CB        16.7220    9.3210   40.8040 C.3    14  THR14       0.1808
     37  OG1       16.0960    8.6990   39.6610 O.3    14  THR14      -0.2208
     38  CG2       17.4430   10.5160   40.3500 C.3    14  THR14       0.0379
     39  N         17.8380    8.8780   43.8050 N.am   15  THR15      -0.1936
     40  CA        18.4990    9.3580   45.0170 C.3    15  THR15       0.2028
     41  C         19.7150    8.4970   45.3510 C.2    15  THR15       0.2642
     42  O         20.8190    9.0160   45.5870 O.2    15  THR15      -0.2714
     43  CB        17.5350    9.3870   46.2100 C.3    15  THR15       0.1808
     44  OG1       16.4670   10.3140   45.9360 O.3    15  THR15      -0.2208
     45  CG2       18.2590    9.8190   47.4900 C.3    15  THR15       0.0379
     46  N         19.5090    7.1890   45.3920 N.am   16  GLN16      -0.1976
     47  CA        20.5640    6.2970   45.8250 C.3    16  GLN16       0.1601
     48  C         21.6640    6.1100   44.7760 C.2    16  GLN16       0.2287
     49  O         22.8280    5.9640   45.1410 O.2    16  GLN16      -0.2864
     50  CB        19.9890    4.9330   46.2260 C.3    16  GLN16       0.0394
     51  CG        19.0760    5.0370   47.4340 C.3    16  GLN16       0.0908
     52  CD        19.7820    5.4180   48.7230 C.2    16  GLN16       0.2608
     53  OE1       20.9590    5.2410   48.8600 O.2    16  GLN16      -0.2717
     54  NE2       19.0200    5.8690   49.6890 N.am   16  GLN16      -0.0878
     55  N         20.6210    3.9020   36.5570 N.3    89  ASP89      -0.1225
     56  CA        19.3460    4.2030   37.1660 C.3    89  ASP89       0.1805
     57  C         18.3280    3.6020   36.1990 C.2    89  ASP89       0.2597
     58  O         17.9360    4.2390   35.2300 O.2    89  ASP89      -0.2718
     59  CB        19.2530    5.7300   37.3440 C.3    89  ASP89       0.1424
     60  CG        17.9460    6.2120   37.9580 C.2    89  ASP89       0.3668
     61  OD1       17.0290    5.4000   38.2750 O.co2  89  ASP89      -0.2456
     62  OD2       17.8580    7.4690   38.0660 O.co2  89  ASP89      -0.2456
     63  N         17.9550    2.3540   36.5030 N.am   90  ARG90      -0.1979
     64  CA        17.1500    1.4230   35.7160 C.3    90  ARG90       0.1597
     65  C         17.9770    0.6840   34.6700 C.2    90  ARG90       0.2287
     66  O         18.9040    1.2400   34.0850 O.2    90  ARG90      -0.2864
     67  CB        15.9140    2.0630   35.0670 C.3    90  ARG90       0.0334
     68  CG        14.9330    2.6410   36.0570 C.3    90  ARG90       0.0492
     69  CD        13.6540    3.0200   35.3120 C.3    90  ARG90       0.2205
     70  NE        12.6000    3.5510   36.1930 N.pl3  90  ARG90      -0.0865
     71  CZ        11.7590    2.8260   36.9290 C.cat  90  ARG90       0.5346
     72  NH1       11.7900    1.5020   36.9560 N.pl3  90  ARG90       0.1354
     73  NH2       10.8490    3.4410   37.6690 N.pl3  90  ARG90       0.1354
     74  N          5.5270    9.3400   48.7300 N.3   139  ARG139     -0.1231
     75  CA         6.7380   10.0930   48.4540 C.3   139  ARG139      0.1694
     76  C          6.6000   10.9010   47.1660 C.2   139  ARG139      0.2591
     77  O          7.1540   11.9760   47.0550 O.2   139  ARG139     -0.2718
     78  CB         7.9520    9.1830   48.2860 C.3   139  ARG139      0.0321
     79  CG         8.3450    8.4390   49.5370 C.3   139  ARG139      0.0489
     80  CD         9.4470    7.4860   49.1950 C.3   139  ARG139      0.2205
     81  NE         9.9640    6.7790   50.3520 N.pl3 139  ARG139     -0.0865
     82  CZ        10.9840    5.9300   50.2900 C.cat 139  ARG139      0.5346
     83  NH1       11.5510    5.6240   49.1160 N.pl3 139  ARG139      0.1354
     84  NH2       11.3670    5.3140   51.3930 N.pl3 139  ARG139      0.1354
     85  N          5.9520   10.3190   46.1560 N.am  140  LEU140     -0.1980
     86  CA         5.7890   10.9940   44.8670 C.3   140  LEU140      0.1596
     87  C          4.7720   12.1200   44.9570 C.2   140  LEU140      0.2287
     88  O          4.9900   13.1680   44.3580 O.2   140  LEU140     -0.2864
     89  CB         5.3800   10.0060   43.7760 C.3   140  LEU140      0.0297
     90  CG         6.3990    8.9040   43.4430 C.3   140  LEU140      0.0022
     91  CD1        5.7260    7.8290   42.6110 C.3   140  LEU140      0.0001
     92  CD2        7.6060    9.4370   42.7150 C.3   140  LEU140      0.0001
     93  N          6.1420   15.4290   45.7800 N.3   143  LYS143     -0.1245
     94  CA         6.7620   16.1260   44.6550 C.3   143  LYS143      0.1561
     95  C          5.8180   16.3440   43.4570 C.2   143  LYS143      0.2260
     96  O          6.2860   16.6080   42.3560 O.2   143  LYS143     -0.2867
     97  CB         8.0140   15.3620   44.2040 C.3   143  LYS143      0.0271
     98  CG         9.0970   15.2250   45.2680 C.3   143  LYS143      0.0035
     99  CD         9.7640   16.5550   45.6250 C.3   143  LYS143      0.0206
    100  CE        10.6530   16.4470   46.8640 C.3   143  LYS143      0.1093
    101  NZ        11.9470   15.7280   46.6280 N.3   143  LYS143     -0.1314
    102  N          4.2200   14.2230   41.7090 N.3   145  ARG145     -0.1245
    103  CA         4.3080   13.1320   40.7270 C.3   145  ARG145      0.1563
    104  C          3.2170   12.1470   41.1100 C.2   145  ARG145      0.2260
    105  O          3.0340   11.8570   42.2990 O.2   145  ARG145     -0.2867
    106  CB         5.6800   12.4170   40.7770 C.3   145  ARG145      0.0307
    107  CG         6.8640   13.2000   40.2100 C.3   145  ARG145      0.0489
    108  CD         8.2060   12.8320   40.8610 C.3   145  ARG145      0.2205
    109  NE         8.7300   11.5000   40.5030 N.pl3 145  ARG145     -0.0865
    110  CZ         9.8350   10.9300   41.0230 C.cat 145  ARG145      0.5346
    111  NH1       10.2070    9.6980   40.6260 N.pl3 145  ARG145      0.1354
    112  NH2       10.5620   11.5570   41.9630 N.pl3 145  ARG145      0.1354
    113  N         13.7620   -0.7840   50.9730 N.3   174  ALA174     -0.1231
    114  CA        14.0440    0.6200   50.7650 C.3   174  ALA174      0.1694
    115  C         13.0090    1.5530   51.3840 C.2   174  ALA174      0.2593
    116  O         13.0100    2.7350   51.0910 O.2   174  ALA174     -0.2718
    117  CB        14.2020    0.8840   49.2650 C.3   174  ALA174      0.0304
    118  N         12.1750    1.0450   52.2950 N.am  175  SER175     -0.1938
    119  CA        11.1260    1.8700   52.8890 C.3   175  SER175      0.2055
    120  C         11.6180    2.7680   54.0290 C.2   175  SER175      0.2644
    121  O         10.9060    3.6950   54.4070 O.2   175  SER175     -0.2714
    122  CB         9.9570    1.0120   53.3940 C.3   175  SER175      0.2130
    123  OG        10.3470    0.2840   54.5260 O.3   175  SER175     -0.2179
    124  N         12.7880    2.4740   54.5770 N.am  176  GLY176     -0.1939
    125  CA        13.3760    3.2680   55.6500 C.3   176  GLY176      0.2014
    126  C         13.9620    4.5860   55.1860 C.2   176  GLY176      0.2639
    127  O         13.7830    4.9900   54.0410 O.2   176  GLY176     -0.2714
    128  N         14.7040    5.2330   56.0830 N.am  177  GLU177     -0.1963
    129  CA        15.2900    6.5350   55.8130 C.3   177  GLU177      0.1733
    130  C         16.4470    6.4080   54.8290 C.2   177  GLU177      0.2616
    131  O         17.1250    5.3840   54.7670 O.2   177  GLU177     -0.2715
    132  CB        15.7480    7.2240   57.1070 C.3   177  GLU177      0.0429
    133  CG        14.5880    7.5680   58.0400 C.3   177  GLU177      0.1163
    134  CD        14.9960    8.4820   59.1680 C.2   177  GLU177      0.3649
    135  OE1       14.9510    9.7080   58.9810 O.co2 177  GLU177     -0.2457
    136  OE2       15.4010    7.9830   60.2120 O.co2 177  GLU177     -0.2457
    137  N         16.6570    7.4780   54.0770 N.am  178  GLU178     -0.1977
    138  CA        17.6480    7.5210   52.9900 C.3   178  GLU178      0.1602
    139  C         19.0510    7.0430   53.4020 C.2   178  GLU178      0.2287
    140  O         19.6810    6.2520   52.7010 O.2   178  GLU178     -0.2864
    141  CB        17.6690    8.9750   52.4870 C.3   178  GLU178      0.0415
    142  CG        18.6380    9.3030   51.4260 C.3   178  GLU178      0.1163
    143  CD        18.5160   10.7410   50.9340 C.2   178  GLU178      0.3649
    144  OE1       17.3770   11.2520   50.7850 O.co2 178  GLU178     -0.2457
    145  OE2       19.5810   11.3210   50.6550 O.co2 178  GLU178     -0.2457
    146  N         18.9640    3.2450   54.0310 N.3   181  VAL181     -0.1245
    147  CA        18.8730    2.5090   52.7860 C.3   181  VAL181      0.1561
    148  C         20.2570    2.4790   52.1160 C.2   181  VAL181      0.2260
    149  O         20.6810    1.4330   51.5930 O.2   181  VAL181     -0.2867
    150  CB        17.7850    3.0940   51.8520 C.3   181  VAL181      0.0252
    151  CG1       17.8250    2.4390   50.4580 C.3   181  VAL181      0.0019
    152  CG2       16.4040    2.9420   52.4920 C.3   181  VAL181      0.0019
@<TRIPOS>BOND
     1    66    65    2
     2    65    64    1
     3    67    64    1
     4    67    68    1
     5    58    57    2
     6    69    68    1
     7    69    70    1
     8    64    63    1
     9    70    71    2
    10    57    63   am
    11    57    56    1
    12    55    56    1
    13    71    72    1
    14    71    73    1
    15    56    59    1
    16    59    60    1
    17     8     6   ar
    18    60    62   ar
    19    60    61   ar
    20     7     6   ar
    21     6     5    1
    22    30    31    1
    23    30    29    1
    24    37    36    1
    25     5     2    1
    26   107   106    1
    27   107   108    1
    28    38    36    1
    29    29    28    1
    30   109   108    1
    31   109   110    2
    32   111   110    1
    33     1     2    1
    34   103   106    1
    35   103   104    1
    36   103   102    1
    37     2     3    1
    38    36    33    1
    39   110   112    1
    40   104   105    2
    41    27    28    1
    42    27    24    1
    43    33    32    1
    44    33    34    1
    45    32    25   am
    46     3     9   am
    47     3     4    2
    48    25    26    2
    49    25    24    1
    50    96    95    2
    51    35    34    2
    52    91    90    1
    53    34    39   am
    54    24    23    1
    55    92    90    1
    56     9    10    1
    57    90    89    1
    58    95    94    1
    59    18    17    1
    60    23    21   am
    61    89    86    1
    62    39    40    1
    63    10    11    1
    64    97    94    1
    65    97    98    1
    66    88    87    2
    67    13    11   am
    68    13    14    1
    69    94    93    1
    70    48    49    2
    71    48    47    1
    72    21    22    2
    73    21    20    1
    74    17    14    1
    75    86    87    1
    76    86    85    1
    77    40    41    1
    78    40    43    1
    79    11    12    2
    80    98    99    1
    81    41    46   am
    82    41    42    2
    83    19    20    1
    84    19    15   am
    85    46    47    1
    86    14    15    1
    87    99   100    1
    88    47    50    1
    89    44    43    1
    90    15    16    2
    91    85    76   am
    92    43    45    1
    93    50    51    1
    94   101   100    1
    95    77    76    2
    96    76    75    1
    97    51    52    1
    98    78    75    1
    99    78    79    1
   100    75    74    1
   101    52    53    2
   102    52    54   am
   103    83    82    1
   104    80    79    1
   105    80    81    1
   106   117   114    1
   107    82    81    2
   108    82    84    1
   109   151   150    1
   110   145   143   ar
   111   114   113    1
   112   114   115    1
   113   144   143   ar
   114   143   142    1
   115   116   115    2
   116   115   118   am
   117   142   141    1
   118   149   148    2
   119   150   152    1
   120   150   147    1
   121   148   147    1
   122   118   119    1
   123   141   138    1
   124   140   139    2
   125   147   146    1
   126   119   122    1
   127   119   120    1
   128   138   139    1
   129   138   137    1
   130   122   123    1
   131   120   121    2
   132   120   124   am
   133   127   126    2
   134   137   130   am
   135   124   125    1
   136   131   130    2
   137   130   129    1
   138   126   125    1
   139   126   128   am
   140   129   128    1
   141   129   132    1
   142   132   133    1
   143   133   134    1
   144   135   134   ar
   145   134   136   ar
