@<TRIPOS>MOLECULE
tmp/5h5bB00.pdb
 73 69 0 0 0
SMALL
GASTEIGER

@<TRIPOS>ATOM
      1  N        -39.4920  -12.3940   36.7950 N.3     9  ASP9       -0.1225
      2  CA       -39.3790  -13.0140   35.4740 C.3     9  ASP9        0.1805
      3  C        -39.6590  -11.9290   34.4370 C.2     9  ASP9        0.2598
      4  O        -40.5150  -11.0840   34.6660 O.2     9  ASP9       -0.2718
      5  CB       -40.3720  -14.1620   35.2610 C.3     9  ASP9        0.1424
      6  CG       -40.3710  -15.1780   36.3840 C.2     9  ASP9        0.3668
      7  OD1      -40.9100  -14.8480   37.4670 O.co2   9  ASP9       -0.2456
      8  OD2      -39.8760  -16.3110   36.1670 O.co2   9  ASP9       -0.2456
      9  N        -38.9260  -11.9470   33.3230 N.am   10  GLY10      -0.1942
     10  CA       -39.0250  -10.9010   32.2850 C.3    10  GLY10       0.2014
     11  C        -38.1780   -9.6350   32.4870 C.2    10  GLY10       0.2640
     12  O        -38.2550   -8.7010   31.6870 O.2    10  GLY10      -0.2714
     13  N        -37.3640   -9.5990   33.5430 N.am   11  SER11      -0.1935
     14  CA       -36.4720   -8.4650   33.7990 C.3    11  SER11       0.2055
     15  C        -35.1450   -8.5720   33.0390 C.2    11  SER11       0.2644
     16  O        -34.3460   -7.6370   33.0710 O.2    11  SER11      -0.2714
     17  CB       -36.1970   -8.3200   35.2920 C.3    11  SER11       0.2130
     18  OG       -35.5680   -9.4780   35.8140 O.3    11  SER11      -0.2179
     19  N        -34.9060   -9.7050   32.3860 N.am   12  GLY12      -0.1939
     20  CA       -33.7100   -9.9020   31.6020 C.3    12  GLY12       0.2014
     21  C        -32.4900  -10.2980   32.4020 C.2    12  GLY12       0.2639
     22  O        -31.3750   -9.9930   31.9810 O.2    12  GLY12      -0.2714
     23  N        -32.6930  -11.0020   33.5210 N.am   13  LYS13      -0.1963
     24  CA       -31.6050  -11.4060   34.4200 C.3    13  LYS13       0.1728
     25  C        -30.5630  -12.2560   33.7260 C.2    13  LYS13       0.2617
     26  O        -29.3650  -11.9660   33.8160 O.2    13  LYS13      -0.2715
     27  CB       -32.1290  -12.2220   35.6240 C.3    13  LYS13       0.0311
     28  CG       -32.8990  -11.4130   36.6550 C.3    13  LYS13       0.0038
     29  CD       -33.3050  -12.2350   37.8790 C.3    13  LYS13       0.0206
     30  CE       -34.1650  -13.4540   37.5440 C.3    13  LYS13       0.1093
     31  NZ       -35.3330  -13.1450   36.6690 N.3    13  LYS13      -0.1314
     32  N        -31.0280  -13.3220   33.0710 N.am   14  THR14      -0.1937
     33  CA       -30.1330  -14.3030   32.4450 C.3    14  THR14       0.2028
     34  C        -29.2810  -13.6830   31.3230 C.2    14  THR14       0.2642
     35  O        -28.0600  -13.8400   31.3100 O.2    14  THR14      -0.2714
     36  CB       -30.9260  -15.5030   31.8990 C.3    14  THR14       0.1808
     37  OG1      -31.7310  -16.0420   32.9450 O.3    14  THR14      -0.2208
     38  CG2      -29.9930  -16.6060   31.3820 C.3    14  THR14       0.0379
     39  N        -29.9490  -12.9650   30.4180 N.am   15  THR15      -0.1950
     40  CA       -29.3090  -12.2190   29.3420 C.3    15  THR15       0.1897
     41  C        -28.2240  -11.2880   29.8740 C.2    15  THR15       0.2313
     42  O        -27.1090  -11.2910   29.3550 O.2    15  THR15      -0.2863
     43  CB       -30.3400  -11.3640   28.5650 C.3    15  THR15       0.1794
     44  OG1      -31.3050  -12.2200   27.9430 O.3    15  THR15      -0.2208
     45  CG2      -29.6620  -10.5120   27.4990 C.3    15  THR15       0.0378
     46  N        -42.3960  -11.4230   28.1960 N.3   140  LEU140     -0.1245
     47  CA       -42.6240  -12.8610   28.3700 C.3   140  LEU140      0.1561
     48  C        -43.6440  -13.3960   27.3680 C.2   140  LEU140      0.2260
     49  O        -43.4550  -14.4750   26.8130 O.2   140  LEU140     -0.2867
     50  CB       -43.0900  -13.1640   29.8030 C.3   140  LEU140      0.0270
     51  CG       -42.0040  -12.9680   30.8700 C.3   140  LEU140      0.0019
     52  CD1      -42.6200  -12.7400   32.2390 C.3   140  LEU140      0.0001
     53  CD2      -41.0550  -14.1540   30.8910 C.3   140  LEU140      0.0001
     54  N        -42.4280  -14.8570   24.2000 N.3   143  LYS143     -0.1245
     55  CA       -41.7340  -16.1440   24.1840 C.3   143  LYS143      0.1561
     56  C        -42.7120  -17.2900   24.4880 C.2   143  LYS143      0.2260
     57  O        -42.2750  -18.4070   24.7820 O.2   143  LYS143     -0.2867
     58  CB       -40.5900  -16.1410   25.2030 C.3   143  LYS143      0.0271
     59  CG       -39.4580  -15.1900   24.8430 C.3   143  LYS143      0.0035
     60  CD       -38.4370  -15.0490   25.9500 C.3   143  LYS143      0.0206
     61  CE       -38.9310  -14.1910   27.1020 C.3   143  LYS143      0.1093
     62  NZ       -37.7730  -13.5060   27.7500 N.3   143  LYS143     -0.1314
     63  N        -44.7340  -17.2380   27.1460 N.3   145  ARG145     -0.1245
     64  CA       -44.6340  -17.3840   28.5900 C.3   145  ARG145      0.1563
     65  C        -45.6520  -16.4720   29.2450 C.2   145  ARG145      0.2260
     66  O        -45.7690  -15.2950   28.8820 O.2   145  ARG145     -0.2867
     67  CB       -43.2300  -17.0340   29.0590 C.3   145  ARG145      0.0307
     68  CG       -42.1810  -18.0680   28.6590 C.3   145  ARG145      0.0489
     69  CD       -40.9020  -17.9400   29.4790 C.3   145  ARG145      0.2205
     70  NE       -41.1790  -17.9520   30.9180 N.pl3 145  ARG145     -0.0865
     71  CZ       -40.2580  -17.8560   31.8760 C.cat 145  ARG145      0.5346
     72  NH1      -38.9620  -17.7700   31.5780 N.pl3 145  ARG145      0.1354
     73  NH2      -40.6430  -17.8660   33.1500 N.pl3 145  ARG145      0.1354
@<TRIPOS>BOND
     1    55    54    1
     2    55    56    1
     3    55    58    1
     4    56    57    2
     5    59    58    1
     6    59    60    1
     7    60    61    1
     8    49    48    2
     9    61    62    1
    10    63    64    1
    11    48    47    1
    12    45    43    1
    13    44    43    1
    14    46    47    1
    15    47    50    1
    16    43    40    1
    17    64    67    1
    18    64    65    1
    19    68    67    1
    20    68    69    1
    21    66    65    2
    22    40    41    1
    23    40    39    1
    24    42    41    2
    25    69    70    1
    26    50    51    1
    27    39    34   am
    28    51    53    1
    29    51    52    1
    30    70    71    2
    31    35    34    2
    32    34    33    1
    33    38    36    1
    34    72    71    1
    35    20    19    1
    36    20    21    1
    37    12    11    2
    38    71    73    1
    39    36    33    1
    40    36    37    1
    41    22    21    2
    42    10    11    1
    43    10     9    1
    44    19    15   am
    45    21    23   am
    46    33    32    1
    47    11    13   am
    48    15    16    2
    49    15    14    1
    50    32    25   am
    51     9     3   am
    52    23    24    1
    53    13    14    1
    54    25    26    2
    55    25    24    1
    56    14    17    1
    57    24    27    1
    58     3     4    2
    59     3     2    1
    60     5     2    1
    61     5     6    1
    62    17    18    1
    63     2     1    1
    64    27    28    1
    65     8     6   ar
    66     6     7   ar
    67    28    29    1
    68    31    30    1
    69    30    29    1
