@<TRIPOS>MOLECULE
tmp/5h5dA00.pdb
 152 147 0 0 0
SMALL
GASTEIGER

@<TRIPOS>ATOM
      1  N         11.5850  -14.0900   18.9590 N.3    82  LEU82      -0.1231
      2  CA        10.7110  -13.0190   18.4770 C.3    82  LEU82       0.1693
      3  C         10.5950  -13.0860   16.9710 C.2    82  LEU82       0.2592
      4  O         11.5860  -12.9840   16.2630 O.2    82  LEU82      -0.2718
      5  CB        11.2420  -11.6530   18.8840 C.3    82  LEU82       0.0284
      6  CG        10.4450  -10.4810   18.3180 C.3    82  LEU82       0.0019
      7  CD1        9.0170  -10.4800   18.8380 C.3    82  LEU82       0.0001
      8  CD2       11.1220   -9.1580   18.6180 C.3    82  LEU82       0.0001
      9  N          9.3830  -13.2490   16.4720 N.am   83  LEU83      -0.1966
     10  CA         9.1610  -13.1740   15.0350 C.3    83  LEU83       0.1728
     11  C          9.1980  -11.7020   14.6260 C.2    83  LEU83       0.2616
     12  O          8.3260  -10.9110   14.9700 O.2    83  LEU83      -0.2715
     13  CB         7.8700  -13.8890   14.6260 C.3    83  LEU83       0.0311
     14  CG         7.9830  -15.4260   14.5620 C.3    83  LEU83       0.0022
     15  CD1        9.1530  -15.8990   13.7070 C.3    83  LEU83       0.0001
     16  CD2        8.0740  -16.0780   15.9330 C.3    83  LEU83       0.0001
     17  N         10.2500  -11.3540   13.9010 N.am   84  ASP84      -0.1958
     18  CA        10.6350   -9.9750   13.7090 C.3    84  ASP84       0.1825
     19  C         10.8460   -9.7390   12.2100 C.2    84  ASP84       0.2464
     20  O         11.7540  -10.3630   11.6280 O.2    84  ASP84      -0.2730
     21  CB        11.9150   -9.7320   14.4990 C.3    84  ASP84       0.1450
     22  CG        12.4000   -8.2750   14.4530 C.2    84  ASP84       0.3671
     23  OD1       13.3780   -7.9900   15.1940 O.co2  84  ASP84      -0.2456
     24  OD2       11.8320   -7.4370   13.7060 O.co2  84  ASP84      -0.2456
     25  N         10.0170   -8.8530   11.5830 N.am   85  PRO85      -0.2727
     26  CA        10.1700   -8.5710   10.1480 C.3    85  PRO85       0.1402
     27  C         11.5130   -7.9430    9.7530 C.2    85  PRO85       0.2269
     28  O         11.9540   -8.1240    8.6010 O.2    85  PRO85      -0.2865
     29  CB         9.0170   -7.6180    9.8360 C.3    85  PRO85       0.0296
     30  CG         8.0370   -7.7910   10.9390 C.3    85  PRO85       0.0237
     31  CD         8.8520   -8.1450   12.1470 C.3    85  PRO85       0.0939
     32  N          4.9760  -13.0450   19.1460 N.3   104  PHE104     -0.1227
     33  CA         4.4570  -12.2770   18.0110 C.3   104  PHE104      0.1736
     34  C          3.8290  -11.0080   18.5230 C.2   104  PHE104      0.2596
     35  O          3.2360  -10.9910   19.6070 O.2   104  PHE104     -0.2718
     36  CB         3.3830  -13.0500   17.2270 C.3   104  PHE104      0.0547
     37  CG         3.8480  -14.3820   16.7220 C.ar  104  PHE104     -0.0202
     38  CD1        4.2440  -14.5370   15.4110 C.ar  104  PHE104     -0.0042
     39  CD2        3.8950  -15.4750   17.5780 C.ar  104  PHE104     -0.0042
     40  CE1        4.6800  -15.7610   14.9610 C.ar  104  PHE104     -0.0003
     41  CE2        4.3330  -16.6930   17.1430 C.ar  104  PHE104     -0.0003
     42  CZ         4.7230  -16.8500   15.8340 C.ar  104  PHE104     -0.0000
     43  N          3.9490   -9.9470   17.7260 N.am  105  GLY105     -0.1957
     44  CA         3.2820   -8.6870   18.0210 C.3   105  GLY105      0.1869
     45  C          1.8110   -8.7390   17.7170 C.2   105  GLY105      0.2309
     46  O          1.4130   -9.0030   16.5960 O.2   105  GLY105     -0.2863
     47  N         -0.5860   -6.7760   16.8280 N.3   107  ILE107     -0.1245
     48  CA        -0.7350   -5.4560   16.2280 C.3   107  ILE107      0.1561
     49  C         -1.5260   -5.5950   14.9490 C.2   107  ILE107      0.2260
     50  O         -1.6740   -6.6940   14.4200 O.2   107  ILE107     -0.2867
     51  CB         0.6430   -4.8060   15.9070 C.3   107  ILE107      0.0252
     52  CG1        1.4240   -5.5850   14.8400 C.3   107  ILE107      0.0019
     53  CG2        1.4330   -4.6790   17.1920 C.3   107  ILE107      0.0019
     54  CD1        2.6810   -4.8680   14.3900 C.3   107  ILE107      0.0001
     55  N         -0.9910   -3.6650   11.6800 N.3   109  GLY109     -0.1225
     56  CA        -0.0900   -2.6820   11.0820 C.3   109  GLY109      0.1811
     57  C         -0.7420   -1.8220   10.0210 C.2   109  GLY109      0.2280
     58  O         -1.7000   -2.2500    9.3780 O.2   109  GLY109     -0.2866
     59  N          7.0240   -4.0800   16.1120 N.3   113  THR113     -0.1218
     60  CA         7.7490   -5.2770   16.5410 C.3   113  THR113      0.1862
     61  C          9.1200   -4.9020   17.1460 C.2   113  THR113      0.2287
     62  O          9.6340   -5.6110   18.0140 O.2   113  THR113     -0.2866
     63  CB         7.9150   -6.2970   15.3870 C.3   113  THR113      0.1770
     64  OG1        6.6480   -6.5800   14.8100 O.3   113  THR113     -0.2211
     65  CG2        8.4470   -7.6080   15.8800 C.3   113  THR113      0.0375
     66  N         13.2200  -14.0180   11.2490 N.3   128  ARG128     -0.1231
     67  CA        12.3640  -13.4110   10.2770 C.3   128  ARG128      0.1694
     68  C         11.5250  -14.4700    9.5310 C.2   128  ARG128      0.2592
     69  O         11.8710  -15.6440    9.4780 O.2   128  ARG128     -0.2718
     70  CB        13.2010  -12.5960    9.3230 C.3   128  ARG128      0.0321
     71  CG        12.4100  -11.5740    8.5450 C.3   128  ARG128      0.0489
     72  CD        13.2930  -10.9390    7.5120 C.3   128  ARG128      0.2205
     73  NE        13.6470  -11.9520    6.5270 N.pl3 128  ARG128     -0.0865
     74  CZ        14.0150  -11.7280    5.2770 C.cat 128  ARG128      0.5346
     75  NH1       14.0970  -10.4970    4.7960 N.pl3 128  ARG128      0.1354
     76  NH2       14.2870  -12.7580    4.4880 N.pl3 128  ARG128      0.1354
     77  N         10.3990  -14.0080    8.9900 N.am  129  LEU129     -0.1966
     78  CA         9.5000  -14.7760    8.1340 C.3   129  LEU129      0.1728
     79  C          9.4130  -14.0700    6.7580 C.2   129  LEU129      0.2617
     80  O          8.3260  -13.7260    6.2750 O.2   129  LEU129     -0.2715
     81  CB         8.1020  -14.8480    8.7630 C.3   129  LEU129      0.0311
     82  CG         7.9560  -15.4850   10.1460 C.3   129  LEU129      0.0022
     83  CD1        6.5810  -15.2050   10.7350 C.3   129  LEU129      0.0001
     84  CD2        8.1950  -16.9830   10.0800 C.3   129  LEU129      0.0001
     85  N         10.5680  -13.8320    6.1410 N.am  130  GLY130     -0.1940
     86  CA        10.6180  -13.2350    4.8190 C.3   130  GLY130      0.2014
     87  C         10.6210  -11.7160    4.8100 C.2   130  GLY130      0.2639
     88  O         10.6100  -11.0470    5.8550 O.2   130  GLY130     -0.2714
     89  N         10.5680  -11.2080    3.5810 N.am  131  ASP131     -0.1957
     90  CA        10.7640   -9.8050    3.2330 C.3   131  ASP131      0.1840
     91  C          9.4590   -8.9610    3.2230 C.2   131  ASP131      0.2622
     92  O          9.5090   -7.7420    3.0410 O.2   131  ASP131     -0.2715
     93  CB        11.4960   -9.8100    1.8650 C.3   131  ASP131      0.1450
     94  CG        11.7930   -8.3970    1.2790 C.2   131  ASP131      0.3671
     95  OD1       11.6600   -7.3270    1.9750 O.co2 131  ASP131     -0.2456
     96  OD2       12.1970   -8.3620    0.0820 O.co2 131  ASP131     -0.2456
     97  N          8.3080   -9.5630    3.4970 N.am  132  LYS132     -0.1963
     98  CA         7.0330   -8.8400    3.3560 C.3   132  LYS132      0.1728
     99  C          6.1920   -9.0740    4.5990 C.2   132  LYS132      0.2616
    100  O          6.3000  -10.1110    5.2340 O.2   132  LYS132     -0.2715
    101  CB         6.2960   -9.2670    2.0660 C.3   132  LYS132      0.0311
    102  CG         7.0720   -8.8290    0.8040 C.3   132  LYS132      0.0038
    103  CD         6.2500   -9.1960   -0.4260 C.3   132  LYS132      0.0206
    104  CE         6.8590   -8.5470   -1.6550 C.3   132  LYS132      0.1093
    105  NZ         7.9370   -9.4570   -2.1150 N.3   132  LYS132     -0.1314
    106  N          5.3530   -8.1050    4.9280 N.am  133  GLN133     -0.1963
    107  CA         4.6350   -8.1170    6.1890 C.3   133  GLN133      0.1733
    108  C          3.4110   -9.0420    6.1970 C.2   133  GLN133      0.2616
    109  O          2.6280   -9.0700    5.2480 O.2   133  GLN133     -0.2715
    110  CB         4.2220   -6.7030    6.5810 C.3   133  GLN133      0.0408
    111  CG         3.6550   -6.6330    7.9780 C.3   133  GLN133      0.0908
    112  CD         3.3780   -5.2180    8.3960 C.2   133  GLN133      0.2608
    113  OE1        2.6300   -4.4920    7.7170 O.2   133  GLN133     -0.2717
    114  NE2        3.9690   -4.8020    9.5180 N.am  133  GLN133     -0.0878
    115  N          3.2620   -9.7900    7.2860 N.am  134  MET134     -0.1963
    116  CA         2.1260  -10.6910    7.4740 C.3   134  MET134      0.1736
    117  C          1.2650  -10.1950    8.6200 C.2   134  MET134      0.2617
    118  O          1.7360   -9.5120    9.5340 O.2   134  MET134     -0.2715
    119  CB         2.6000  -12.1110    7.8090 C.3   134  MET134      0.0427
    120  CG         3.4560  -12.7630    6.7460 C.3   134  MET134      0.0599
    121  SD         4.2570  -14.2570    7.3680 S.3   134  MET134     -0.1393
    122  CE         4.8610  -14.9430    5.8320 C.3   134  MET134      0.0692
    123  N         -0.0060  -10.5750    8.5660 N.am  135  THR135     -0.1937
    124  CA        -0.8930  -10.4340    9.7120 C.3   135  THR135      0.2028
    125  C         -0.4350  -11.4260   10.8060 C.2   135  THR135      0.2642
    126  O          0.3220  -12.3660   10.5460 O.2   135  THR135     -0.2714
    127  CB        -2.3740  -10.6750    9.3270 C.3   135  THR135      0.1808
    128  OG1       -2.5680  -12.0290    8.8890 O.3   135  THR135     -0.2208
    129  CG2       -2.7990   -9.7310    8.2200 C.3   135  THR135      0.0379
    130  N         -0.8870  -11.2020   12.0260 N.am  136  THR136     -0.1950
    131  CA        -0.5060  -12.0620   13.1150 C.3   136  THR136      0.1897
    132  C         -0.8310  -13.5190   12.8240 C.2   136  THR136      0.2313
    133  O          0.0080  -14.3830   13.0320 O.2   136  THR136     -0.2863
    134  CB        -1.1780  -11.6070   14.4140 C.3   136  THR136      0.1794
    135  OG1       -0.8740  -10.2190   14.6260 O.3   136  THR136     -0.2208
    136  CG2       -0.6820  -12.4370   15.6090 C.3   136  THR136      0.0378
    137  N          1.5540  -14.9690   10.2560 N.3   139  ALA139     -0.1245
    138  CA         2.8660  -15.1810   10.8620 C.3   139  ALA139      0.1562
    139  C          2.9070  -16.4180   11.7150 C.2   139  ALA139      0.2260
    140  O          3.8740  -17.1630   11.6850 O.2   139  ALA139     -0.2867
    141  CB         3.2540  -13.9900   11.7000 C.3   139  ALA139      0.0290
    142  N         -0.5650   -7.3210    2.7450 N.3   174  PHE174     -0.1241
    143  CA         0.0500   -8.3470    3.5510 C.3   174  PHE174      0.1605
    144  C          0.3140   -9.5560    2.6680 C.2   174  PHE174      0.2264
    145  O         -0.2220   -9.6820    1.5700 O.2   174  PHE174     -0.2867
    146  CB        -0.8520   -8.7800    4.7180 C.3   174  PHE174      0.0534
    147  CG        -1.3010   -7.6570    5.5930 C.ar  174  PHE174     -0.0203
    148  CD1       -0.4690   -7.1550    6.5930 C.ar  174  PHE174     -0.0042
    149  CD2       -2.5550   -7.0950    5.4250 C.ar  174  PHE174     -0.0042
    150  CE1       -0.8870   -6.1010    7.4040 C.ar  174  PHE174     -0.0003
    151  CE2       -2.9760   -6.0410    6.2300 C.ar  174  PHE174     -0.0003
    152  CZ        -2.1450   -5.5430    7.2190 C.ar  174  PHE174     -0.0000
@<TRIPOS>BOND
     1   105   104    1
     2   104   103    1
     3   103   102    1
     4    96    94   ar
     5   102   101    1
     6    94    93    1
     7    94    95   ar
     8   145   144    2
     9    93    90    1
    10   101    98    1
    11   144   143    1
    12   142   143    1
    13    92    91    2
    14    91    90    1
    15    91    97   am
    16    90    89    1
    17    98    97    1
    18    98    99    1
    19   143   146    1
    20    89    87   am
    21    76    74    1
    22    99   106   am
    23    99   100    2
    24   146   147    1
    25    75    74    1
    26    87    86    1
    27    87    88    2
    28    86    85    1
    29   106   107    1
    30   109   108    2
    31    74    73    2
    32   149   147   ar
    33   149   151   ar
    34   147   148   ar
    35   122   121    1
    36    85    79   am
    37   107   108    1
    38   107   110    1
    39   108   115   am
    40   151   152   ar
    41    80    79    2
    42    73    72    1
    43   110   111    1
    44   148   150   ar
    45   120   121    1
    46   120   119    1
    47    79    78    1
    48   152   150   ar
    49   115   116    1
    50   116   119    1
    51   116   117    1
    52    72    71    1
    53   113   112    2
    54   111   112    1
    55    78    81    1
    56    78    77    1
    57   129   127    1
    58   112   114   am
    59    71    70    1
    60   123   117   am
    61   123   124    1
    62    28    27    2
    63   117   118    2
    64    81    82    1
    65   128   127    1
    66    77    68   am
    67    70    67    1
    68   127   124    1
    69    58    57    2
    70    69    68    2
    71    68    67    1
    72   124   125    1
    73    27    26    1
    74    29    26    1
    75    29    30    1
    76    57    56    1
    77    84    82    1
    78    82    83    1
    79    26    25    1
    80   137   138    1
    81    67    66    1
    82   126   125    2
    83   125   130   am
    84   138   141    1
    85   138   139    1
    86    30    31    1
    87    56    55    1
    88    25    31    1
    89    25    19   am
    90    20    19    2
    91   140   139    2
    92   130   131    1
    93    19    18    1
    94   132   133    2
    95   132   131    1
    96   131   134    1
    97    24    22   ar
    98    15    14    1
    99    18    17    1
   100    18    21    1
   101    17    11   am
   102    54    52    1
   103   134   135    1
   104   134   136    1
   105    50    49    2
   106    22    21    1
   107    22    23   ar
   108    14    13    1
   109    14    16    1
   110    11    12    2
   111    11    10    1
   112    13    10    1
   113    64    63    1
   114    52    51    1
   115    49    48    1
   116    40    38   ar
   117    40    42   ar
   118    10     9    1
   119    63    65    1
   120    63    60    1
   121    38    37   ar
   122    42    41   ar
   123    51    48    1
   124    51    53    1
   125    59    60    1
   126    48    47    1
   127     4     3    2
   128     9     3   am
   129    60    61    1
   130    46    45    2
   131    37    36    1
   132    37    39   ar
   133     3     2    1
   134    41    39   ar
   135    61    62    2
   136    36    33    1
   137    45    44    1
   138    43    44    1
   139    43    34   am
   140    33    34    1
   141    33    32    1
   142     6     8    1
   143     6     7    1
   144     6     5    1
   145     2     5    1
   146     2     1    1
   147    34    35    2
