@<TRIPOS>MOLECULE
tmp/5h5fA00.pdb
 211 208 0 0 0
SMALL
GASTEIGER

@<TRIPOS>ATOM
      1  N        -25.5730   19.0150   24.5450 N.3   101  LEU101     -0.1231
      2  CA       -25.4340   19.1900   25.9860 C.3   101  LEU101      0.1693
      3  C        -25.5160   20.6850   26.2390 C.2   101  LEU101      0.2592
      4  O        -24.6620   21.4470   25.7760 O.2   101  LEU101     -0.2718
      5  CB       -24.1340   18.5760   26.5110 C.3   101  LEU101      0.0284
      6  CG       -24.1720   17.0300   26.6350 C.3   101  LEU101      0.0019
      7  CD1      -25.3860   16.5540   27.4290 C.3   101  LEU101      0.0001
      8  CD2      -24.1710   16.3260   25.2620 C.3   101  LEU101      0.0001
      9  N        -26.5620   21.0970   26.9460 N.am  102  ASP102     -0.1960
     10  CA       -27.0420   22.4800   26.9700 C.3   102  ASP102      0.1825
     11  C        -27.2730   22.8740   28.4250 C.2   102  ASP102      0.2464
     12  O        -28.1630   22.2930   29.0780 O.2   102  ASP102     -0.2730
     13  CB       -28.3370   22.5440   26.1650 C.3   102  ASP102      0.1450
     14  CG       -28.9110   23.9340   26.0730 C.2   102  ASP102      0.3671
     15  OD1      -28.4270   24.8430   26.7840 O.co2 102  ASP102     -0.2456
     16  OD2      -29.8720   24.1010   25.2780 O.co2 102  ASP102     -0.2456
     17  N        -26.4920   23.7990   28.9850 N.am  103  PRO103     -0.2715
     18  CA       -26.6680   24.1340   30.4110 C.3   103  PRO103      0.1536
     19  C        -28.0320   24.7040   30.7220 C.2   103  PRO103      0.2598
     20  O        -28.4120   24.7370   31.8950 O.2   103  PRO103     -0.2715
     21  CB       -25.5670   25.1680   30.6780 C.3   103  PRO103      0.0310
     22  CG       -24.5690   24.9700   29.5770 C.3   103  PRO103      0.0237
     23  CD       -25.3390   24.4940   28.3860 C.3   103  PRO103      0.0939
     24  N        -28.7780   25.1560   29.7220 N.am  104  ARG104     -0.1978
     25  CA       -30.0650   25.7950   29.9460 C.3   104  ARG104      0.1597
     26  C        -31.2330   24.8770   29.6420 C.2   104  ARG104      0.2287
     27  O        -32.3800   25.3230   29.6830 O.2   104  ARG104     -0.2864
     28  CB       -30.1820   27.0680   29.0980 C.3   104  ARG104      0.0334
     29  CG       -29.2160   28.1660   29.4650 C.3   104  ARG104      0.0492
     30  CD       -29.7950   29.0850   30.5470 C.3   104  ARG104      0.2205
     31  NE       -28.9930   30.3030   30.6970 N.pl3 104  ARG104     -0.0865
     32  CZ       -29.1690   31.2180   31.6490 C.cat 104  ARG104      0.5346
     33  NH1      -30.1250   31.0640   32.5580 N.pl3 104  ARG104      0.1354
     34  NH2      -28.3790   32.2860   31.6990 N.pl3 104  ARG104      0.1354
     35  N        -21.0040   19.1550   22.1040 N.3   122  PHE122     -0.1227
     36  CA       -20.5420   20.0750   23.1290 C.3   122  PHE122      0.1736
     37  C        -19.9780   21.3250   22.4810 C.2   122  PHE122      0.2596
     38  O        -19.3520   21.2650   21.4220 O.2   122  PHE122     -0.2718
     39  CB       -19.4510   19.4290   24.0000 C.3   122  PHE122      0.0547
     40  CG       -19.8700   18.1360   24.5950 C.ar  122  PHE122     -0.0202
     41  CD1      -20.2920   18.0710   25.9240 C.ar  122  PHE122     -0.0042
     42  CD2      -19.9330   16.9860   23.8120 C.ar  122  PHE122     -0.0042
     43  CE1      -20.7380   16.8700   26.4750 C.ar  122  PHE122     -0.0003
     44  CE2      -20.3630   15.7740   24.3660 C.ar  122  PHE122     -0.0003
     45  CZ       -20.7700   15.7270   25.6930 C.ar  122  PHE122     -0.0000
     46  N        -20.1760   22.4590   23.1450 N.am  123  GLY123     -0.1957
     47  CA       -19.4960   23.6690   22.7200 C.3   123  GLY123      0.1869
     48  C        -18.0530   23.6370   23.1660 C.2   123  GLY123      0.2309
     49  O        -17.7590   23.4420   24.3480 O.2   123  GLY123     -0.2863
     50  N        -15.9100   25.6700   24.1790 N.3   125  ILE125     -0.1231
     51  CA       -15.9600   27.0180   24.7400 C.3   125  ILE125      0.1692
     52  C        -15.2050   26.9920   26.0580 C.2   125  ILE125      0.2592
     53  O        -15.4230   26.0970   26.8700 O.2   125  ILE125     -0.2718
     54  CB       -17.4160   27.4580   24.9980 C.3   125  ILE125      0.0266
     55  CG1      -18.2260   27.4630   23.7140 C.3   125  ILE125      0.0019
     56  CG2      -17.4640   28.8080   25.7080 C.3   125  ILE125      0.0020
     57  CD1      -19.7450   27.3900   23.9690 C.3   125  ILE125      0.0001
     58  N        -14.3530   27.9760   26.2950 N.am  126  LEU126     -0.1966
     59  CA       -13.7650   28.1450   27.6180 C.3   126  LEU126      0.1728
     60  C        -14.7170   29.0530   28.3820 C.2   126  LEU126      0.2616
     61  O        -14.8520   30.2390   28.0570 O.2   126  LEU126     -0.2715
     62  CB       -12.3580   28.7220   27.5190 C.3   126  LEU126      0.0311
     63  CG       -11.4150   27.8730   26.6690 C.3   126  LEU126      0.0022
     64  CD1      -10.1230   28.6290   26.3830 C.3   126  LEU126      0.0001
     65  CD2      -11.1360   26.5540   27.3660 C.3   126  LEU126      0.0001
     66  N        -15.4200   28.4840   29.3570 N.am  127  GLY127     -0.1955
     67  CA       -16.5330   29.1840   29.9530 C.3   127  GLY127      0.1869
     68  C        -16.0970   30.3330   30.8350 C.2   127  GLY127      0.2309
     69  O        -14.9790   30.3870   31.3400 O.2   127  GLY127     -0.2863
     70  N        -21.7130   32.3500   33.4130 N.3   131  PRO131     -0.2102
     71  CA       -21.6950   31.8520   32.0320 C.3   131  PRO131      0.1504
     72  C        -22.2860   32.8720   31.0690 C.2   131  PRO131      0.2576
     73  O        -23.2250   33.6060   31.4020 O.2   131  PRO131     -0.2718
     74  CB       -22.5530   30.5830   32.0930 C.3   131  PRO131      0.0282
     75  CG       -22.5950   30.1840   33.5360 C.3   131  PRO131      0.0208
     76  CD       -22.4390   31.4650   34.3350 C.3   131  PRO131      0.0893
     77  N        -21.7170   32.9140   29.8670 N.am  132  ARG132     -0.1966
     78  CA       -22.1760   33.8180   28.8170 C.3   132  ARG132      0.1729
     79  C        -23.2070   33.1880   27.8950 C.2   132  ARG132      0.2616
     80  O        -23.6250   33.8400   26.9320 O.2   132  ARG132     -0.2715
     81  CB       -20.9890   34.3130   27.9910 C.3   132  ARG132      0.0348
     82  CG       -20.0310   35.2150   28.7670 C.3   132  ARG132      0.0492
     83  CD       -18.8640   35.6100   27.8810 C.3   132  ARG132      0.2205
     84  NE       -17.8080   36.2810   28.6240 N.pl3 132  ARG132     -0.0865
     85  CZ       -16.6750   36.7060   28.0770 C.cat 132  ARG132      0.5346
     86  NH1      -16.4610   36.5220   26.7800 N.pl3 132  ARG132      0.1354
     87  NH2      -15.7610   37.3140   28.8250 N.pl3 132  ARG132      0.1354
     88  N        -23.6120   31.9420   28.1470 N.am  133  ASP133     -0.1957
     89  CA       -24.6750   31.2950   27.3870 C.3   133  ASP133      0.1840
     90  C        -24.2910   31.1090   25.9280 C.2   133  ASP133      0.2622
     91  O        -25.1550   31.1370   25.0530 O.2   133  ASP133     -0.2715
     92  CB       -26.0000   32.0660   27.4800 C.3   133  ASP133      0.1450
     93  CG       -26.5930   32.0610   28.8740 C.2   133  ASP133      0.3671
     94  OD1      -26.7060   30.9690   29.4660 O.co2 133  ASP133     -0.2456
     95  OD2      -26.9560   33.1480   29.3710 O.co2 133  ASP133     -0.2456
     96  N        -22.9990   30.9340   25.6440 N.am  134  ARG134     -0.1963
     97  CA       -22.5930   30.7620   24.2540 C.3   134  ARG134      0.1729
     98  C        -23.0730   29.4390   23.6520 C.2   134  ARG134      0.2616
     99  O        -23.1500   29.3290   22.4150 O.2   134  ARG134     -0.2715
    100  CB       -21.0760   30.9170   24.1350 C.3   134  ARG134      0.0348
    101  CG       -20.6670   32.3960   24.2100 C.3   134  ARG134      0.0492
    102  CD       -19.1700   32.5320   24.4170 C.3   134  ARG134      0.2205
    103  NE       -18.8220   32.2710   25.8170 N.pl3 134  ARG134     -0.0865
    104  CZ       -17.5750   32.2290   26.2630 C.cat 134  ARG134      0.5346
    105  NH1      -16.5770   32.4060   25.4040 N.pl3 134  ARG134      0.1354
    106  NH2      -17.3240   32.0020   27.5530 N.pl3 134  ARG134      0.1354
    107  N        -23.4290   28.4410   24.4720 N.am  135  THR135     -0.1951
    108  CA       -23.9560   27.2060   23.8930 C.3   135  THR135      0.1897
    109  C        -25.2120   27.4820   23.0820 C.2   135  THR135      0.2313
    110  O        -25.5090   26.7610   22.1280 O.2   135  THR135     -0.2863
    111  CB       -24.2420   26.1800   24.9870 C.3   135  THR135      0.1794
    112  OG1      -23.0880   26.0770   25.8040 O.3   135  THR135     -0.2208
    113  CG2      -24.5290   24.7900   24.4040 C.3   135  THR135      0.0378
    114  N        -30.1540   18.5480   26.2690 N.3   149  ARG149     -0.1231
    115  CA       -30.2170   17.9050   27.5630 C.3   149  ARG149      0.1694
    116  C        -29.1900   18.5470   28.4700 C.2   149  ARG149      0.2592
    117  O        -28.1210   18.9850   28.0150 O.2   149  ARG149     -0.2718
    118  CB       -29.9210   16.4000   27.4930 C.3   149  ARG149      0.0321
    119  CG       -31.0270   15.5920   26.8080 C.3   149  ARG149      0.0489
    120  CD       -32.2510   15.5520   27.6940 C.3   149  ARG149      0.2205
    121  NE       -33.3510   14.7390   27.1650 N.pl3 149  ARG149     -0.0865
    122  CZ       -34.4090   15.2410   26.5390 C.cat 149  ARG149      0.5346
    123  NH1      -34.5090   16.5430   26.3210 N.pl3 149  ARG149      0.1354
    124  NH2      -35.3770   14.4360   26.1260 N.pl3 149  ARG149      0.1354
    125  N        -29.5230   18.6010   29.7620 N.am  150  ARG150     -0.1966
    126  CA       -28.6860   19.2750   30.7440 C.3   150  ARG150      0.1729
    127  C        -27.8370   18.2700   31.5220 C.2   150  ARG150      0.2616
    128  O        -28.1610   17.0800   31.6170 O.2   150  ARG150     -0.2715
    129  CB       -29.5500   20.1070   31.7090 C.3   150  ARG150      0.0348
    130  CG       -28.7940   21.1200   32.5040 C.3   150  ARG150      0.0492
    131  CD       -29.7420   21.9050   33.3970 C.3   150  ARG150      0.2205
    132  NE       -30.2740   21.0270   34.4290 N.pl3 150  ARG150     -0.0865
    133  CZ       -30.7160   21.4600   35.6020 C.cat 150  ARG150      0.5346
    134  NH1      -30.7160   22.7560   35.8670 N.pl3 150  ARG150      0.1354
    135  NH2      -31.1580   20.5950   36.5050 N.pl3 150  ARG150      0.1354
    136  N        -26.7330   18.7730   32.0770 N.am  151  LEU151     -0.1963
    137  CA       -25.8900   18.0000   32.9830 C.3   151  LEU151      0.1728
    138  C        -25.8710   18.6650   34.3560 C.2   151  LEU151      0.2617
    139  O        -24.7980   18.9660   34.8840 O.2   151  LEU151     -0.2715
    140  CB       -24.4620   17.8890   32.4440 C.3   151  LEU151      0.0311
    141  CG       -24.3480   17.2170   31.0740 C.3   151  LEU151      0.0022
    142  CD1      -22.9530   17.4110   30.5300 C.3   151  LEU151      0.0001
    143  CD2      -24.6270   15.7160   31.2260 C.3   151  LEU151      0.0001
    144  N        -27.0470   18.9470   34.9110 N.am  152  GLY152     -0.1940
    145  CA       -27.1200   19.5960   36.2080 C.3   152  GLY152      0.2014
    146  C        -27.0000   21.1080   36.1140 C.2   152  GLY152      0.2639
    147  O        -26.7980   21.6900   35.0360 O.2   152  GLY152     -0.2714
    148  N        -27.1030   21.7550   37.2820 N.am  153  ASP153     -0.1957
    149  CA       -27.3550   23.1910   37.3260 C.3   153  ASP153      0.1840
    150  C        -26.1100   24.0590   37.4520 C.2   153  ASP153      0.2622
    151  O        -26.2480   25.2820   37.6190 O.2   153  ASP153     -0.2715
    152  CB       -28.3200   23.5110   38.4900 C.3   153  ASP153      0.1450
    153  CG       -27.7680   23.1070   39.8580 C.2   153  ASP153      0.3671
    154  OD1      -26.6120   22.6340   39.9650 O.co2 153  ASP153     -0.2456
    155  OD2      -28.4870   23.2720   40.8620 O.co2 153  ASP153     -0.2456
    156  N        -24.9090   23.4820   37.3510 N.am  154  LYS154     -0.1963
    157  CA       -23.6730   24.2510   37.3890 C.3   154  LYS154      0.1728
    158  C        -22.8280   23.9980   36.1520 C.2   154  LYS154      0.2616
    159  O        -22.8720   22.9230   35.5600 O.2   154  LYS154     -0.2715
    160  CB       -22.8600   23.9390   38.6480 C.3   154  LYS154      0.0311
    161  CG       -23.4930   24.6000   39.8660 C.3   154  LYS154      0.0038
    162  CD       -22.7210   24.3620   41.1240 C.3   154  LYS154      0.0206
    163  CE       -23.3550   25.1900   42.2340 C.3   154  LYS154      0.1093
    164  NZ       -23.4260   24.4800   43.5060 N.3   154  LYS154     -0.1314
    165  N        -22.0350   25.0070   35.7780 N.am  155  GLN155     -0.1963
    166  CA       -21.2470   24.9100   34.5570 C.3   155  GLN155      0.1733
    167  C        -20.0950   23.9380   34.7280 C.2   155  GLN155      0.2616
    168  O        -19.4260   23.9360   35.7670 O.2   155  GLN155     -0.2715
    169  CB       -20.6950   26.2760   34.1840 C.3   155  GLN155      0.0408
    170  CG       -19.9570   26.2570   32.8390 C.3   155  GLN155      0.0908
    171  CD       -19.4600   27.6160   32.3840 C.2   155  GLN155      0.2608
    172  OE1      -19.1720   27.7970   31.2080 O.2   155  GLN155     -0.2717
    173  NE2      -19.3410   28.5600   33.2990 N.am  155  GLN155     -0.0878
    174  N        -19.8590   23.1180   33.6960 N.am  156  MET156     -0.1963
    175  CA       -18.7030   22.2230   33.6280 C.3   156  MET156      0.1736
    176  C        -17.7790   22.6470   32.4920 C.2   156  MET156      0.2617
    177  O        -18.2430   23.1590   31.4780 O.2   156  MET156     -0.2715
    178  CB       -19.1530   20.7870   33.3700 C.3   156  MET156      0.0427
    179  CG       -20.0450   20.2570   34.4580 C.3   156  MET156      0.0599
    180  SD       -20.6760   18.6510   33.9180 S.3   156  MET156     -0.1393
    181  CE       -21.4170   18.1620   35.4750 C.3   156  MET156      0.0692
    182  N        -16.4750   22.3750   32.6350 N.am  157  THR157     -0.1937
    183  CA       -15.5730   22.5040   31.4910 C.3   157  THR157      0.2028
    184  C        -15.9700   21.4990   30.4180 C.2   157  THR157      0.2642
    185  O        -16.6520   20.5190   30.6840 O.2   157  THR157     -0.2714
    186  CB       -14.1200   22.2410   31.8850 C.3   157  THR157      0.1808
    187  OG1      -13.9830   20.8640   32.2640 O.3   157  THR157     -0.2208
    188  CG2      -13.6460   23.1570   33.0250 C.3   157  THR157      0.0379
    189  N        -15.4700   21.7110   29.1970 N.am  158  THR158     -0.1950
    190  CA       -15.8140   20.7790   28.1220 C.3   158  THR158      0.1897
    191  C        -15.4140   19.3410   28.4670 C.2   158  THR158      0.2313
    192  O        -16.2010   18.4130   28.2620 O.2   158  THR158     -0.2863
    193  CB       -15.1680   21.2400   26.8210 C.3   158  THR158      0.1794
    194  OG1      -15.5760   22.5890   26.5780 O.3   158  THR158     -0.2208
    195  CG2      -15.6410   20.4120   25.6690 C.3   158  THR158      0.0378
    196  N        -17.8120   17.9930   31.0600 N.3   161  ALA161     -0.1245
    197  CA       -19.1230   17.6790   30.5120 C.3   161  ALA161      0.1562
    198  C        -19.0950   16.3700   29.7400 C.2   161  ALA161      0.2260
    199  O        -20.0280   15.5600   29.8310 O.2   161  ALA161     -0.2867
    200  CB       -19.6030   18.8270   29.6160 C.3   161  ALA161      0.0290
    201  N        -16.2180   26.0640   38.3700 N.3   198  PHE198     -0.1241
    202  CA       -16.9360   25.0450   37.6190 C.3   198  PHE198      0.1605
    203  C        -17.1860   23.8840   38.5540 C.2   198  PHE198      0.2264
    204  O        -16.5830   23.7880   39.6290 O.2   198  PHE198     -0.2867
    205  CB       -16.1560   24.5470   36.3900 C.3   198  PHE198      0.0534
    206  CG       -15.6920   25.6500   35.4810 C.ar  198  PHE198     -0.0203
    207  CD1      -16.5290   26.1490   34.5050 C.ar  198  PHE198     -0.0042
    208  CD2      -14.4310   26.1970   35.6190 C.ar  198  PHE198     -0.0042
    209  CE1      -16.1070   27.1940   33.6760 C.ar  198  PHE198     -0.0003
    210  CE2      -14.0080   27.2430   34.7950 C.ar  198  PHE198     -0.0003
    211  CZ       -14.8520   27.7310   33.8260 C.ar  198  PHE198     -0.0000
@<TRIPOS>BOND
     1    38    37    2
     2    35    36    1
     3   110   109    2
     4    99    98    2
     5    37    36    1
     6    37    46   am
     7    47    46    1
     8    47    48    1
     9   109   108    1
    10    36    39    1
    11    48    49    2
    12    98    97    1
    13    98   107   am
    14    55    57    1
    15    55    54    1
    16    42    44   ar
    17    42    40   ar
    18   108   107    1
    19   108   111    1
    20    39    40    1
    21   100   101    1
    22   100    97    1
    23    50    51    1
    24   101   102    1
    25    97    96    1
    26    44    45   ar
    27   113   111    1
    28   102   103    1
    29     1     2    1
    30    40    41   ar
    31    51    54    1
    32    51    52    1
    33   111   112    1
    34    54    56    1
    35    91    90    2
    36     8     6    1
    37    16    14   ar
    38   105   104    1
    39    96    90   am
    40   195   193    1
    41    45    43   ar
    42     4     3    2
    43   103   104    2
    44    41    43   ar
    45    90    89    1
    46     2     3    1
    47     2     5    1
    48    52    58   am
    49    52    53    2
    50    14    13    1
    51    14    15   ar
    52   124   122    1
    53    13    10    1
    54     3     9   am
    55   104   106    1
    56   114   115    1
    57    58    59    1
    58   123   122    1
    59    64    63    1
    60     5     6    1
    61   122   121    2
    62   194   193    1
    63     6     7    1
    64    63    65    1
    65    63    62    1
    66    86    85    1
    67   119   118    1
    68   119   120    1
    69   193   190    1
    70    80    79    2
    71     9    10    1
    72    10    11    1
    73   121   120    1
    74    89    92    1
    75    89    88    1
    76    92    93    1
    77   118   115    1
    78    62    59    1
    79   115   116    1
    80    59    60    1
    81    83    84    1
    82    83    82    1
    83    79    88   am
    84    79    78    1
    85    81    82    1
    86    81    78    1
    87   117   116    2
    88    61    60    2
    89    85    84    2
    90    85    87    1
    91   190   191    1
    92   190   189    1
    93   192   191    2
    94    60    66   am
    95    23    17    1
    96    23    22    1
    97    11    17   am
    98    11    12    2
    99   116   125   am
   100    78    77    1
   101    93    95   ar
   102    93    94   ar
   103    17    18    1
   104    28    29    1
   105    28    25    1
   106   189   184   am
   107    66    67    1
   108    29    30    1
   109    22    21    1
   110   200   197    1
   111    26    27    2
   112    26    25    1
   113    24    25    1
   114    24    19   am
   115   198   199    2
   116   198   197    1
   117   125   126    1
   118    77    72   am
   119    67    68    1
   120    18    21    1
   121    18    19    1
   122   184   185    2
   123   184   183    1
   124   197   196    1
   125   142   141    1
   126    30    31    1
   127    31    32    2
   128    19    20    2
   129   126   127    1
   130   126   129    1
   131    68    69    2
   132    72    73    2
   133    72    71    1
   134   141   143    1
   135   141   140    1
   136   172   171    2
   137   177   176    2
   138   183   186    1
   139   183   182    1
   140   127   128    2
   141   127   136   am
   142    32    34    1
   143    32    33    1
   144   129   130    1
   145   186   187    1
   146   186   188    1
   147    71    74    1
   148    71    70    1
   149   136   137    1
   150    74    75    1
   151   171   170    1
   152   171   173   am
   153   140   137    1
   154   176   182   am
   155   176   175    1
   156   130   131    1
   157   170   169    1
   158   137   138    1
   159   178   175    1
   160   178   179    1
   161   131   132    1
   162    70    76    1
   163    75    76    1
   164   175   174    1
   165   209   211   ar
   166   209   207   ar
   167   174   167   am
   168   211   210   ar
   169   180   179    1
   170   180   181    1
   171   169   166    1
   172   138   139    2
   173   138   144   am
   174   132   133    2
   175   207   206   ar
   176   166   167    1
   177   166   165    1
   178   167   168    2
   179   210   208   ar
   180   144   145    1
   181   147   146    2
   182   206   208   ar
   183   206   205    1
   184   159   158    2
   185   133   134    1
   186   133   135    1
   187   165   158   am
   188   146   145    1
   189   146   148   am
   190   158   157    1
   191   205   202    1
   192   148   149    1
   193   149   150    1
   194   149   152    1
   195   156   157    1
   196   156   150   am
   197   157   160    1
   198   150   151    2
   199   202   201    1
   200   202   203    1
   201   152   153    1
   202   203   204    2
   203   160   161    1
   204   153   154   ar
   205   153   155   ar
   206   161   162    1
   207   162   163    1
   208   163   164    1
