@<TRIPOS>MOLECULE
tmp/5h5kB00.pdb
 144 137 0 0 0
SMALL
GASTEIGER

@<TRIPOS>ATOM
      1  N          6.7740   39.2980  -17.2600 N.3     9  ASP9       -0.1225
      2  CA         6.8680   38.5600  -18.4970 C.3     9  ASP9        0.1805
      3  C          6.7940   39.5710  -19.6470 C.2     9  ASP9        0.2598
      4  O          6.0480   40.5360  -19.5470 O.2     9  ASP9       -0.2718
      5  CB         5.7020   37.5770  -18.6160 C.3     9  ASP9        0.1424
      6  CG         5.6550   36.5770  -17.4860 C.2     9  ASP9        0.3668
      7  OD1        5.2410   36.9430  -16.3650 O.co2   9  ASP9       -0.2456
      8  OD2        6.0130   35.4160  -17.7420 O.co2   9  ASP9       -0.2456
      9  N          7.5970   39.3620  -20.6990 N.am   10  GLY10      -0.1942
     10  CA         7.6250   40.2340  -21.8720 C.3    10  GLY10       0.2014
     11  C          8.3550   41.5540  -21.7130 C.2    10  GLY10       0.2640
     12  O          8.2930   42.3890  -22.5970 O.2    10  GLY10      -0.2714
     13  N          9.0470   41.7540  -20.5960 N.am   11  SER11      -0.1935
     14  CA         9.8150   42.9770  -20.3640 C.3    11  SER11       0.2055
     15  C         11.1850   42.9750  -21.0840 C.2    11  SER11       0.2644
     16  O         11.8810   43.9980  -21.0790 O.2    11  SER11      -0.2714
     17  CB        10.0040   43.2390  -18.8570 C.3    11  SER11       0.2130
     18  OG        10.6780   42.1510  -18.2300 O.3    11  SER11      -0.2179
     19  N         11.5770   41.8520  -21.6850 N.am   12  GLY12      -0.1939
     20  CA        12.8430   41.7700  -22.4070 C.3    12  GLY12       0.2014
     21  C         14.0540   41.3090  -21.5970 C.2    12  GLY12       0.2639
     22  O         15.1760   41.5760  -21.9920 O.2    12  GLY12      -0.2714
     23  N         13.8330   40.6030  -20.4880 N.am   13  LYS13      -0.1963
     24  CA        14.8960   40.1320  -19.6160 C.3    13  LYS13       0.1728
     25  C         15.7710   39.1680  -20.3650 C.2    13  LYS13       0.2617
     26  O         17.0000   39.3200  -20.3960 O.2    13  LYS13      -0.2715
     27  CB        14.3460   39.3970  -18.3730 C.3    13  LYS13       0.0311
     28  CG        13.5740   40.2890  -17.4010 C.3    13  LYS13       0.0038
     29  CD        12.9320   39.5110  -16.2530 C.3    13  LYS13       0.0206
     30  CE        12.0790   38.3170  -16.6980 C.3    13  LYS13       0.1093
     31  NZ        10.7330   38.7220  -17.2090 N.3    13  LYS13      -0.1314
     32  N         15.1500   38.1620  -20.9620 N.am   14  THR14      -0.1937
     33  CA        15.9510   37.1630  -21.6200 C.3    14  THR14       0.2028
     34  C         16.7910   37.8120  -22.7050 C.2    14  THR14       0.2643
     35  O         17.9790   37.5550  -22.7960 O.2    14  THR14      -0.2714
     36  CB        15.1040   36.0230  -22.1690 C.3    14  THR14       0.1808
     37  OG1       14.3540   35.4590  -21.0840 O.3    14  THR14      -0.2208
     38  CG2       15.9910   34.9350  -22.8030 C.3    14  THR14       0.0379
     39  N         16.1760   38.6950  -23.4850 N.am   15  THR15      -0.1936
     40  CA        16.8500   39.3140  -24.5970 C.3    15  THR15       0.2028
     41  C         18.0110   40.2040  -24.1440 C.2    15  THR15       0.2642
     42  O         19.0940   40.1480  -24.7290 O.2    15  THR15      -0.2714
     43  CB        15.8810   40.1600  -25.4400 C.3    15  THR15       0.1808
     44  OG1       14.8290   39.3310  -25.9530 O.3    15  THR15      -0.2208
     45  CG2       16.6110   40.7800  -26.5970 C.3    15  THR15       0.0379
     46  N         17.7660   41.0450  -23.1470 N.am   16  GLN16      -0.1976
     47  CA        18.7830   41.9690  -22.6550 C.3    16  GLN16       0.1601
     48  C         19.9340   41.2940  -21.8890 C.2    16  GLN16       0.2287
     49  O         21.0840   41.7090  -22.0260 O.2    16  GLN16      -0.2864
     50  CB        18.1500   43.0590  -21.7890 C.3    16  GLN16       0.0394
     51  CG        17.2230   43.9970  -22.5770 C.3    16  GLN16       0.0908
     52  CD        17.9130   44.8080  -23.6850 C.2    16  GLN16       0.2608
     53  OE1       17.2630   45.2480  -24.6490 O.2    16  GLN16      -0.2717
     54  NE2       19.2170   45.0230  -23.5460 N.am   16  GLN16      -0.0878
     55  N         16.1300   36.7150  -14.0560 N.3    90  ARG90      -0.1245
     56  CA        15.2590   36.6180  -12.8520 C.3    90  ARG90       0.1563
     57  C         16.0450   36.2240  -11.6280 C.2    90  ARG90       0.2260
     58  O         16.9280   35.3940  -11.6950 O.2    90  ARG90      -0.2867
     59  CB        14.0880   35.6380  -12.9690 C.3    90  ARG90       0.0307
     60  CG        13.1110   35.8720  -14.1000 C.3    90  ARG90       0.0489
     61  CD        11.9310   34.9150  -13.9790 C.3    90  ARG90       0.2205
     62  NE        10.8010   35.2890  -14.8250 N.pl3  90  ARG90      -0.0865
     63  CZ         9.9240   36.2750  -14.5920 C.cat  90  ARG90       0.5346
     64  NH1       10.0430   37.0820  -13.5320 N.pl3  90  ARG90       0.1354
     65  NH2        8.9190   36.4730  -15.4580 N.pl3  90  ARG90       0.1354
     66  N          3.5340   42.3540  -26.8350 N.3   139  ARG139     -0.1231
     67  CA         4.7510   41.6440  -27.2690 C.3   139  ARG139      0.1694
     68  C          4.6090   40.1450  -27.1460 C.2   139  ARG139      0.2591
     69  O          4.9650   39.3940  -28.0560 O.2   139  ARG139     -0.2718
     70  CB         5.9740   42.1060  -26.4770 C.3   139  ARG139      0.0321
     71  CG         6.4370   43.5240  -26.7720 C.3   139  ARG139      0.0489
     72  CD         7.6500   43.8110  -25.9110 C.3   139  ARG139      0.2205
     73  NE         8.0850   45.2000  -25.9270 N.pl3 139  ARG139     -0.0865
     74  CZ         9.0820   45.6580  -25.1790 C.cat 139  ARG139      0.5346
     75  NH1        9.7570   44.8310  -24.3700 N.pl3 139  ARG139      0.1354
     76  NH2        9.4170   46.9450  -25.2360 N.pl3 139  ARG139      0.1354
     77  N          4.0780   39.7000  -26.0160 N.am  140  LEU140     -0.1980
     78  CA         3.8580   38.2760  -25.8280 C.3   140  LEU140      0.1596
     79  C          2.8730   37.7420  -26.8570 C.2   140  LEU140      0.2287
     80  O          3.1080   36.6730  -27.3880 O.2   140  LEU140     -0.2864
     81  CB         3.4220   37.9510  -24.3900 C.3   140  LEU140      0.0297
     82  CG         4.4980   38.2730  -23.3230 C.3   140  LEU140      0.0022
     83  CD1        3.8740   38.2650  -21.9410 C.3   140  LEU140      0.0001
     84  CD2        5.7040   37.3330  -23.3560 C.3   140  LEU140      0.0001
     85  N          4.3230   36.4540  -29.9770 N.3   143  LYS143     -0.1245
     86  CA         4.8680   35.0910  -29.8190 C.3   143  LYS143      0.1561
     87  C          3.8130   34.0110  -29.4670 C.2   143  LYS143      0.2260
     88  O          4.1870   32.8950  -29.0920 O.2   143  LYS143     -0.2867
     89  CB         5.9900   35.0900  -28.7700 C.3   143  LYS143      0.0271
     90  CG         7.0110   36.1490  -29.0550 C.3   143  LYS143      0.0035
     91  CD         8.2610   35.9330  -28.2700 C.3   143  LYS143      0.0206
     92  CE         9.1380   37.1580  -28.3980 C.3   143  LYS143      0.1093
     93  NZ         8.3640   38.3890  -27.9500 N.3   143  LYS143     -0.1314
     94  N          1.7730   33.8820  -26.8620 N.3   145  ARG145     -0.1245
     95  CA         1.7170   33.6400  -25.4040 C.3   145  ARG145      0.1563
     96  C          0.8070   34.6890  -24.7550 C.2   145  ARG145      0.2260
     97  O          0.8780   35.8780  -25.0710 O.2   145  ARG145     -0.2867
     98  CB         3.1150   33.6570  -24.7790 C.3   145  ARG145      0.0307
     99  CG         4.0170   32.6090  -25.3900 C.3   145  ARG145      0.0489
    100  CD         5.3320   32.6690  -24.6400 C.3   145  ARG145      0.2205
    101  NE         5.1170   32.3640  -23.1990 N.pl3 145  ARG145     -0.0865
    102  CZ         6.1030   32.8080  -22.3940 C.cat 145  ARG145      0.5346
    103  NH1        7.1090   33.4640  -22.9740 N.pl3 145  ARG145      0.1354
    104  NH2        6.0350   32.5800  -21.0990 N.pl3 145  ARG145      0.1354
    105  N         11.9290   49.7040  -19.9250 N.3   174  ALA174     -0.1231
    106  CA        12.0390   48.6100  -20.8890 C.3   174  ALA174      0.1694
    107  C         11.0850   48.7630  -22.0590 C.2   174  ALA174      0.2593
    108  O         11.0850   47.8910  -22.9460 O.2   174  ALA174     -0.2718
    109  CB        11.8020   47.2870  -20.2090 C.3   174  ALA174      0.0304
    110  N         10.2810   49.8360  -22.0790 N.am  175  SER175     -0.1938
    111  CA         9.3230   50.0620  -23.1760 C.3   175  SER175      0.2055
    112  C          9.9650   50.5020  -24.4840 C.2   175  SER175      0.2644
    113  O          9.3420   50.3520  -25.5340 O.2   175  SER175     -0.2714
    114  CB         8.2430   51.0790  -22.7810 C.3   175  SER175      0.2130
    115  OG         8.7400   52.4080  -22.7660 O.3   175  SER175     -0.2179
    116  N         11.1930   51.0250  -24.4320 N.am  176  GLY176     -0.1939
    117  CA        11.8830   51.4790  -25.6420 C.3   176  GLY176      0.2014
    118  C         12.2540   50.3280  -26.5690 C.2   176  GLY176      0.2639
    119  O         11.9450   49.1660  -26.2610 O.2   176  GLY176     -0.2714
    120  N         12.9210   50.6550  -27.6860 N.am  177  GLU177     -0.1963
    121  CA        13.4420   49.6440  -28.6290 C.3   177  GLU177      0.1733
    122  C         14.7170   48.9860  -28.0470 C.2   177  GLU177      0.2616
    123  O         15.3340   49.5190  -27.1340 O.2   177  GLU177     -0.2715
    124  CB        13.7040   50.2570  -30.0120 C.3   177  GLU177      0.0429
    125  CG        12.4770   50.9800  -30.5770 C.3   177  GLU177      0.1163
    126  CD        12.8110   51.8300  -31.7920 C.2   177  GLU177      0.3649
    127  OE1       13.9640   51.7220  -32.2850 O.co2 177  GLU177     -0.2457
    128  OE2       11.9030   52.5640  -32.2350 O.co2 177  GLU177     -0.2457
    129  N         15.0600   47.8160  -28.5800 N.am  178  GLU178     -0.1977
    130  CA        16.0610   46.9240  -28.0370 C.3   178  GLU178      0.1602
    131  C         17.3800   47.6260  -27.7330 C.2   178  GLU178      0.2287
    132  O         17.9740   47.4440  -26.6500 O.2   178  GLU178     -0.2864
    133  CB        16.2710   45.7890  -29.0320 C.3   178  GLU178      0.0415
    134  CG        17.3070   44.7600  -28.6330 C.3   178  GLU178      0.1163
    135  CD        17.2030   43.4700  -29.4220 C.2   178  GLU178      0.3649
    136  OE1       18.2750   42.9600  -29.7810 O.co2 178  GLU178     -0.2457
    137  OE2       16.0700   42.9660  -29.6550 O.co2 178  GLU178     -0.2457
    138  N         17.1930   50.3220  -24.9010 N.3   181  VAL181     -0.1245
    139  CA        17.0850   49.7440  -23.5800 C.3   181  VAL181      0.1561
    140  C         18.4800   49.2870  -23.1670 C.2   181  VAL181      0.2260
    141  O         18.9110   49.6060  -22.0690 O.2   181  VAL181     -0.2867
    142  CB        16.0680   48.6020  -23.5270 C.3   181  VAL181      0.0252
    143  CG1       16.1700   47.8380  -22.2090 C.3   181  VAL181      0.0019
    144  CG2       14.6640   49.1720  -23.7250 C.3   181  VAL181      0.0019
@<TRIPOS>BOND
     1   127   126   ar
     2   128   126   ar
     3   126   125    1
     4   125   124    1
     5   124   121    1
     6    85    86    1
     7    86    87    1
     8    86    89    1
     9   136   135   ar
    10   137   135   ar
    11    87    88    2
    12   135   134    1
    13    90    89    1
    14    90    91    1
    15   133   134    1
    16   133   130    1
    17   121   122    1
    18   121   120    1
    19   129   122   am
    20   129   130    1
    21    92    91    1
    22    92    93    1
    23    69    68    2
    24   122   123    2
    25   130   131    1
    26   131   132    2
    27   120   118   am
    28    80    79    2
    29    67    68    1
    30    67    66    1
    31    67    70    1
    32    68    77   am
    33    94    95    1
    34    79    78    1
    35    71    70    1
    36    71    72    1
    37    45    43    1
    38   118   119    2
    39   118   117    1
    40    77    78    1
    41    44    43    1
    42    73    72    1
    43    73    74    2
    44    78    81    1
    45   117   116    1
    46   113   112    2
    47    43    40    1
    48    95    98    1
    49    95    96    1
    50    99    98    1
    51    99   100    1
    52    76    74    1
    53    74    75    1
    54    97    96    2
    55   138   139    1
    56    42    41    2
    57    53    52    2
    58   100   101    1
    59    40    41    1
    60    40    39    1
    61   112   116   am
    62   112   111    1
    63    81    82    1
    64    41    46   am
    65   144   142    1
    66    52    54   am
    67    52    51    1
    68   139   142    1
    69   139   140    1
    70   142   143    1
    71    39    34   am
    72    84    82    1
    73    82    83    1
    74   101   102    2
    75   111   114    1
    76   111   110    1
    77   140   141    2
    78    46    47    1
    79   103   102    1
    80   108   107    2
    81    38    36    1
    82    35    34    2
    83   114   115    1
    84    34    33    1
    85    47    48    1
    86    47    50    1
    87    12    11    2
    88    51    50    1
    89    20    19    1
    90    20    21    1
    91   102   104    1
    92    36    33    1
    93    36    37    1
    94   110   107   am
    95   107   106    1
    96    49    48    2
    97    22    21    2
    98    10    11    1
    99    10     9    1
   100    11    13   am
   101    19    15   am
   102    33    32    1
   103    21    23   am
   104    15    16    2
   105    15    14    1
   106    32    25   am
   107   106   109    1
   108   106   105    1
   109     9     3   am
   110    13    14    1
   111    23    24    1
   112    26    25    2
   113    25    24    1
   114    14    17    1
   115     3     4    2
   116     3     2    1
   117    24    27    1
   118    17    18    1
   119     5     2    1
   120     5     6    1
   121     2     1    1
   122    27    28    1
   123     8     6   ar
   124     6     7   ar
   125    28    29    1
   126    31    30    1
   127    30    29    1
   128    65    63    1
   129    62    63    2
   130    62    61    1
   131    63    64    1
   132    60    61    1
   133    60    59    1
   134    55    56    1
   135    59    56    1
   136    56    57    1
   137    58    57    2
