@<TRIPOS>MOLECULE
tmp/5h5kB01.pdb
 183 173 0 0 0
SMALL
GASTEIGER

@<TRIPOS>ATOM
      1  N          6.7740   39.2980  -17.2600 N.3     9  ASP9       -0.1239
      2  CA         6.8680   38.5600  -18.4970 C.3     9  ASP9        0.1674
      3  C          6.7940   39.5710  -19.6470 C.2     9  ASP9        0.2266
      4  O          6.0480   40.5360  -19.5470 O.2     9  ASP9       -0.2867
      5  CB         5.7020   37.5770  -18.6160 C.3     9  ASP9        0.1410
      6  CG         5.6550   36.5770  -17.4860 C.2     9  ASP9        0.3668
      7  OD1        5.2410   36.9430  -16.3650 O.co2   9  ASP9       -0.2456
      8  OD2        6.0130   35.4160  -17.7420 O.co2   9  ASP9       -0.2456
      9  N         13.8330   40.6030  -20.4880 N.3    13  LYS13      -0.1231
     10  CA        14.8960   40.1320  -19.6160 C.3    13  LYS13       0.1693
     11  C         15.7710   39.1680  -20.3650 C.2    13  LYS13       0.2592
     12  O         17.0000   39.3200  -20.3960 O.2    13  LYS13      -0.2718
     13  CB        14.3460   39.3970  -18.3730 C.3    13  LYS13       0.0285
     14  CG        13.5740   40.2890  -17.4010 C.3    13  LYS13       0.0035
     15  CD        12.9320   39.5110  -16.2530 C.3    13  LYS13       0.0206
     16  CE        12.0790   38.3170  -16.6980 C.3    13  LYS13       0.1093
     17  NZ        10.7330   38.7220  -17.2090 N.3    13  LYS13      -0.1314
     18  N         15.1500   38.1620  -20.9620 N.am   14  THR14      -0.1953
     19  CA        15.9510   37.1630  -21.6200 C.3    14  THR14       0.1897
     20  C         16.7910   37.8120  -22.7050 C.2    14  THR14       0.2313
     21  O         17.9790   37.5550  -22.7960 O.2    14  THR14      -0.2863
     22  CB        15.1040   36.0230  -22.1690 C.3    14  THR14       0.1794
     23  OG1       14.3540   35.4590  -21.0840 O.3    14  THR14      -0.2208
     24  CG2       15.9910   34.9350  -22.8030 C.3    14  THR14       0.0378
     25  N         19.4000   31.1220  -15.9960 N.3    35  ARG35      -0.1231
     26  CA        17.9980   31.4700  -15.7880 C.3    35  ARG35       0.1694
     27  C         17.4490   30.8440  -14.4890 C.2    35  ARG35       0.2592
     28  O         17.9340   29.7840  -14.0430 O.2    35  ARG35      -0.2718
     29  CB        17.1510   31.0440  -16.9790 C.3    35  ARG35       0.0321
     30  CG        16.9270   29.5300  -17.0720 C.3    35  ARG35       0.0489
     31  CD        16.2750   29.1680  -18.3900 C.3    35  ARG35       0.2205
     32  NE        16.1730   27.7290  -18.6240 N.pl3  35  ARG35      -0.0865
     33  CZ        15.4470   27.1820  -19.6060 C.cat  35  ARG35       0.5346
     34  NH1       14.7300   27.9550  -20.4330 N.pl3  35  ARG35       0.1354
     35  NH2       15.4130   25.8620  -19.7570 N.pl3  35  ARG35       0.1354
     36  N         16.4340   31.5200  -13.9260 N.am   36  GLU36      -0.1966
     37  CA        15.6880   31.0530  -12.7700 C.3    36  GLU36       0.1718
     38  C         14.1900   30.9750  -13.1250 C.2    36  GLU36       0.2458
     39  O         13.6230   31.9430  -13.6460 O.2    36  GLU36      -0.2730
     40  CB        15.8640   31.9850  -11.5910 C.3    36  GLU36       0.0428
     41  CG        17.2480   31.9430  -10.9680 C.3    36  GLU36       0.1163
     42  CD        17.1560   31.7470   -9.4780 C.2    36  GLU36       0.3649
     43  OE1       17.0280   32.7570   -8.7410 O.co2  36  GLU36      -0.2457
     44  OE2       17.1110   30.5660   -9.0640 O.co2  36  GLU36      -0.2457
     45  N         13.5350   29.8500  -12.8470 N.am   37  PRO37      -0.2727
     46  CA        14.1560   28.6120  -12.3610 C.3    37  PRO37       0.1402
     47  C         14.9000   27.9310  -13.5040 C.2    37  PRO37       0.2269
     48  O         14.6060   28.1890  -14.6670 O.2    37  PRO37      -0.2865
     49  CB        12.9520   27.7800  -11.9440 C.3    37  PRO37       0.0296
     50  CG        11.8740   28.2740  -12.8640 C.3    37  PRO37       0.0237
     51  CD        12.0780   29.7320  -12.9440 C.3    37  PRO37       0.0939
     52  N         12.1280   23.2740  -13.0430 N.3    47  ARG47      -0.1245
     53  CA        11.5490   24.1940  -14.0220 C.3    47  ARG47       0.1563
     54  C         10.4260   23.4900  -14.7950 C.2    47  ARG47       0.2260
     55  O          9.2970   23.9840  -14.8090 O.2    47  ARG47      -0.2867
     56  CB        12.6080   24.7600  -14.9790 C.3    47  ARG47       0.0307
     57  CG        12.0910   25.8330  -15.9530 C.3    47  ARG47       0.0489
     58  CD        13.1080   26.2190  -17.0120 C.3    47  ARG47       0.2205
     59  NE        12.5350   27.1970  -17.9350 N.pl3  47  ARG47      -0.0865
     60  CZ        12.4750   28.5190  -17.7340 C.cat  47  ARG47       0.5346
     61  NH1       12.9700   29.1090  -16.6270 N.pl3  47  ARG47       0.1354
     62  NH2       11.9100   29.2820  -18.6720 N.pl3  47  ARG47       0.1354
     63  N          6.3680   24.5680  -14.7750 N.3    51  LEU51      -0.1245
     64  CA         5.6450   24.9600  -15.9990 C.3    51  LEU51       0.1561
     65  C          4.5730   23.9470  -16.4250 C.2    51  LEU51       0.2260
     66  O          3.5670   24.3300  -17.0010 O.2    51  LEU51      -0.2867
     67  CB         6.6300   25.2100  -17.1500 C.3    51  LEU51       0.0270
     68  CG         7.7480   26.2230  -16.8760 C.3    51  LEU51       0.0019
     69  CD1        8.6330   26.3820  -18.1060 C.3    51  LEU51       0.0001
     70  CD2        7.2260   27.5780  -16.4070 C.3    51  LEU51       0.0001
     71  N          4.7270   25.9280   -5.1250 N.3    60  GLU60      -0.1245
     72  CA         5.4150   26.7360   -6.1350 C.3    60  GLU60       0.1567
     73  C          6.6090   27.4910   -5.5370 C.2    60  GLU60       0.2260
     74  O          7.7070   27.3820   -6.0420 O.2    60  GLU60      -0.2867
     75  CB         4.4530   27.7560   -6.7290 C.3    60  GLU60       0.0388
     76  CG         4.3430   27.7260   -8.2250 C.3    60  GLU60       0.1160
     77  CD         3.3490   28.7580   -8.7440 C.2    60  GLU60       0.3649
     78  OE1        3.0000   29.7020   -7.9990 O.co2  60  GLU60      -0.2457
     79  OE2        2.9100   28.6270   -9.9030 O.co2  60  GLU60      -0.2457
     80  N         10.5940   27.0430   -6.4630 N.3    64  PHE64      -0.1241
     81  CA        11.4090   28.1640   -6.9780 C.3    64  PHE64       0.1605
     82  C         12.6550   28.3250   -6.1200 C.2    64  PHE64       0.2264
     83  O         13.7450   28.4940   -6.6400 O.2    64  PHE64      -0.2867
     84  CB        10.6870   29.5080   -7.0000 C.3    64  PHE64       0.0534
     85  CG         9.7310   29.6740   -8.1370 C.ar   64  PHE64      -0.0203
     86  CD1       10.1450   29.5350   -9.4620 C.ar   64  PHE64      -0.0042
     87  CD2        8.4020   29.9980   -7.8880 C.ar   64  PHE64      -0.0042
     88  CE1        9.2440   29.7010  -10.5060 C.ar   64  PHE64      -0.0003
     89  CE2        7.4980   30.1770   -8.9280 C.ar   64  PHE64      -0.0003
     90  CZ         7.9110   30.0210  -10.2340 C.ar   64  PHE64      -0.0000
     91  N         18.9070   35.8000  -15.2460 N.3    89  ASP89      -0.1225
     92  CA        17.6300   36.0750  -15.8910 C.3    89  ASP89       0.1805
     93  C         16.5510   35.7110  -14.8430 C.2    89  ASP89       0.2597
     94  O         16.1300   34.5710  -14.7860 O.2    89  ASP89      -0.2718
     95  CB        17.5210   35.2360  -17.1850 C.3    89  ASP89       0.1424
     96  CG        16.1960   35.4320  -17.9320 C.2    89  ASP89       0.3668
     97  OD1       15.2710   36.0620  -17.3840 O.co2  89  ASP89      -0.2456
     98  OD2       16.0720   34.9350  -19.0790 O.co2  89  ASP89      -0.2456
     99  N         16.1300   36.7150  -14.0560 N.am   90  ARG90      -0.1979
    100  CA        15.2590   36.6180  -12.8520 C.3    90  ARG90       0.1597
    101  C         16.0450   36.2240  -11.6280 C.2    90  ARG90       0.2287
    102  O         16.9280   35.3940  -11.6950 O.2    90  ARG90      -0.2864
    103  CB        14.0880   35.6380  -12.9690 C.3    90  ARG90       0.0334
    104  CG        13.1110   35.8720  -14.1000 C.3    90  ARG90       0.0492
    105  CD        11.9310   34.9150  -13.9790 C.3    90  ARG90       0.2205
    106  NE        10.8010   35.2890  -14.8250 N.pl3  90  ARG90      -0.0865
    107  CZ         9.9240   36.2750  -14.5920 C.cat  90  ARG90       0.5346
    108  NH1       10.0430   37.0820  -13.5320 N.pl3  90  ARG90       0.1354
    109  NH2        8.9190   36.4730  -15.4580 N.pl3  90  ARG90       0.1354
    110  N         11.8470   38.8170   -8.2040 N.3    94  SER94      -0.1202
    111  CA        10.8000   38.1530   -8.9540 C.3    94  SER94       0.2020
    112  C         10.0150   37.2650   -8.0540 C.2    94  SER94       0.2619
    113  O          8.7880   37.1890   -8.1530 O.2    94  SER94      -0.2717
    114  CB        11.3540   37.3160  -10.1390 C.3    94  SER94       0.2103
    115  OG        11.7480   38.1740  -11.2030 O.3    94  SER94      -0.2182
    116  N         10.7000   36.5910   -7.1480 N.am   95  THR95      -0.1952
    117  CA         9.9850   35.7250   -6.2260 C.3    95  THR95       0.1897
    118  C          9.0410   36.5200   -5.3870 C.2    95  THR95       0.2313
    119  O          7.8870   36.1450   -5.2490 O.2    95  THR95      -0.2863
    120  CB        10.9290   34.8640   -5.3740 C.3    95  THR95       0.1794
    121  OG1       11.7960   34.1590   -6.2570 O.3    95  THR95      -0.2208
    122  CG2       10.1520   33.8310   -4.5980 C.3    95  THR95       0.0378
    123  N          6.0630   38.0500   -7.5860 N.3    98  TYR98      -0.1227
    124  CA         5.1040   37.0990   -8.0800 C.3    98  TYR98       0.1736
    125  C          4.3900   36.3530   -6.9730 C.2    98  TYR98       0.2595
    126  O          3.1620   36.2810   -6.9900 O.2    98  TYR98      -0.2718
    127  CB         5.7590   36.0880   -8.9960 C.3    98  TYR98       0.0548
    128  CG         5.9280   36.5610  -10.3970 C.ar   98  TYR98      -0.0200
    129  CD1        6.9170   37.4750  -10.7390 C.ar   98  TYR98      -0.0009
    130  CD2        5.1260   36.0740  -11.4080 C.ar   98  TYR98      -0.0009
    131  CE1        7.0920   37.8930  -12.0540 C.ar   98  TYR98       0.0417
    132  CE2        5.2920   36.4880  -12.7210 C.ar   98  TYR98       0.0417
    133  CZ         6.2820   37.3870  -13.0410 C.ar   98  TYR98       0.1957
    134  OH         6.4350   37.7730  -14.3670 O.3    98  TYR98      -0.2866
    135  N          5.1440   35.7960   -6.0280 N.am   99  GLN99      -0.1979
    136  CA         4.5480   34.9940   -4.9530 C.3    99  GLN99       0.1601
    137  C          3.9940   35.8240   -3.8110 C.2    99  GLN99       0.2287
    138  O          3.0200   35.4070   -3.1740 O.2    99  GLN99      -0.2864
    139  CB         5.5260   33.9590   -4.4130 C.3    99  GLN99       0.0394
    140  CG         6.1300   33.0250   -5.4600 C.3    99  GLN99       0.0908
    141  CD         5.1140   32.3250   -6.3350 C.2    99  GLN99       0.2608
    142  OE1        4.4080   31.4090   -5.8910 O.2    99  GLN99      -0.2717
    143  NE2        5.0310   32.7380   -7.5740 N.am   99  GLN99      -0.0878
    144  N          0.5670   36.6220   -5.6440 N.3   103  LYS103     -0.1245
    145  CA        -0.3070   35.5550   -5.1200 C.3   103  LYS103      0.1561
    146  C         -0.6150   35.6460   -3.6500 C.2   103  LYS103      0.2260
    147  O         -1.3170   34.7860   -3.1150 O.2   103  LYS103     -0.2867
    148  CB         0.2710   34.1900   -5.4590 C.3   103  LYS103      0.0271
    149  CG         0.4820   34.0180   -6.9430 C.3   103  LYS103      0.0035
    150  CD         0.6510   32.5800   -7.3370 C.3   103  LYS103      0.0206
    151  CE         0.6500   32.4940   -8.8370 C.3   103  LYS103      0.1093
    152  NZ         0.8670   31.1010   -9.2960 N.3   103  LYS103     -0.1314
    153  N          1.7730   33.8820  -26.8620 N.3   145  ARG145     -0.1245
    154  CA         1.7170   33.6400  -25.4040 C.3   145  ARG145      0.1563
    155  C          0.8070   34.6890  -24.7550 C.2   145  ARG145      0.2260
    156  O          0.8780   35.8780  -25.0710 O.2   145  ARG145     -0.2867
    157  CB         3.1150   33.6570  -24.7790 C.3   145  ARG145      0.0307
    158  CG         4.0170   32.6090  -25.3900 C.3   145  ARG145      0.0489
    159  CD         5.3320   32.6690  -24.6400 C.3   145  ARG145      0.2205
    160  NE         5.1170   32.3640  -23.1990 N.pl3 145  ARG145     -0.0865
    161  CZ         6.1030   32.8080  -22.3940 C.cat 145  ARG145      0.5346
    162  NH1        7.1090   33.4640  -22.9740 N.pl3 145  ARG145      0.1354
    163  NH2        6.0350   32.5800  -21.0990 N.pl3 145  ARG145      0.1354
    164  N         -0.8510   36.1040  -21.1270 N.3   147  GLU147     -0.1245
    165  CA        -0.7330   36.1280  -19.6560 C.3   147  GLU147      0.1567
    166  C         -1.7920   37.0160  -19.0460 C.2   147  GLU147      0.2260
    167  O         -2.4230   37.8220  -19.7320 O.2   147  GLU147     -0.2867
    168  CB         0.6580   36.6060  -19.2080 C.3   147  GLU147      0.0388
    169  CG         1.8220   35.7460  -19.6930 C.3   147  GLU147      0.1160
    170  CD         1.8020   34.3280  -19.1510 C.2   147  GLU147      0.3649
    171  OE1        1.2570   34.1070  -18.0350 O.co2 147  GLU147     -0.2457
    172  OE2        2.3400   33.4300  -19.8530 O.co2 147  GLU147     -0.2457
    173  N         -3.2390   39.9050  -12.9080 N.3   151  PHE151     -0.1241
    174  CA        -2.1450   39.3600  -12.1060 C.3   151  PHE151      0.1605
    175  C         -0.8490   40.1530  -12.3350 C.2   151  PHE151      0.2264
    176  O         -0.1910   40.5610  -11.3870 O.2   151  PHE151     -0.2867
    177  CB        -1.9910   37.8550  -12.3930 C.3   151  PHE151      0.0534
    178  CG        -0.7960   37.2280  -11.7420 C.ar  151  PHE151     -0.0203
    179  CD1       -0.7320   37.0990  -10.3540 C.ar  151  PHE151     -0.0042
    180  CD2        0.2720   36.7650  -12.5260 C.ar  151  PHE151     -0.0042
    181  CE1        0.3800   36.5370   -9.7480 C.ar  151  PHE151     -0.0003
    182  CE2        1.3830   36.1940  -11.9240 C.ar  151  PHE151     -0.0003
    183  CZ         1.4410   36.0820  -10.5290 C.ar  151  PHE151     -0.0000
@<TRIPOS>BOND
     1   153   154    1
     2   154   157    1
     3   154   155    1
     4   158   157    1
     5   158   159    1
     6   156   155    2
     7   159   160    1
     8   160   161    2
     9   162   161    1
    10    24    22    1
    11    21    20    2
    12    20    19    1
    13   161   163    1
    14    22    19    1
    15    22    23    1
    16    19    18    1
    17   164   165    1
    18    18    11   am
    19     9    10    1
    20    34    33    1
    21    12    11    2
    22    11    10    1
    23   172   170   ar
    24    35    33    1
    25   167   166    2
    26   169   168    1
    27   169   170    1
    28   165   168    1
    29   165   166    1
    30     3     4    2
    31     3     2    1
    32    10    13    1
    33    33    32    2
    34   170   171   ar
    35    98    96   ar
    36    62    60    1
    37    32    31    1
    38     5     2    1
    39     5     6    1
    40     2     1    1
    41    31    30    1
    42    13    14    1
    43    69    68    1
    44    59    60    2
    45    59    58    1
    46    96    97   ar
    47    96    95    1
    48     8     6   ar
    49    60    61    1
    50     6     7   ar
    51    14    15    1
    52    17    16    1
    53    95    92    1
    54    67    68    1
    55    67    64    1
    56    30    29    1
    57    58    57    1
    58    66    65    2
    59    29    26    1
    60    68    70    1
    61    16    15    1
    62    65    64    1
    63    64    63    1
    64    25    26    1
    65    57    56    1
    66    92    91    1
    67    92    93    1
    68    26    27    1
    69   109   107    1
    70    56    53    1
    71    93    94    2
    72    93    99   am
    73   106   107    2
    74   106   105    1
    75    55    54    2
    76    54    53    1
    77    48    47    2
    78   107   108    1
    79    27    28    2
    80    27    36   am
    81   134   133    1
    82   104   105    1
    83   104   103    1
    84    99   100    1
    85    53    52    1
    86    36    37    1
    87    39    38    2
    88    47    46    1
    89    38    45   am
    90    38    37    1
    91   133   132   ar
    92   133   131   ar
    93   103   100    1
    94    51    50    1
    95    51    45    1
    96   173   174    1
    97    50    49    1
    98   100   101    1
    99    45    46    1
   100    37    40    1
   101   132   130   ar
   102   180   182   ar
   103   180   178   ar
   104   177   174    1
   105   177   178    1
   106    46    49    1
   107   175   174    1
   108   175   176    2
   109   131   129   ar
   110   182   183   ar
   111   178   179   ar
   112   102   101    2
   113    40    41    1
   114   130   128   ar
   115   115   114    1
   116    41    42    1
   117   129   128   ar
   118   183   181   ar
   119    88    90   ar
   120    88    86   ar
   121   128   127    1
   122   179   181   ar
   123    90    89   ar
   124   114   111    1
   125    79    77   ar
   126    42    44   ar
   127    42    43   ar
   128    86    85   ar
   129   152   151    1
   130   127   124    1
   131   111   110    1
   132   111   112    1
   133    89    87   ar
   134   151   150    1
   135    77    76    1
   136    77    78   ar
   137    76    75    1
   138   113   112    2
   139    85    87   ar
   140    85    84    1
   141   124   123    1
   142   124   125    1
   143   112   116   am
   144   143   141   am
   145   150   149    1
   146   116   117    1
   147    84    81    1
   148   126   125    2
   149    81    80    1
   150    81    82    1
   151   125   135   am
   152   149   148    1
   153    75    72    1
   154    83    82    2
   155   141   142    2
   156   141   140    1
   157   121   120    1
   158   117   118    1
   159   117   120    1
   160    72    73    1
   161    72    71    1
   162    74    73    2
   163   135   136    1
   164   144   145    1
   165   140   139    1
   166   148   145    1
   167   118   119    2
   168   120   122    1
   169   145   146    1
   170   136   139    1
   171   136   137    1
   172   137   138    2
   173   146   147    2
