@<TRIPOS>MOLECULE
tmp/5h5lA00.pdb
 98 94 0 0 0
SMALL
GASTEIGER

@<TRIPOS>ATOM
      1  N         12.4190    6.9680  -15.7010 N.3     7  TYR7       -0.1241
      2  CA        11.8300    7.2590  -14.4060 C.3     7  TYR7        0.1605
      3  C         12.8080    8.1700  -13.6610 C.2     7  TYR7        0.2264
      4  O         13.9250    8.4360  -14.1230 O.2     7  TYR7       -0.2867
      5  CB        11.5510    5.9820  -13.6010 C.3     7  TYR7        0.0534
      6  CG        10.7530    6.2250  -12.3410 C.ar    7  TYR7       -0.0201
      7  CD1        9.4160    6.6480  -12.3970 C.ar    7  TYR7       -0.0009
      8  CD2       11.3310    6.0540  -11.0910 C.ar    7  TYR7       -0.0009
      9  CE1        8.6810    6.8910  -11.2320 C.ar    7  TYR7        0.0417
     10  CE2       10.5990    6.2840   -9.9200 C.ar    7  TYR7        0.0417
     11  CZ         9.2760    6.7050  -10.0160 C.ar    7  TYR7        0.1957
     12  OH         8.5380    6.9150   -8.8980 O.3     7  TYR7       -0.2866
     13  N         15.3330    7.4790   -8.3560 N.3    10  PHE10      -0.1241
     14  CA        15.1190    6.6740   -7.1580 C.3    10  PHE10       0.1605
     15  C         14.2660    5.4750   -7.5530 C.2    10  PHE10       0.2264
     16  O         13.8710    5.3310   -8.7150 O.2    10  PHE10      -0.2867
     17  CB        14.4430    7.4590   -6.0270 C.3    10  PHE10       0.0534
     18  CG        13.2200    8.2420   -6.4530 C.ar   10  PHE10      -0.0203
     19  CD1       11.9560    7.6820   -6.3810 C.ar   10  PHE10      -0.0042
     20  CD2       13.3370    9.5480   -6.8960 C.ar   10  PHE10      -0.0042
     21  CE1       10.8500    8.3960   -6.7670 C.ar   10  PHE10      -0.0003
     22  CE2       12.2210   10.2780   -7.2740 C.ar   10  PHE10      -0.0003
     23  CZ        10.9880    9.7150   -7.2110 C.ar   10  PHE10      -0.0000
     24  N         10.9290    4.0650   -6.3650 N.3    12  GLY12      -0.1210
     25  CA         9.5570    4.4490   -6.6780 C.3    12  GLY12       0.1956
     26  C          8.8210    3.4600   -7.5660 C.2    12  GLY12       0.2611
     27  O          8.9730    2.2430   -7.4330 O.2    12  GLY12      -0.2717
     28  N          8.0070    3.9820   -8.4880 N.am   13  LEU13      -0.1979
     29  CA         7.2480    3.1110   -9.3820 C.3    13  LEU13       0.1596
     30  C          8.0470    2.6420  -10.5830 C.2    13  LEU13       0.2287
     31  O          7.4920    1.9110  -11.4120 O.2    13  LEU13      -0.2864
     32  CB         5.9840    3.8060   -9.9150 C.3    13  LEU13       0.0297
     33  CG         4.8990    4.2760   -8.9530 C.3    13  LEU13       0.0022
     34  CD1        3.8010    4.9190   -9.8010 C.3    13  LEU13       0.0001
     35  CD2        4.3640    3.1330   -8.1260 C.3    13  LEU13       0.0001
     36  N         -1.6700    2.3860   -2.0470 N.3    98  ARG98      -0.1245
     37  CA        -0.6480    3.3370   -2.5090 C.3    98  ARG98       0.1563
     38  C         -1.2120    4.7330   -2.7170 C.2    98  ARG98       0.2260
     39  O         -0.4900    5.7330   -2.5830 O.2    98  ARG98      -0.2867
     40  CB        -0.0650    2.9020   -3.8550 C.3    98  ARG98       0.0307
     41  CG         1.0660    1.9930   -3.8170 C.3    98  ARG98       0.0489
     42  CD         1.9840    2.2630   -5.0000 C.3    98  ARG98       0.2205
     43  NE         1.3770    1.9830   -6.3030 N.pl3  98  ARG98      -0.0865
     44  CZ         1.0550    2.8940   -7.2150 C.cat  98  ARG98       0.5346
     45  NH1        1.2600    4.1920   -6.9980 N.pl3  98  ARG98       0.1354
     46  NH2        0.5370    2.4870   -8.3720 N.pl3  98  ARG98       0.1354
     47  N         -0.8110    6.8630    0.0180 N.3   101  ILE101     -0.1231
     48  CA         0.5720    7.3160    0.1280 C.3   101  ILE101      0.1692
     49  C          0.8200    8.5220   -0.7720 C.2   101  ILE101      0.2592
     50  O          1.5050    9.4750   -0.3820 O.2   101  ILE101     -0.2718
     51  CB         1.5260    6.1570   -0.2220 C.3   101  ILE101      0.0266
     52  CG1        1.8440    5.3420    1.0260 C.3   101  ILE101      0.0019
     53  CG2        2.7810    6.6770   -0.8980 C.3   101  ILE101      0.0020
     54  CD1        2.9070    4.2830    0.8280 C.3   101  ILE101      0.0001
     55  N          0.3240    8.4690   -2.0130 N.am  102  SER102     -0.1952
     56  CA         0.6600    9.4840   -3.0040 C.3   102  SER102      0.1924
     57  C          0.2780   10.8750   -2.5300 C.2   102  SER102      0.2314
     58  O          0.9250   11.8510   -2.9050 O.2   102  SER102     -0.2863
     59  CB        -0.0260    9.1750   -4.3400 C.3   102  SER102      0.2116
     60  OG         0.6760    8.1740   -5.0760 O.3   102  SER102     -0.2180
     61  N          3.0750   12.2380   -0.3530 N.3   105  PHE105     -0.1241
     62  CA         4.1910   12.6560   -1.1960 C.3   105  PHE105      0.1605
     63  C          3.9440   14.0020   -1.8410 C.2   105  PHE105      0.2264
     64  O          4.9030   14.6400   -2.2770 O.2   105  PHE105     -0.2867
     65  CB         4.4700   11.6390   -2.3090 C.3   105  PHE105      0.0534
     66  CG         5.3470   10.5040   -1.8880 C.ar  105  PHE105     -0.0203
     67  CD1        6.7120   10.5320   -2.1500 C.ar  105  PHE105     -0.0042
     68  CD2        4.8090    9.3960   -1.2430 C.ar  105  PHE105     -0.0042
     69  CE1        7.5270    9.4870   -1.7610 C.ar  105  PHE105     -0.0003
     70  CE2        5.6220    8.3470   -0.8480 C.ar  105  PHE105     -0.0003
     71  CZ         6.9800    8.3900   -1.1100 C.ar  105  PHE105     -0.0000
     72  N          7.9410   -1.9700   -4.3480 N.3   156  ILE156     -0.1245
     73  CA         7.3900   -0.7090   -3.8470 C.3   156  ILE156      0.1561
     74  C          7.4760   -0.6690   -2.3200 C.2   156  ILE156      0.2260
     75  O          7.8170    0.3670   -1.7370 O.2   156  ILE156     -0.2867
     76  CB         5.9560   -0.4870   -4.3680 C.3   156  ILE156      0.0252
     77  CG1        6.0390   -0.1280   -5.8390 C.3   156  ILE156      0.0019
     78  CG2        5.2460    0.6320   -3.5550 C.3   156  ILE156      0.0019
     79  CD1        4.8870   -0.5520   -6.6280 C.3   156  ILE156      0.0001
     80  N         10.9270    0.3450   -1.2790 N.3   159  PHE159     -0.1227
     81  CA        11.0700    1.7880   -1.3420 C.3   159  PHE159      0.1736
     82  C         10.3900    2.4740   -0.1540 C.2   159  PHE159      0.2595
     83  O         10.9470    3.4130    0.4260 O.2   159  PHE159     -0.2718
     84  CB        10.5310    2.2900   -2.6610 C.3   159  PHE159      0.0547
     85  CG        10.3980    3.7500   -2.7230 C.ar  159  PHE159     -0.0202
     86  CD1       11.5150    4.5570   -2.9020 C.ar  159  PHE159     -0.0042
     87  CD2        9.1590    4.3360   -2.6030 C.ar  159  PHE159     -0.0042
     88  CE1       11.3750    5.9070   -2.9660 C.ar  159  PHE159     -0.0003
     89  CE2        9.0300    5.6890   -2.6580 C.ar  159  PHE159     -0.0003
     90  CZ        10.1270    6.4730   -2.8370 C.ar  159  PHE159     -0.0000
     91  N          9.2200    2.0060    0.2560 N.am  160  MET160     -0.1979
     92  CA         8.5910    2.5740    1.4520 C.3   160  MET160      0.1605
     93  C          9.4380    2.3730    2.7080 C.2   160  MET160      0.2287
     94  O          9.4370    3.2290    3.6080 O.2   160  MET160     -0.2864
     95  CB         7.2210    1.9610    1.6810 C.3   160  MET160      0.0413
     96  CG         6.2260    2.3650    0.6310 C.3   160  MET160      0.0598
     97  SD         4.6710    1.4630    0.8240 S.3   160  MET160     -0.1393
     98  CE         4.4780    1.3720    2.6170 C.3   160  MET160      0.0692
@<TRIPOS>BOND
     1     1     2    1
     2     2     3    1
     3     2     5    1
     4     4     3    2
     5     5     6    1
     6     7     6   ar
     7     7     9   ar
     8     6     8   ar
     9    31    30    2
    10     9    11   ar
    11     8    10   ar
    12    30    29    1
    13    11    10   ar
    14    11    12    1
    15    32    29    1
    16    32    33    1
    17    34    33    1
    18    29    28    1
    19    33    35    1
    20    16    15    2
    21    28    26   am
    22    46    44    1
    23    13    14    1
    24    26    27    2
    25    26    25    1
    26    15    14    1
    27    22    23   ar
    28    22    20   ar
    29    44    45    1
    30    44    43    2
    31    23    21   ar
    32    14    17    1
    33    20    18   ar
    34    21    19   ar
    35    25    24    1
    36    79    77    1
    37    18    19   ar
    38    18    17    1
    39    43    42    1
    40    77    76    1
    41    60    59    1
    42    42    41    1
    43    76    73    1
    44    76    78    1
    45    72    73    1
    46    59    56    1
    47    40    41    1
    48    40    37    1
    49    73    74    1
    50    56    57    1
    51    56    55    1
    52    88    86   ar
    53    88    90   ar
    54    58    57    2
    55    86    85   ar
    56    90    89   ar
    57    85    84    1
    58    85    87   ar
    59    38    39    2
    60    38    37    1
    61    84    81    1
    62    89    87   ar
    63    37    36    1
    64    74    75    2
    65    65    66    1
    66    65    62    1
    67    64    63    2
    68    67    66   ar
    69    67    69   ar
    70    55    49   am
    71    66    68   ar
    72    63    62    1
    73    69    71   ar
    74    81    80    1
    75    81    82    1
    76    68    70   ar
    77    62    61    1
    78    71    70   ar
    79    53    51    1
    80    49    50    2
    81    49    48    1
    82    51    48    1
    83    51    52    1
    84    82    91   am
    85    82    83    2
    86    47    48    1
    87    91    92    1
    88    96    97    1
    89    96    95    1
    90    97    98    1
    91    54    52    1
    92    92    95    1
    93    92    93    1
    94    93    94    2
