@<TRIPOS>MOLECULE
tmp/5h5oA00.pdb
 152 146 0 0 0
SMALL
GASTEIGER

@<TRIPOS>ATOM
      1  N         -1.1730  -22.1190   18.9950 N.3    28  PHE28      -0.1241
      2  CA        -1.5790  -22.9680   17.8870 C.3    28  PHE28       0.1605
      3  C         -0.5420  -24.0450   17.5570 C.2    28  PHE28       0.2264
      4  O          0.6310  -23.9450   17.9440 O.2    28  PHE28      -0.2867
      5  CB        -1.9330  -22.1530   16.6310 C.3    28  PHE28       0.0534
      6  CG        -0.8470  -21.2210   16.1680 C.ar   28  PHE28      -0.0203
      7  CD1        0.2710  -21.7000   15.5090 C.ar   28  PHE28      -0.0042
      8  CD2       -0.9700  -19.8640   16.3570 C.ar   28  PHE28      -0.0042
      9  CE1        1.2550  -20.8430   15.0750 C.ar   28  PHE28      -0.0003
     10  CE2       -0.0050  -19.0050   15.9170 C.ar   28  PHE28      -0.0003
     11  CZ         1.1160  -19.4910   15.2710 C.ar   28  PHE28      -0.0000
     12  N          8.4620  -20.5460   19.0090 N.3    46  LEU46      -0.1245
     13  CA         8.0770  -21.1710   17.7540 C.3    46  LEU46       0.1561
     14  C          8.8220  -22.4950   17.5470 C.2    46  LEU46       0.2260
     15  O         10.0520  -22.5420   17.5690 O.2    46  LEU46      -0.2867
     16  CB         8.3330  -20.2210   16.5870 C.3    46  LEU46       0.0270
     17  CG         7.6390  -18.8670   16.7190 C.3    46  LEU46       0.0019
     18  CD1        7.9020  -18.0000   15.4860 C.3    46  LEU46       0.0001
     19  CD2        6.1500  -19.0570   16.9570 C.3    46  LEU46       0.0001
     20  N          9.4630  -25.3570   14.8910 N.3    48  PHE48      -0.1241
     21  CA         9.3490  -25.6590   13.4740 C.3    48  PHE48       0.1605
     22  C          9.4620  -27.1320   13.1370 C.2    48  PHE48       0.2264
     23  O          9.5510  -27.4910   11.9640 O.2    48  PHE48      -0.2867
     24  CB        10.3950  -24.8840   12.6900 C.3    48  PHE48       0.0534
     25  CG        10.1850  -23.4160   12.7250 C.ar   48  PHE48      -0.0203
     26  CD1        9.5300  -22.7740   11.6910 C.ar   48  PHE48      -0.0042
     27  CD2       10.6150  -22.6730   13.8040 C.ar   48  PHE48      -0.0042
     28  CE1        9.3170  -21.4220   11.7350 C.ar   48  PHE48      -0.0003
     29  CE2       10.4120  -21.3120   13.8410 C.ar   48  PHE48      -0.0003
     30  CZ         9.7670  -20.6890   12.8120 C.ar   48  PHE48      -0.0000
     31  N         12.6360  -20.7830   18.0090 N.3    54  LYS54      -0.1245
     32  CA        12.7310  -19.3290   17.9570 C.3    54  LYS54       0.1561
     33  C         11.9500  -18.7290   19.1080 C.2    54  LYS54       0.2260
     34  O         10.8390  -19.1670   19.4140 O.2    54  LYS54      -0.2867
     35  CB        12.2150  -18.7750   16.6320 C.3    54  LYS54       0.0271
     36  CG        13.2180  -18.8130   15.5060 C.3    54  LYS54       0.0035
     37  CD        12.6860  -18.0490   14.2970 C.3    54  LYS54       0.0206
     38  CE        13.6880  -18.0410   13.1480 C.3    54  LYS54       0.1093
     39  NZ        13.1220  -17.4170   11.9100 N.3    54  LYS54      -0.1314
     40  N         10.3280  -15.3600   20.7610 N.3    56  LEU56      -0.1245
     41  CA         9.8520  -14.0280   20.3910 C.3    56  LEU56       0.1561
     42  C          9.4100  -13.2680   21.6280 C.2    56  LEU56       0.2260
     43  O          8.4760  -13.6860   22.3290 O.2    56  LEU56      -0.2867
     44  CB         8.7190  -14.1080   19.3520 C.3    56  LEU56       0.0270
     45  CG         9.1380  -14.3080   17.8840 C.3    56  LEU56       0.0019
     46  CD1        9.9340  -15.5970   17.6480 C.3    56  LEU56       0.0001
     47  CD2        7.9140  -14.2810   16.9800 C.3    56  LEU56       0.0001
     48  N          4.3390  -12.4480   14.5930 N.3    62  PHE62      -0.1227
     49  CA         4.3970  -13.7510   13.9370 C.3    62  PHE62       0.1736
     50  C          3.0060  -14.1270   13.5000 C.2    62  PHE62       0.2596
     51  O          2.0280  -13.5840   14.0100 O.2    62  PHE62      -0.2718
     52  CB         4.9530  -14.8240   14.8820 C.3    62  PHE62       0.0547
     53  CG         4.1350  -15.0320   16.1470 C.ar   62  PHE62      -0.0202
     54  CD1        3.2200  -16.0730   16.2430 C.ar   62  PHE62      -0.0042
     55  CD2        4.3100  -14.2100   17.2470 C.ar   62  PHE62      -0.0042
     56  CE1        2.4850  -16.2890   17.4180 C.ar   62  PHE62      -0.0003
     57  CE2        3.5740  -14.4160   18.4300 C.ar   62  PHE62      -0.0003
     58  CZ         2.6740  -15.4500   18.5200 C.ar   62  PHE62      -0.0000
     59  N          2.9110  -15.0600   12.5590 N.am   63  GLY63      -0.1942
     60  CA         1.6150  -15.5060   12.0920 C.3    63  GLY63       0.2014
     61  C          1.0530  -14.7110   10.9290 C.2    63  GLY63       0.2639
     62  O         -0.0780  -14.9660   10.5000 O.2    63  GLY63      -0.2714
     63  N          1.8350  -13.7610   10.4100 N.am   64  GLU64      -0.1963
     64  CA         1.3690  -12.9260    9.2920 C.3    64  GLU64       0.1733
     65  C          1.1390  -13.7500    8.0180 C.2    64  GLU64       0.2616
     66  O          0.2860  -13.4000    7.2130 O.2    64  GLU64      -0.2715
     67  CB         2.2930  -11.7140    9.0460 C.3    64  GLU64       0.0429
     68  CG         3.5950  -11.9810    8.2530 C.3    64  GLU64       0.1163
     69  CD         4.6270  -12.8120    9.0120 C.2    64  GLU64       0.3649
     70  OE1        4.3770  -13.1740   10.1800 O.co2  64  GLU64      -0.2457
     71  OE2        5.6990  -13.0930    8.4380 O.co2  64  GLU64      -0.2457
     72  N          1.8740  -14.8540    7.8630 N.am   65  LEU65      -0.1963
     73  CA         1.6470  -15.7840    6.7480 C.3    65  LEU65       0.1728
     74  C          0.2400  -16.3750    6.7820 C.2    65  LEU65       0.2616
     75  O         -0.4490  -16.4290    5.7560 O.2    65  LEU65      -0.2715
     76  CB         2.6700  -16.9300    6.7540 C.3    65  LEU65       0.0311
     77  CG         4.1530  -16.5570    6.6730 C.3    65  LEU65       0.0022
     78  CD1        5.0220  -17.8160    6.6210 C.3    65  LEU65       0.0001
     79  CD2        4.4360  -15.6510    5.4720 C.3    65  LEU65       0.0001
     80  N         -0.1750  -16.8240    7.9660 N.am   66  GLY66      -0.1955
     81  CA        -1.5160  -17.3390    8.1560 C.3    66  GLY66       0.1869
     82  C         -2.5500  -16.2720    7.8530 C.2    66  GLY66       0.2309
     83  O         -3.6140  -16.5350    7.2940 O.2    66  GLY66      -0.2863
     84  N         -3.1620  -21.2720    4.2040 N.3    72  HIS72      -0.1241
     85  CA        -1.8130  -21.4900    4.7090 C.3    72  HIS72       0.1621
     86  C         -1.8900  -22.4350    5.8880 C.2    72  HIS72       0.2264
     87  O         -2.8160  -22.3570    6.6970 O.2    72  HIS72      -0.2867
     88  CB        -1.2160  -20.1670    5.1800 C.3    72  HIS72       0.0745
     89  CG         0.1370  -20.2940    5.8140 C.ar   72  HIS72       0.0817
     90  ND1        1.2550  -20.6720    5.1060 N.ar   72  HIS72      -0.2268
     91  CD2        0.5520  -20.0650    7.0880 C.ar   72  HIS72       0.1154
     92  CE1        2.3020  -20.6790    5.9160 C.ar   72  HIS72       0.1986
     93  NE2        1.9020  -20.3150    7.1220 N.ar   72  HIS72      -0.2212
     94  N          0.0740  -23.4310    9.3150 N.3    74  ARG74      -0.1231
     95  CA         1.0510  -22.8660   10.2480 C.3    74  ARG74       0.1694
     96  C          2.4090  -23.5630   10.1150 C.2    74  ARG74       0.2593
     97  O          2.5120  -24.7900   10.2670 O.2    74  ARG74      -0.2718
     98  CB         0.5480  -22.9750   11.6940 C.3    74  ARG74       0.0321
     99  CG        -0.7330  -22.1910   12.0210 C.3    74  ARG74       0.0489
    100  CD        -0.5490  -20.6880   11.9100 C.3    74  ARG74       0.2205
    101  NE        -1.6190  -19.9560   12.5900 N.pl3  74  ARG74      -0.0865
    102  CZ        -1.8080  -18.6430   12.4630 C.cat  74  ARG74       0.5346
    103  NH1       -1.0010  -17.9300   11.6760 N.pl3  74  ARG74       0.1354
    104  NH2       -2.8080  -18.0410   13.1030 N.pl3  74  ARG74       0.1354
    105  N          3.4360  -22.7730    9.8170 N.am   75  SER75      -0.1938
    106  CA         4.7940  -23.2810    9.6390 C.3    75  SER75       0.2055
    107  C          5.4260  -23.7380   10.9600 C.2    75  SER75       0.2642
    108  O          6.3910  -24.4890   10.9740 O.2    75  SER75      -0.2714
    109  CB         5.6770  -22.2040    9.0300 C.3    75  SER75       0.2130
    110  OG         5.0440  -21.6130    7.9250 O.3    75  SER75      -0.2179
    111  N          4.8870  -23.2760   12.0720 N.am   76  ALA76      -0.1977
    112  CA         5.4270  -23.6930   13.3540 C.3    76  ALA76       0.1597
    113  C          4.3170  -23.8050   14.3660 C.2    76  ALA76       0.2287
    114  O          3.2340  -23.2570   14.1690 O.2    76  ALA76      -0.2864
    115  CB         6.5050  -22.7160   13.8310 C.3    76  ALA76       0.0319
    116  N         11.7830   -9.9050    6.2350 N.3   114  ARG114     -0.1245
    117  CA        11.9110  -10.8850    7.3060 C.3   114  ARG114      0.1563
    118  C         11.7260  -12.3020    6.7570 C.2   114  ARG114      0.2260
    119  O         12.5210  -13.1920    7.0410 O.2   114  ARG114     -0.2867
    120  CB        10.9050  -10.5960    8.4320 C.3   114  ARG114      0.0307
    121  CG        11.2670  -11.2200    9.7860 C.3   114  ARG114      0.0489
    122  CD        10.0380  -11.3980   10.6880 C.3   114  ARG114      0.2205
    123  NE         9.1130  -12.3830   10.1310 N.pl3 114  ARG114     -0.0865
    124  CZ         8.3770  -13.2350   10.8420 C.cat 114  ARG114      0.5346
    125  NH1        8.4330  -13.2410   12.1730 N.pl3 114  ARG114      0.1354
    126  NH2        7.5790  -14.0870   10.2100 N.pl3 114  ARG114      0.1354
    127  N         14.0040  -15.9450    6.2910 N.3   118  ASN118     -0.1225
    128  CA        13.5200  -16.9340    7.2590 C.3   118  ASN118      0.1785
    129  C         13.6150  -18.3980    6.8060 C.2   118  ASN118      0.2597
    130  O         14.4720  -18.7500    5.9980 O.2   118  ASN118     -0.2718
    131  CB        12.0980  -16.5950    7.7250 C.3   118  ASN118      0.1169
    132  CG        11.0300  -17.3070    6.9230 C.2   118  ASN118      0.2627
    133  OD1        9.8370  -17.1210    7.1580 O.2   118  ASN118     -0.2716
    134  ND2       11.4520  -18.1270    5.9690 N.am  118  ASN118     -0.0877
    135  N         12.7390  -19.2430    7.3440 N.am  119  GLU119     -0.1965
    136  CA        12.7990  -20.6840    7.1110 C.3   119  GLU119      0.1733
    137  C         13.9770  -21.3200    7.8410 C.2   119  GLU119      0.2616
    138  O         15.1250  -21.1770    7.4220 O.2   119  GLU119     -0.2715
    139  CB        12.8870  -20.9880    5.6160 C.3   119  GLU119      0.0429
    140  CG        12.3800  -22.3710    5.2440 C.3   119  GLU119      0.1163
    141  CD        11.0930  -22.7250    5.9580 C.2   119  GLU119      0.3649
    142  OE1       10.9270  -22.3110    7.1220 O.co2 119  GLU119     -0.2457
    143  OE2       10.2460  -23.4140    5.3530 O.co2 119  GLU119     -0.2457
    144  N         13.6730  -22.0340    8.9200 N.am  120  GLN120     -0.1977
    145  CA        14.6910  -22.7030    9.7160 C.3   120  GLN120      0.1601
    146  C         14.9220  -24.1280    9.2250 C.2   120  GLN120      0.2287
    147  O         15.1630  -24.3550    8.0370 O.2   120  GLN120     -0.2864
    148  CB        14.2980  -22.7070   11.1960 C.3   120  GLN120      0.0394
    149  CG        15.4770  -22.5560   12.1450 C.3   120  GLN120      0.0908
    150  CD        15.0640  -22.1280   13.5410 C.2   120  GLN120      0.2608
    151  OE1       14.2790  -22.8030   14.2020 O.2   120  GLN120     -0.2717
    152  NE2       15.6020  -21.0040   13.9980 N.am  120  GLN120     -0.0878
@<TRIPOS>BOND
     1    84    85    1
     2    85    88    1
     3    85    86    1
     4    90    89   ar
     5    90    92   ar
     6    88    89    1
     7   140   139    1
     8   140   141    1
     9   143   141   ar
    10    79    77    1
    11   139   136    1
    12    75    74    2
    13    89    91   ar
    14    86    87    2
    15    92    93   ar
    16   141   142   ar
    17   134   132   am
    18   130   129    2
    19   116   117    1
    20   127   128    1
    21    78    77    1
    22    77    76    1
    23    73    76    1
    24    73    74    1
    25    73    72    1
    26   118   119    2
    27   118   117    1
    28    74    80   am
    29   129   128    1
    30   129   135   am
    31   132   133    2
    32   132   131    1
    33    91    93   ar
    34   136   135    1
    35   136   137    1
    36    66    65    2
    37   128   131    1
    38    83    82    2
    39   117   120    1
    40   138   137    2
    41   137   144   am
    42    82    81    1
    43    72    65   am
    44   110   109    1
    45    80    81    1
    46    65    64    1
    47   147   146    2
    48    68    69    1
    49    68    67    1
    50   120   121    1
    51    71    69   ar
    52   144   145    1
    53    69    70   ar
    54   109   106    1
    55    67    64    1
    56   146   145    1
    57    64    63    1
    58    94    95    1
    59   106   105    1
    60   106   107    1
    61   145   148    1
    62   121   122    1
    63   105    96   am
    64    96    95    1
    65    96    97    2
    66   123   122    1
    67   123   124    2
    68   126   124    1
    69    95    98    1
    70    63    61   am
    71    62    61    2
    72   124   125    1
    73    61    60    1
    74   107   108    2
    75   107   111   am
    76   148   149    1
    77   103   102    1
    78    26    28   ar
    79    26    25   ar
    80    98    99    1
    81    28    30   ar
    82    39    38    1
    83   100    99    1
    84   100   101    1
    85    23    22    2
    86   111   112    1
    87    60    59    1
    88   149   150    1
    89   102   101    2
    90   102   104    1
    91    59    50   am
    92    24    25    1
    93    24    21    1
    94    25    27   ar
    95    30    29   ar
    96    22    21    1
    97    38    37    1
    98   112   115    1
    99   112   113    1
   100    21    20    1
   101    50    49    1
   102    50    51    2
   103   150   152   am
   104   150   151    2
   105    27    29   ar
   106    49    48    1
   107    49    52    1
   108   114   113    2
   109    37    36    1
   110    52    53    1
   111     9    11   ar
   112     9     7   ar
   113    11    10   ar
   114    18    17    1
   115    36    35    1
   116     7     6   ar
   117    10     8   ar
   118    53    54   ar
   119    53    55   ar
   120     6     8   ar
   121     6     5    1
   122    54    56   ar
   123    16    17    1
   124    16    13    1
   125     5     2    1
   126    35    32    1
   127    17    19    1
   128    47    45    1
   129    55    57   ar
   130    56    58   ar
   131    14    15    2
   132    14    13    1
   133     3     2    1
   134     3     4    2
   135    46    45    1
   136    13    12    1
   137    45    44    1
   138     2     1    1
   139    32    31    1
   140    32    33    1
   141    57    58   ar
   142    33    34    2
   143    44    41    1
   144    41    40    1
   145    41    42    1
   146    42    43    2
