@<TRIPOS>MOLECULE
tmp/5h60A00.pdb
 191 192 0 0 0
SMALL
GASTEIGER

@<TRIPOS>ATOM
      1  N          9.7570   49.0210   16.8530 N.3    20  PHE20      -0.1227
      2  CA        10.5900   48.4110   17.8850 C.3    20  PHE20       0.1736
      3  C          9.7000   47.5580   18.7630 C.2    20  PHE20       0.2595
      4  O          8.4920   47.7750   18.8490 O.2    20  PHE20      -0.2718
      5  CB        11.2940   49.4760   18.7220 C.3    20  PHE20       0.0547
      6  CG        12.4060   50.1610   18.0000 C.ar   20  PHE20      -0.0202
      7  CD1       13.5820   49.4810   17.7270 C.ar   20  PHE20      -0.0042
      8  CD2       12.2800   51.4830   17.5870 C.ar   20  PHE20      -0.0042
      9  CE1       14.6140   50.1050   17.0540 C.ar   20  PHE20      -0.0003
     10  CE2       13.3080   52.1130   16.9120 C.ar   20  PHE20      -0.0003
     11  CZ        14.4750   51.4220   16.6370 C.ar   20  PHE20      -0.0000
     12  N         10.2880   46.5680   19.4130 N.am   21  GLN21      -0.1965
     13  CA         9.5240   45.7670   20.3520 C.3    21  GLN21       0.1733
     14  C         10.3490   45.5340   21.5950 C.2    21  GLN21       0.2616
     15  O         11.5600   45.3610   21.5170 O.2    21  GLN21      -0.2715
     16  CB         9.0670   44.4440   19.7320 C.3    21  GLN21       0.0408
     17  CG        10.0330   43.2770   19.8810 C.3    21  GLN21       0.0908
     18  CD         9.3810   41.9300   19.6750 C.2    21  GLN21       0.2608
     19  OE1        8.1520   41.8020   19.6610 O.2    21  GLN21      -0.2717
     20  NE2       10.2100   40.8990   19.5440 N.am   21  GLN21      -0.0878
     21  N          9.6920   45.5740   22.7470 N.am   22  TRP22      -0.1960
     22  CA        10.3080   45.1830   24.0080 C.3    22  TRP22       0.1771
     23  C          9.3650   44.2820   24.7710 C.2    22  TRP22       0.2620
     24  O          8.2920   44.7040   25.1920 O.2    22  TRP22      -0.2715
     25  CB        10.6550   46.3820   24.8960 C.3    22  TRP22       0.0590
     26  CG        11.4470   45.9340   26.0920 C.ar   22  TRP22       0.0006
     27  CD1       11.0640   45.9620   27.4040 C.ar   22  TRP22       0.0946
     28  CD2       12.7370   45.3370   26.0640 C.ar   22  TRP22       0.0152
     29  NE1       12.0590   45.4400   28.1950 N.ar   22  TRP22      -0.2442
     30  CE2       13.0970   45.0480   27.3950 C.ar   22  TRP22       0.0810
     31  CE3       13.6350   45.0360   25.0410 C.ar   22  TRP22       0.0012
     32  CZ2       14.3150   44.4680   27.7260 C.ar   22  TRP22       0.0191
     33  CZ3       14.8460   44.4770   25.3650 C.ar   22  TRP22       0.0001
     34  CH2       15.1750   44.1860   26.6970 C.ar   22  TRP22       0.0015
     35  N          9.7950   43.0470   24.9790 N.am   23  PHE23      -0.1960
     36  CA         9.0490   42.0760   25.7580 C.3    23  PHE23       0.1771
     37  C          9.8190   41.7900   27.0310 C.2    23  PHE23       0.2619
     38  O         10.9570   41.3240   26.9740 O.2    23  PHE23      -0.2715
     39  CB         8.8170   40.8180   24.9190 C.3    23  PHE23       0.0574
     40  CG         7.5520   40.8570   24.0980 C.ar   23  PHE23      -0.0200
     41  CD1        6.9340   42.0690   23.7830 C.ar   23  PHE23      -0.0042
     42  CD2        6.9910   39.6870   23.6070 C.ar   23  PHE23      -0.0042
     43  CE1        5.7810   42.1070   23.0360 C.ar   23  PHE23      -0.0003
     44  CE2        5.8310   39.7240   22.8470 C.ar   23  PHE23      -0.0003
     45  CZ         5.2280   40.9380   22.5640 C.ar   23  PHE23      -0.0000
     46  N          9.2050   42.0960   28.1730 N.am   24  GLU24      -0.1977
     47  CA         9.8800   41.9730   29.4610 C.3    24  GLU24       0.1602
     48  C          9.1790   40.9530   30.3300 C.2    24  GLU24       0.2287
     49  O          8.0710   41.1840   30.7990 O.2    24  GLU24      -0.2864
     50  CB         9.9830   43.3350   30.1660 C.3    24  GLU24       0.0415
     51  CG        10.9260   43.3960   31.3720 C.3    24  GLU24       0.1163
     52  CD        12.3590   42.8990   31.1260 C.2    24  GLU24       0.3649
     53  OE1       13.3250   43.6150   31.4630 O.co2  24  GLU24      -0.2457
     54  OE2       12.5400   41.7700   30.6430 O.co2  24  GLU24      -0.2457
     55  N         19.3680   50.3000   25.0270 N.3    45  TYR45      -0.1241
     56  CA        18.3050   50.0370   24.0560 C.3    45  TYR45       0.1605
     57  C         17.2810   51.1680   24.0000 C.2    45  TYR45       0.2264
     58  O         16.9980   51.6970   22.9280 O.2    45  TYR45      -0.2867
     59  CB        17.6340   48.6970   24.3620 C.3    45  TYR45       0.0534
     60  CG        18.4320   47.4760   23.9550 C.ar   45  TYR45      -0.0201
     61  CD1       19.8030   47.5400   23.7240 C.ar   45  TYR45      -0.0009
     62  CD2       17.8050   46.2390   23.8070 C.ar   45  TYR45      -0.0009
     63  CE1       20.5210   46.4220   23.3560 C.ar   45  TYR45       0.0417
     64  CE2       18.5200   45.1170   23.4370 C.ar   45  TYR45       0.0417
     65  CZ        19.8790   45.2110   23.2170 C.ar   45  TYR45       0.1957
     66  OH        20.5900   44.0980   22.8440 O.3    45  TYR45      -0.2866
     67  N         12.4620   32.7930   24.7440 N.3   155  HIS155     -0.1241
     68  CA        12.8920   33.2090   23.4420 C.3   155  HIS155      0.1621
     69  C         11.7210   33.2300   22.4840 C.2   155  HIS155      0.2264
     70  O         11.5890   34.1210   21.6640 O.2   155  HIS155     -0.2867
     71  CB        13.9440   32.2630   22.9300 C.3   155  HIS155      0.0745
     72  CG        15.1600   32.9470   22.4040 C.ar  155  HIS155      0.0817
     73  ND1       15.1730   33.5970   21.1900 N.ar  155  HIS155     -0.2268
     74  CD2       16.4120   33.0670   22.9120 C.ar  155  HIS155      0.1154
     75  CE1       16.3790   34.0920   20.9720 C.ar  155  HIS155      0.1986
     76  NE2       17.1460   33.7960   22.0070 N.ar  155  HIS155     -0.2212
     77  N          8.7060   36.5350   22.1270 N.3   158  PHE158     -0.1241
     78  CA         8.8340   37.7620   21.3340 C.3   158  PHE158      0.1605
     79  C          9.0410   37.4430   19.8530 C.2   158  PHE158      0.2264
     80  O          8.5050   38.1420   18.9940 O.2   158  PHE158     -0.2867
     81  CB         9.9880   38.6080   21.8630 C.3   158  PHE158      0.0534
     82  CG        11.2810   37.8770   21.8760 C.ar  158  PHE158     -0.0203
     83  CD1       11.5620   36.9850   22.8970 C.ar  158  PHE158     -0.0042
     84  CD2       12.1580   37.9760   20.8070 C.ar  158  PHE158     -0.0042
     85  CE1       12.7220   36.2650   22.8860 C.ar  158  PHE158     -0.0003
     86  CE2       13.3370   37.2610   20.7980 C.ar  158  PHE158     -0.0003
     87  CZ        13.6100   36.3860   21.8290 C.ar  158  PHE158     -0.0000
     88  N          6.8750   38.9290   17.2530 N.3   162  ARG162     -0.1245
     89  CA         7.5400   39.7570   16.2600 C.3   162  ARG162      0.1563
     90  C          6.9390   39.5120   14.8700 C.2   162  ARG162      0.2260
     91  O          6.7250   40.4500   14.1070 O.2   162  ARG162     -0.2867
     92  CB         9.0410   39.4760   16.2640 C.3   162  ARG162      0.0307
     93  CG         9.8960   40.5490   15.6260 C.3   162  ARG162      0.0489
     94  CD        11.2300   40.5930   16.3120 C.3   162  ARG162      0.2205
     95  NE        12.0850   39.4540   16.0080 N.pl3 162  ARG162     -0.0865
     96  CZ        13.1200   39.0770   16.7580 C.cat 162  ARG162      0.5346
     97  NH1       13.4450   39.7520   17.8690 N.pl3 162  ARG162      0.1354
     98  NH2       13.8520   38.0260   16.4040 N.pl3 162  ARG162      0.1354
     99  N         10.8760   46.7430   11.0090 N.3   192  TYR192     -0.1227
    100  CA        11.2880   46.3300   12.3420 C.3   192  TYR192      0.1736
    101  C         12.8020   46.3450   12.4450 C.2   192  TYR192      0.2595
    102  O         13.5030   45.8580   11.5590 O.2   192  TYR192     -0.2718
    103  CB        10.7950   44.9290   12.6990 C.3   192  TYR192      0.0548
    104  CG        11.4330   44.4030   13.9610 C.ar  192  TYR192     -0.0200
    105  CD1       10.9250   44.7510   15.2060 C.ar  192  TYR192     -0.0009
    106  CD2       12.5680   43.5900   13.9190 C.ar  192  TYR192     -0.0009
    107  CE1       11.5070   44.2930   16.3770 C.ar  192  TYR192      0.0417
    108  CE2       13.1620   43.1320   15.0890 C.ar  192  TYR192      0.0417
    109  CZ        12.6280   43.4910   16.3150 C.ar  192  TYR192      0.1957
    110  OH        13.1850   43.0390   17.4800 O.3   192  TYR192     -0.2866
    111  N         13.2920   46.8830   13.5580 N.am  193  LEU193     -0.1966
    112  CA        14.6920   46.7910   13.9250 C.3   193  LEU193      0.1728
    113  C         14.7940   46.3700   15.3850 C.2   193  LEU193      0.2616
    114  O         13.9770   46.7790   16.2200 O.2   193  LEU193     -0.2715
    115  CB        15.3950   48.1350   13.7310 C.3   193  LEU193      0.0311
    116  CG        15.1770   48.8890   12.4280 C.3   193  LEU193      0.0022
    117  CD1       15.8250   50.2620   12.5230 C.3   193  LEU193      0.0001
    118  CD2       15.7320   48.0960   11.2550 C.3   193  LEU193      0.0001
    119  N         15.7970   45.5540   15.6910 N.am  194  ASP194     -0.1957
    120  CA        16.1920   45.3770   17.0810 C.3   194  ASP194      0.1840
    121  C         16.6620   46.7100   17.6400 C.2   194  ASP194      0.2622
    122  O         17.0910   47.5960   16.8990 O.2   194  ASP194     -0.2715
    123  CB        17.2980   44.3210   17.2250 C.3   194  ASP194      0.1450
    124  CG        16.7820   42.9030   17.0480 C.2   194  ASP194      0.3671
    125  OD1       15.5640   42.6840   17.1560 O.co2 194  ASP194     -0.2456
    126  OD2       17.6040   42.0000   16.8010 O.co2 194  ASP194     -0.2456
    127  N         16.5780   46.8700   18.9530 N.am  195  ALA195     -0.1963
    128  CA        17.2030   48.0430   19.5760 C.3   195  ALA195      0.1728
    129  C         18.7310   47.9910   19.4810 C.2   195  ALA195      0.2616
    130  O         19.3890   48.9850   19.7490 O.2   195  ALA195     -0.2715
    131  CB        16.7610   48.1970   21.0130 C.3   195  ALA195      0.0334
    132  N         19.2750   46.8410   19.0770 N.am  196  ASP196     -0.1971
    133  CA        20.6840   46.7390   18.6830 C.3   196  ASP196      0.1709
    134  C         21.0340   47.7110   17.5650 C.2   196  ASP196      0.2293
    135  O         22.2040   48.0520   17.3990 O.2   196  ASP196     -0.2864
    136  CB        21.0160   45.3390   18.1730 C.3   196  ASP196      0.1436
    137  CG        20.5450   44.2690   19.0740 C.2   196  ASP196      0.3671
    138  OD1       20.1240   44.5780   20.1890 O.co2 196  ASP196     -0.2456
    139  OD2       20.5580   43.1100   18.6660 O.co2 196  ASP196     -0.2456
    140  N         11.5740   32.1810   14.8830 N.3   256  TYR256     -0.1241
    141  CA        12.7460   32.8570   14.3310 C.3   256  TYR256      0.1605
    142  C         13.1530   32.2310   12.9930 C.2   256  TYR256      0.2264
    143  O         13.1900   32.9020   11.9630 O.2   256  TYR256     -0.2867
    144  CB        13.9050   32.8090   15.3290 C.3   256  TYR256      0.0534
    145  CG        15.0750   33.7060   14.9840 C.ar  256  TYR256     -0.0201
    146  CD1       16.0300   33.3140   14.0320 C.ar  256  TYR256     -0.0009
    147  CD2       15.2390   34.9420   15.6140 C.ar  256  TYR256     -0.0009
    148  CE1       17.1070   34.1270   13.7170 C.ar  256  TYR256      0.0417
    149  CE2       16.3160   35.7610   15.3110 C.ar  256  TYR256      0.0417
    150  CZ        17.2440   35.3540   14.3610 C.ar  256  TYR256      0.1957
    151  OH        18.3020   36.1810   14.0620 O.3   256  TYR256     -0.2866
    152  N         24.6240   44.0270   14.6530 N.3   293  ASN293     -0.1240
    153  CA        23.6800   44.3940   15.7200 C.3   293  ASN293      0.1653
    154  C         24.5690   44.6870   16.9210 C.2   293  ASN293      0.2266
    155  O         25.5880   44.0290   17.1090 O.2   293  ASN293     -0.2867
    156  CB        22.5630   43.3270   15.9440 C.3   293  ASN293      0.1155
    157  CG        23.0570   41.9530   16.4490 C.2   293  ASN293      0.2627
    158  OD1       22.2500   41.1280   16.8810 O.2   293  ASN293     -0.2716
    159  ND2       24.3470   41.6820   16.3620 N.am  293  ASN293     -0.0877
    160  N         24.3670   44.2180   20.0240 N.3   295  SER295     -0.1217
    161  CA        24.5640   43.1930   21.0430 C.3   295  SER295      0.1889
    162  C         25.8130   42.3740   20.7470 C.2   295  SER295      0.2288
    163  O         26.3500   41.7170   21.6430 O.2   295  SER295     -0.2866
    164  CB        23.3640   42.2480   21.1670 C.3   295  SER295      0.2089
    165  OG        22.1280   42.9110   20.9760 O.3   295  SER295     -0.2183
    166  N         24.3300   39.8800   24.9190 N.3   300  SER300     -0.1202
    167  CA        23.0000   39.8730   24.3510 C.3   300  SER300      0.2020
    168  C         22.0420   40.2630   25.4590 C.2   300  SER300      0.2619
    169  O         22.2980   39.9970   26.6320 O.2   300  SER300     -0.2717
    170  CB        22.6540   38.4940   23.8010 C.3   300  SER300      0.2103
    171  OG        21.6550   38.5730   22.8080 O.3   300  SER300     -0.2182
    172  N         20.9450   40.9100   25.0860 N.am  301  SER301     -0.1937
    173  CA        20.0320   41.4830   26.0680 C.3   301  SER301      0.2055
    174  C         19.5970   40.3270   26.9610 C.2   301  SER301      0.2643
    175  O         19.4590   40.4820   28.1660 O.2   301  SER301     -0.2714
    176  CB        18.8240   42.1120   25.3960 C.3   301  SER301      0.2130
    177  OG        19.0830   42.3830   24.0440 O.3   301  SER301     -0.2179
    178  N         19.4460   39.1650   26.3460 N.am  302  TRP302     -0.1973
    179  CA        19.3090   37.9230   27.1120 C.3   302  TRP302      0.1640
    180  C         20.6010   37.6240   27.8450 C.2   302  TRP302      0.2290
    181  O         21.6510   37.5060   27.2100 O.2   302  TRP302     -0.2864
    182  CB        18.9210   36.7520   26.1990 C.3   302  TRP302      0.0576
    183  CG        18.0380   37.1990   25.1030 C.ar  302  TRP302      0.0006
    184  CD1       18.3970   37.4480   23.8060 C.ar  302  TRP302      0.0946
    185  CD2       16.6690   37.5460   25.2210 C.ar  302  TRP302      0.0152
    186  NE1       17.3110   37.9060   23.1010 N.ar  302  TRP302     -0.2442
    187  CE2       16.2400   37.9820   23.9510 C.ar  302  TRP302      0.0810
    188  CE3       15.7530   37.5250   26.2800 C.ar  302  TRP302      0.0012
    189  CZ2       14.9310   38.3850   23.7090 C.ar  302  TRP302      0.0191
    190  CZ3       14.4530   37.9250   26.0410 C.ar  302  TRP302      0.0001
    191  CH2       14.0490   38.3460   24.7630 C.ar  302  TRP302      0.0015
@<TRIPOS>BOND
     1    99   100    1
     2   118   116    1
     3   102   101    2
     4   143   142    2
     5   100   101    1
     6   100   103    1
     7   116   117    1
     8   116   115    1
     9   101   111   am
    10   103   104    1
    11   142   141    1
    12   111   112    1
    13   148   146   ar
    14   148   150   ar
    15   115   112    1
    16   106   104   ar
    17   106   108   ar
    18   112   113    1
    19   104   105   ar
    20   146   145   ar
    21   151   150    1
    22    91    90    2
    23   141   140    1
    24   141   144    1
    25   150   149   ar
    26   152   153    1
    27    90    89    1
    28   145   144    1
    29   145   147   ar
    30   108   109   ar
    31   105   107   ar
    32   149   147   ar
    33   113   119   am
    34   113   114    2
    35    93    92    1
    36    93    94    1
    37   119   120    1
    38   153   156    1
    39   153   154    1
    40   156   157    1
    41    95    94    1
    42    95    96    2
    43    89    92    1
    44    89    88    1
    45   109   107   ar
    46   109   110    1
    47   159   157   am
    48    98    96    1
    49   157   158    2
    50    11    10   ar
    51    11     9   ar
    52    96    97    1
    53   126   124   ar
    54     1     2    1
    55   122   121    2
    56    10     8   ar
    57   154   155    2
    58   124   125   ar
    59   124   123    1
    60     9     7   ar
    61   120   123    1
    62   120   121    1
    63   135   134    2
    64   134   133    1
    65     8     6   ar
    66   121   127   am
    67     7     6   ar
    68     2     5    1
    69     2     3    1
    70     6     5    1
    71   136   133    1
    72   136   137    1
    73   139   137   ar
    74   133   132    1
    75     3     4    2
    76     3    12   am
    77   127   128    1
    78    80    79    2
    79   137   138   ar
    80   132   129   am
    81    12    13    1
    82   129   128    1
    83   129   130    2
    84    20    18   am
    85   128   131    1
    86    19    18    2
    87    18    17    1
    88    16    17    1
    89    16    13    1
    90    79    78    1
    91   160   161    1
    92    13    14    1
    93   162   161    1
    94   162   163    2
    95    86    84   ar
    96    86    87   ar
    97    84    82   ar
    98    75    73   ar
    99    75    76   ar
   100   165   164    1
   101   161   164    1
   102    73    72   ar
   103    78    81    1
   104    78    77    1
   105    15    14    2
   106    14    21   am
   107    70    69    2
   108    87    85   ar
   109    81    82    1
   110    82    83   ar
   111    76    74   ar
   112    72    74   ar
   113    72    71    1
   114    69    68    1
   115    45    44   ar
   116    45    43   ar
   117    21    22    1
   118   171   170    1
   119    66    65    1
   120    44    42   ar
   121    85    83   ar
   122    58    57    2
   123    71    68    1
   124    43    41   ar
   125   186   184   ar
   126   186   187   ar
   127    65    63   ar
   128    65    64   ar
   129    63    61   ar
   130    64    62   ar
   131    68    67    1
   132    42    40   ar
   133   189   187   ar
   134   189   191   ar
   135    61    60   ar
   136    41    40   ar
   137   170   167    1
   138   184   183   ar
   139    62    60   ar
   140   187   185   ar
   141    60    59    1
   142    57    56    1
   143    22    23    1
   144    22    25    1
   145   177   176    1
   146    56    59    1
   147    56    55    1
   148    40    39    1
   149   167   166    1
   150   167   168    1
   151   191   190   ar
   152    23    35   am
   153    23    24    2
   154    25    26    1
   155    39    36    1
   156    35    36    1
   157    31    33   ar
   158    31    28   ar
   159   172   168   am
   160   172   173    1
   161   183   185   ar
   162   183   182    1
   163   185   188   ar
   164    33    34   ar
   165   176   173    1
   166   168   169    2
   167    36    37    1
   168   190   188   ar
   169    28    26   ar
   170    28    30   ar
   171   173   174    1
   172    26    27   ar
   173   182   179    1
   174   178   174   am
   175   178   179    1
   176    34    32   ar
   177   174   175    2
   178    38    37    2
   179    37    46   am
   180   179   180    1
   181   181   180    2
   182    30    32   ar
   183    30    29   ar
   184    27    29   ar
   185    46    47    1
   186    47    50    1
   187    47    48    1
   188    50    51    1
   189    48    49    2
   190    54    52   ar
   191    52    51    1
   192    52    53   ar
