@<TRIPOS>MOLECULE
tmp/5h63A00.pdb
 246 243 0 0 0
SMALL
GASTEIGER

@<TRIPOS>ATOM
      1  N          5.9880    1.8040   -6.1800 N.3    25  GLN25      -0.1231
      2  CA         4.8610    2.5020   -6.7190 C.3    25  GLN25       0.1698
      3  C          5.3000    3.8330   -7.3320 C.2    25  GLN25       0.2592
      4  O          6.0700    4.5890   -6.6590 O.2    25  GLN25      -0.2718
      5  CB         3.8370    2.7630   -5.6110 C.3    25  GLN25       0.0381
      6  CG         2.5830    3.5260   -6.0760 C.3    25  GLN25       0.0905
      7  CD         1.5890    3.7470   -4.9520 C.2    25  GLN25       0.2608
      8  OE1        1.9640    3.9690   -3.8160 O.2    25  GLN25      -0.2717
      9  NE2        0.3020    3.6600   -5.2890 N.am   25  GLN25      -0.0878
     10  N          4.7890    4.1560   -8.5200 N.am   26  TRP26      -0.1962
     11  CA         4.9460    5.5160   -9.0610 C.3    26  TRP26       0.1771
     12  C          3.6640    5.9680   -9.7710 C.2    26  TRP26       0.2620
     13  O          3.3870    5.5420  -10.8970 O.2    26  TRP26      -0.2715
     14  CB         6.1970    5.7350   -9.9580 C.3    26  TRP26       0.0590
     15  CG         6.4270    7.1630  -10.0750 C.ar   26  TRP26       0.0006
     16  CD1        6.1700    7.9060  -11.1800 C.ar   26  TRP26       0.0946
     17  CD2        6.8250    8.0670   -9.0610 C.ar   26  TRP26       0.0152
     18  NE1        6.4520    9.2330  -10.9460 N.ar   26  TRP26      -0.2442
     19  CE2        6.8150    9.3620   -9.6280 C.ar   26  TRP26       0.0810
     20  CE3        7.1610    7.9270   -7.7020 C.ar   26  TRP26       0.0012
     21  CZ2        7.1590   10.5130   -8.8950 C.ar   26  TRP26       0.0191
     22  CZ3        7.5020    9.0380   -6.9720 C.ar   26  TRP26       0.0001
     23  CH2        7.5040   10.3480   -7.5790 C.ar   26  TRP26       0.0015
     24  N          2.8580    6.7520   -9.0340 N.am   27  PHE27      -0.1960
     25  CA         1.6680    7.4030   -9.5580 C.3    27  PHE27       0.1771
     26  C          2.0510    8.8150   -9.9860 C.2    27  PHE27       0.2619
     27  O          2.5110    9.6460   -9.2010 O.2    27  PHE27      -0.2715
     28  CB         0.5580    7.3940   -8.5050 C.3    27  PHE27       0.0574
     29  CG        -0.2030    6.0960   -8.4100 C.ar   27  PHE27      -0.0200
     30  CD1        0.3550    4.8750   -8.8230 C.ar   27  PHE27      -0.0042
     31  CD2       -1.5450    6.1130   -7.9860 C.ar   27  PHE27      -0.0042
     32  CE1       -0.3530    3.6670   -8.7360 C.ar   27  PHE27      -0.0003
     33  CE2       -2.2660    4.8960   -7.9420 C.ar   27  PHE27      -0.0003
     34  CZ        -1.6720    3.6900   -8.3190 C.ar   27  PHE27      -0.0000
     35  N          1.8480    9.1140  -11.2590 N.am   28  GLU28      -0.1963
     36  CA         2.4260   10.3170  -11.8150 C.3    28  GLU28       0.1733
     37  C          1.3170   11.2350  -12.2670 C.2    28  GLU28       0.2616
     38  O          0.6390   10.9360  -13.2490 O.2    28  GLU28      -0.2715
     39  CB         3.3580    9.9430  -12.9810 C.3    28  GLU28       0.0429
     40  CG         3.9440   11.1660  -13.6910 C.3    28  GLU28       0.1163
     41  CD         4.5980   12.1570  -12.7530 C.2    28  GLU28       0.3649
     42  OE1        4.1710   13.3330  -12.7070 O.co2  28  GLU28      -0.2457
     43  OE2        5.5670   11.8080  -12.0370 O.co2  28  GLU28      -0.2457
     44  N          1.1570   12.3610  -11.5600 N.am   29  ARG29      -0.1977
     45  CA         0.0380   13.2680  -11.8150 C.3    29  ARG29       0.1597
     46  C          0.2680   14.0810  -13.0780 C.2    29  ARG29       0.2287
     47  O         -0.7090   14.4440  -13.7250 O.2    29  ARG29      -0.2864
     48  CB        -0.1370   14.2440  -10.6620 C.3    29  ARG29       0.0334
     49  CG        -1.3820   15.1780  -10.7550 C.3    29  ARG29       0.0492
     50  CD        -1.4700   16.0740   -9.5220 C.3    29  ARG29       0.2205
     51  NE        -2.6510   16.9540   -9.5080 N.pl3  29  ARG29      -0.0865
     52  CZ        -3.3180   17.3410   -8.4140 C.cat  29  ARG29       0.5346
     53  NH1       -3.0270   16.8700   -7.1640 N.pl3  29  ARG29       0.1354
     54  NH2       -4.3380   18.1730   -8.5810 N.pl3  29  ARG29       0.1354
     55  N          5.5950   16.2280  -17.8840 N.3    33  ARG33      -0.1245
     56  CA         6.8870   16.7290  -17.4480 C.3    33  ARG33       0.1563
     57  C          8.1120   15.8510  -17.8420 C.2    33  ARG33       0.2260
     58  O          9.2690   16.2570  -17.7320 O.2    33  ARG33      -0.2867
     59  CB         6.8440   17.0710  -15.9520 C.3    33  ARG33       0.0307
     60  CG         7.1050   15.9240  -14.9840 C.3    33  ARG33       0.0489
     61  CD         6.6230   16.2880  -13.5750 C.3    33  ARG33       0.2205
     62  NE         6.6240   15.1020  -12.7140 N.pl3  33  ARG33      -0.0865
     63  CZ         7.3140   14.9380  -11.5910 C.cat  33  ARG33       0.5346
     64  NH1        8.0730   15.9150  -11.1030 N.pl3  33  ARG33       0.1354
     65  NH2        7.1980   13.7730  -10.9300 N.pl3  33  ARG33       0.1354
     66  N         14.5790    8.0820   -7.9730 N.3    49  TYR49      -0.1241
     67  CA        13.7440    6.8940   -7.6780 C.3    49  TYR49       0.1605
     68  C         13.7860    5.7370   -8.6850 C.2    49  TYR49       0.2264
     69  O         13.8420    4.5770   -8.2940 O.2    49  TYR49      -0.2867
     70  CB        12.3350    7.3210   -7.2860 C.3    49  TYR49       0.0534
     71  CG        12.2050    8.1230   -5.9820 C.ar   49  TYR49      -0.0201
     72  CD1       13.2790    8.3550   -5.1270 C.ar   49  TYR49      -0.0009
     73  CD2       10.9750    8.6680   -5.6070 C.ar   49  TYR49      -0.0009
     74  CE1       13.1490    9.0600   -3.9260 C.ar   49  TYR49       0.0417
     75  CE2       10.8260    9.3280   -4.3950 C.ar   49  TYR49       0.0417
     76  CZ        11.9570    9.5810   -3.5780 C.ar   49  TYR49       0.1957
     77  OH        11.8140   10.3140   -2.3990 O.3    49  TYR49      -0.2866
     78  N         -1.4490   13.1430   -2.3090 N.3   161  HIS161     -0.1241
     79  CA        -0.8900   11.8890   -1.8000 C.3   161  HIS161      0.1621
     80  C         -1.9500   10.8160   -1.5330 C.2   161  HIS161      0.2264
     81  O         -1.6410    9.6420   -1.5180 O.2   161  HIS161     -0.2867
     82  CB        -0.0360   12.0820   -0.5280 C.3   161  HIS161      0.0745
     83  CG        -0.8310   12.4620    0.6700 C.ar  161  HIS161      0.0817
     84  ND1       -1.2880   11.5360    1.5660 N.ar  161  HIS161     -0.2268
     85  CD2       -1.3400   13.6530    1.0620 C.ar  161  HIS161      0.1154
     86  CE1       -2.0110   12.1550    2.4930 C.ar  161  HIS161      0.1986
     87  NE2       -2.0530   13.4360    2.2080 N.ar  161  HIS161     -0.2212
     88  N         -2.1200    7.8980   -4.4380 N.3   164  PHE164     -0.1227
     89  CA        -1.2130    6.7420   -4.2970 C.3   164  PHE164      0.1736
     90  C         -1.3800    5.9980   -2.9770 C.2   164  PHE164      0.2595
     91  O         -1.3500    4.7570   -2.9790 O.2   164  PHE164     -0.2718
     92  CB         0.2520    7.0230   -4.6360 C.3   164  PHE164      0.0547
     93  CG         0.8120    8.2960   -4.1220 C.ar  164  PHE164     -0.0202
     94  CD1        0.8080    9.4260   -4.9130 C.ar  164  PHE164     -0.0042
     95  CD2        1.4480    8.3260   -2.9310 C.ar  164  PHE164     -0.0042
     96  CE1        1.4160   10.6100   -4.4680 C.ar  164  PHE164     -0.0003
     97  CE2        2.0870    9.4640   -2.4730 C.ar  164  PHE164     -0.0003
     98  CZ         2.0660   10.6200   -3.2220 C.ar  164  PHE164     -0.0000
     99  N         -1.6060    6.6920   -1.8780 N.am  165  ASP165     -0.1974
    100  CA        -1.7730    5.9890   -0.5820 C.3   165  ASP165      0.1709
    101  C         -2.9590    5.0310   -0.5530 C.2   165  ASP165      0.2293
    102  O         -2.8510    3.9010   -0.0520 O.2   165  ASP165     -0.2864
    103  CB        -1.8170    6.9480    0.6010 C.3   165  ASP165      0.1436
    104  CG        -0.4920    7.5800    0.8780 C.2   165  ASP165      0.3671
    105  OD1        0.5210    7.2120    0.2110 O.co2 165  ASP165     -0.2456
    106  OD2       -0.4830    8.4720    1.7300 O.co2 165  ASP165     -0.2456
    107  N         -2.3140    2.0320   -3.0360 N.3   168  ARG168     -0.1245
    108  CA        -1.2850    1.1250   -2.4710 C.3   168  ARG168      0.1563
    109  C         -1.9260    0.0390   -1.5840 C.2   168  ARG168      0.2260
    110  O         -1.6340   -1.1420   -1.7220 O.2   168  ARG168     -0.2867
    111  CB        -0.2150    1.9620   -1.7440 C.3   168  ARG168      0.0307
    112  CG         0.8930    1.1450   -1.0950 C.3   168  ARG168      0.0489
    113  CD         1.7930    2.0490   -0.3200 C.3   168  ARG168      0.2205
    114  NE         2.2360    3.2000   -1.1070 N.pl3 168  ARG168     -0.0865
    115  CZ         2.8000    4.2920   -0.5900 C.cat 168  ARG168      0.5346
    116  NH1        2.9010    4.4670    0.7140 N.pl3 168  ARG168      0.1354
    117  NH2        3.1570    5.2940   -1.4200 N.pl3 168  ARG168      0.1354
    118  N          5.9230   -4.2270   -0.1380 N.3   198  TYR198     -0.1241
    119  CA         5.8510   -2.8560   -0.6360 C.3   198  TYR198      0.1605
    120  C          6.9280   -2.0010   -0.0050 C.2   198  TYR198      0.2264
    121  O          7.0280   -1.9700    1.2660 O.2   198  TYR198     -0.2867
    122  CB         4.4830   -2.2240   -0.3340 C.3   198  TYR198      0.0534
    123  CG         4.5790   -0.8020   -0.6830 C.ar  198  TYR198     -0.0201
    124  CD1        4.5110   -0.3940   -1.9910 C.ar  198  TYR198     -0.0009
    125  CD2        4.9490    0.1280    0.3010 C.ar  198  TYR198     -0.0009
    126  CE1        4.7560    0.9450   -2.3120 C.ar  198  TYR198      0.0417
    127  CE2        5.2170    1.4370   -0.0120 C.ar  198  TYR198      0.0417
    128  CZ         5.0990    1.8480   -1.3210 C.ar  198  TYR198      0.1957
    129  OH         5.3920    3.1810   -1.6440 O.3   198  TYR198     -0.2866
    130  N          8.5280    2.1350   -0.3850 N.3   200  ASP200     -0.1225
    131  CA         8.7890    3.4650   -0.9410 C.3   200  ASP200      0.1805
    132  C         10.1290    3.3960   -1.7420 C.2   200  ASP200      0.2598
    133  O         11.0770    2.7510   -1.3290 O.2   200  ASP200     -0.2718
    134  CB         8.9290    4.5120    0.1680 C.3   200  ASP200      0.1424
    135  CG         7.5800    5.0070    0.7370 C.2   200  ASP200      0.3668
    136  OD1        6.4850    4.6000    0.2580 O.co2 200  ASP200     -0.2456
    137  OD2        7.6100    5.8760    1.6490 O.co2 200  ASP200     -0.2456
    138  N         10.2090    4.1270   -2.8300 N.am  201  ALA201     -0.1966
    139  CA        11.3460    4.0860   -3.7290 C.3   201  ALA201      0.1728
    140  C         12.6340    4.6740   -3.1520 C.2   201  ALA201      0.2616
    141  O         13.6690    4.4720   -3.7240 O.2   201  ALA201     -0.2715
    142  CB        10.9940    4.7670   -5.0460 C.3   201  ALA201      0.0334
    143  N         12.5690    5.3380   -1.9920 N.am  202  ASP202     -0.1957
    144  CA        13.7660    5.7810   -1.2790 C.3   202  ASP202      0.1840
    145  C         14.2290    4.8230   -0.1440 C.2   202  ASP202      0.2621
    146  O         15.0750    5.2100    0.6600 O.2   202  ASP202     -0.2715
    147  CB        13.4750    7.1610   -0.7080 C.3   202  ASP202      0.1450
    148  CG        12.4680    7.1150    0.4810 C.2   202  ASP202      0.3671
    149  OD1       11.7390    6.1050    0.6780 O.co2 202  ASP202     -0.2456
    150  OD2       12.3730    8.1590    1.1350 O.co2 202  ASP202     -0.2456
    151  N         13.6060    3.6470   -0.0170 N.am  203  MET203     -0.1977
    152  CA        14.0230    2.6090    0.8920 C.3   203  MET203      0.1605
    153  C         15.1350    1.8260    0.1420 C.2   203  MET203      0.2287
    154  O         14.8820    0.9550   -0.6960 O.2   203  MET203     -0.2864
    155  CB        12.8120    1.6820    1.2330 C.3   203  MET203      0.0413
    156  CG        11.6150    2.3580    1.8800 C.3   203  MET203      0.0598
    157  SD        11.9530    2.7070    3.6030 S.3   203  MET203     -0.1393
    158  CE        10.4720    3.5920    4.1560 C.3   203  MET203      0.0692
    159  N          6.5410   -0.3170    8.3060 N.3   221  HIS221     -0.1241
    160  CA         7.5590    0.6160    8.7220 C.3   221  HIS221      0.1621
    161  C          7.2150    1.2880   10.0760 C.2   221  HIS221      0.2264
    162  O          6.0440    1.6620   10.3350 O.2   221  HIS221     -0.2867
    163  CB         7.7370    1.6930    7.6250 C.3   221  HIS221      0.0745
    164  CG         8.8120    2.6930    7.8690 C.ar  221  HIS221      0.0817
    165  ND1       10.0750    2.3660    8.3200 N.ar  221  HIS221     -0.2268
    166  CD2        8.8310    4.0240    7.6070 C.ar  221  HIS221      0.1154
    167  CE1       10.8100    3.4730    8.3680 C.ar  221  HIS221      0.1986
    168  NE2       10.0720    4.4930    7.9430 N.ar  221  HIS221     -0.2212
    169  N          4.3090    4.0180   10.3620 N.3   232  GLU232     -0.1231
    170  CA         4.4480    4.8380    9.1640 C.3   232  GLU232      0.1699
    171  C          4.0700    4.0240    7.9950 C.2   232  GLU232      0.2592
    172  O          4.1300    2.8170    8.0190 O.2   232  GLU232     -0.2718
    173  CB         5.8820    5.2880    8.9770 C.3   232  GLU232      0.0402
    174  CG         6.3950    6.1360   10.1170 C.3   232  GLU232      0.1161
    175  CD         5.7300    7.4810   10.2650 C.2   232  GLU232      0.3649
    176  OE1        6.0830    8.1330   11.2350 O.co2 232  GLU232     -0.2457
    177  OE2        4.8760    7.9010    9.4700 O.co2 232  GLU232     -0.2457
    178  N          3.6650    4.7160    6.9660 N.am  233  ASN233     -0.1960
    179  CA         3.5380    4.1520    5.7140 C.3   233  ASN233      0.1819
    180  C          4.9840    3.9640    5.1900 C.2   233  ASN233      0.2621
    181  O          5.9340    4.5820    5.7250 O.2   233  ASN233     -0.2715
    182  CB         2.7210    5.1060    4.8430 C.3   233  ASN233      0.1195
    183  CG         1.9620    4.3650    3.7980 C.2   233  ASN233      0.2630
    184  OD1        2.4520    3.2920    3.3270 O.2   233  ASN233     -0.2716
    185  ND2        0.8530    4.9120    3.3680 N.am  233  ASN233     -0.0877
    186  N          5.1450    3.2170    4.1400 N.am  234  GLY234     -0.1954
    187  CA         6.4030    3.2810    3.3890 C.3   234  GLY234      0.1869
    188  C          7.1040    1.9530    3.2750 C.2   234  GLY234      0.2309
    189  O          7.9380    1.7750    2.3980 O.2   234  GLY234     -0.2863
    190  N         13.7380    5.4190    4.1880 N.3   299  ASN299     -0.1240
    191  CA        13.1800    6.7920    4.1120 C.3   299  ASN299      0.1653
    192  C         14.2970    7.8080    3.8410 C.2   299  ASN299      0.2266
    193  O         14.4440    8.8150    4.5600 O.2   299  ASN299     -0.2867
    194  CB        12.3820    7.1700    5.3880 C.3   299  ASN299      0.1155
    195  CG        11.5860    8.4490    5.2230 C.2   299  ASN299      0.2627
    196  OD1       11.5170    9.0060    4.1340 O.2   299  ASN299     -0.2716
    197  ND2       10.9960    8.9420    6.2990 N.am  299  ASN299     -0.0877
    198  N         14.5620    9.9930    1.5760 N.3   301  SER301     -0.1202
    199  CA        14.0730   11.3030    1.2130 C.3   301  SER301      0.2020
    200  C         14.0860   12.2990    2.3970 C.2   301  SER301      0.2619
    201  O         14.2490   13.4390    2.1960 O.2   301  SER301     -0.2717
    202  CB        12.6670   11.2210    0.6270 C.3   301  SER301      0.2103
    203  OG        11.7320   11.2030    1.5970 O.3   301  SER301     -0.2182
    204  N         13.9050   11.8350    3.6160 N.am  302  SER302     -0.1951
    205  CA        13.8660   12.7280    4.7690 C.3   302  SER302      0.1924
    206  C         15.2280   13.3090    5.0730 C.2   302  SER302      0.2314
    207  O         15.3550   14.1570    5.8910 O.2   302  SER302     -0.2863
    208  CB        13.2280   12.1130    5.9820 C.3   302  SER302      0.2116
    209  OG        13.8870   10.9920    6.3640 O.3   302  SER302     -0.2180
    210  N         11.3550   15.4060    0.0090 N.3   306  SER306     -0.1202
    211  CA        10.0730   14.7420   -0.2990 C.3   306  SER306      0.2020
    212  C          9.6810   14.9700   -1.7740 C.2   306  SER306      0.2619
    213  O          9.7030   16.1120   -2.2790 O.2   306  SER306     -0.2717
    214  CB         8.9590   15.3120    0.6130 C.3   306  SER306      0.2103
    215  OG         8.2170   14.2860    1.2570 O.3   306  SER306     -0.2182
    216  N          9.3040   13.8830   -2.4480 N.am  307  SER307     -0.1937
    217  CA         8.9170   13.9490   -3.8660 C.3   307  SER307      0.2055
    218  C          7.5500   14.6100   -4.1200 C.2   307  SER307      0.2643
    219  O          7.2120   14.7860   -5.2760 O.2   307  SER307     -0.2714
    220  CB         8.8540   12.5440   -4.4220 C.3   307  SER307      0.2130
    221  OG         8.0010   11.8210   -3.5920 O.3   307  SER307     -0.2179
    222  N          6.7600   14.8920   -3.0600 N.am  308  TRP308     -0.1959
    223  CA         5.3690   15.4460   -3.1690 C.3   308  TRP308      0.1771
    224  C          4.9330   16.5000   -2.0930 C.2   308  TRP308      0.2619
    225  O          3.8310   17.0320   -2.1930 O.2   308  TRP308     -0.2715
    226  CB         4.3390   14.2900   -3.1410 C.3   308  TRP308      0.0590
    227  CG         4.3500   13.6640   -1.7890 C.ar  308  TRP308      0.0006
    228  CD1        5.2220   12.7180   -1.3320 C.ar  308  TRP308      0.0946
    229  CD2        3.5530   14.0580   -0.6770 C.ar  308  TRP308      0.0152
    230  NE1        4.9930   12.4740   -0.0220 N.ar  308  TRP308     -0.2442
    231  CE2        3.9700   13.2820    0.4150 C.ar  308  TRP308      0.0810
    232  CE3        2.5050   14.9950   -0.4970 C.ar  308  TRP308      0.0012
    233  CZ2        3.3590   13.3790    1.6840 C.ar  308  TRP308      0.0191
    234  CZ3        1.9060   15.1020    0.7610 C.ar  308  TRP308      0.0001
    235  CH2        2.3380   14.2840    1.8410 C.ar  308  TRP308      0.0015
    236  N          5.7350   16.7820   -1.0680 N.am  309  ARG309     -0.1977
    237  CA         5.2890   17.6980    0.0230 C.3   309  ARG309      0.1597
    238  C          5.4710   19.1870   -0.3420 C.2   309  ARG309      0.2287
    239  O          6.5540   19.6310   -0.7460 O.2   309  ARG309     -0.2864
    240  CB         5.9590   17.3570    1.3690 C.3   309  ARG309      0.0334
    241  CG         5.4640   16.0540    1.9850 C.3   309  ARG309      0.0492
    242  CD         6.2060   15.7040    3.2740 C.3   309  ARG309      0.2205
    243  NE         6.0110   14.2970    3.6730 N.pl3 309  ARG309     -0.0865
    244  CZ         4.9390   13.8110    4.3070 C.cat 309  ARG309      0.5346
    245  NH1        3.9040   14.6030    4.6110 N.pl3 309  ARG309      0.1354
    246  NH2        4.8780   12.5110    4.6040 N.pl3 309  ARG309      0.1354
@<TRIPOS>BOND
     1    55    56    1
     2    57    58    2
     3    57    56    1
     4    56    59    1
     5    59    60    1
     6    60    61    1
     7    47    46    2
     8    40    39    1
     9    40    41    1
    10    61    62    1
    11    38    37    2
    12    46    45    1
    13    39    36    1
    14    41    42   ar
    15    41    43   ar
    16    62    63    2
    17    37    36    1
    18    37    44   am
    19    36    35    1
    20    45    44    1
    21    45    48    1
    22    63    64    1
    23    63    65    1
    24    35    26   am
    25    16    18   ar
    26    16    15   ar
    27    18    19   ar
    28    13    12    2
    29    49    48    1
    30    49    50    1
    31    15    14    1
    32    15    17   ar
    33    26    25    1
    34    26    27    2
    35    14    11    1
    36    12    11    1
    37    12    24   am
    38    19    17   ar
    39    19    21   ar
    40    25    24    1
    41    25    28    1
    42    50    51    1
    43    51    52    2
    44    11    10    1
    45    17    20   ar
    46    21    23   ar
    47    30    32   ar
    48    30    29   ar
    49    32    34   ar
    50    68    69    2
    51    68    67    1
    52    54    52    1
    53    10     3   am
    54    28    29    1
    55    52    53    1
    56    29    31   ar
    57    34    33   ar
    58    31    33   ar
    59    66    67    1
    60    20    22   ar
    61    67    70    1
    62    23    22   ar
    63     3     2    1
    64     3     4    2
    65    70    71    1
    66     2     1    1
    67     2     5    1
    68     6     5    1
    69     6     7    1
    70    71    73   ar
    71    71    72   ar
    72    73    75   ar
    73     9     7   am
    74   219   218    2
    75    72    74   ar
    76   142   139    1
    77     7     8    2
    78    94    96   ar
    79    94    93   ar
    80    92    89    1
    81    92    93    1
    82    96    98   ar
    83    88    89    1
    84   220   217    1
    85   220   221    1
    86    75    76   ar
    87    89    90    1
    88    93    95   ar
    89   218   217    1
    90   218   222   am
    91    74    76   ar
    92   217   216    1
    93   139   140    1
    94   139   138    1
    95   141   140    2
    96    76    77    1
    97    98    97   ar
    98   223   226    1
    99   223   222    1
   100   223   224    1
   101   140   143   am
   102   226   227    1
   103   107   108    1
   104    91    90    2
   105    90    99   am
   106    95    97   ar
   107   138   132   am
   108   108   111    1
   109   108   109    1
   110   216   212   am
   111   126   124   ar
   112   126   128   ar
   113    78    79    1
   114   213   212    2
   115   225   224    2
   116   224   236   am
   117   143   144    1
   118   124   123   ar
   119    99   100    1
   120    79    80    1
   121    79    82    1
   122   227   228   ar
   123   227   229   ar
   124   212   211    1
   125   111   112    1
   126   132   133    2
   127   132   131    1
   128   110   109    2
   129   129   128    1
   130    80    81    2
   131   117   115    1
   132   228   230   ar
   133   128   127   ar
   134   144   147    1
   135   144   145    1
   136   114   115    2
   137   114   113    1
   138   112   113    1
   139   236   237    1
   140   131   130    1
   141   131   134    1
   142   239   238    2
   143   147   148    1
   144   154   153    2
   145   123   122    1
   146   123   125   ar
   147   229   232   ar
   148   229   231   ar
   149   119   122    1
   150   119   118    1
   151   119   120    1
   152   115   116    1
   153   100   101    1
   154   100   103    1
   155   101   102    2
   156    82    83    1
   157   232   234   ar
   158   238   237    1
   159   211   210    1
   160   211   214    1
   161   145   151   am
   162   145   146    2
   163   230   231   ar
   164   151   152    1
   165   127   125   ar
   166   120   121    2
   167   237   240    1
   168   153   152    1
   169   134   135    1
   170   105   104   ar
   171   136   135   ar
   172   231   233   ar
   173   148   149   ar
   174   148   150   ar
   175   103   104    1
   176   214   215    1
   177   202   199    1
   178   202   203    1
   179    83    85   ar
   180    83    84   ar
   181   135   137   ar
   182   234   235   ar
   183   104   106   ar
   184   152   155    1
   185    85    87   ar
   186   199   198    1
   187   199   200    1
   188   155   156    1
   189   240   241    1
   190    84    86   ar
   191   233   235   ar
   192   156   157    1
   193   241   242    1
   194   201   200    2
   195    87    86   ar
   196   200   204   am
   197   189   188    2
   198   242   243    1
   199   188   187    1
   200   184   183    2
   201   185   183   am
   202   187   186    1
   203   157   158    1
   204   204   205    1
   205   243   244    2
   206   183   182    1
   207   192   191    1
   208   192   193    2
   209   191   190    1
   210   191   194    1
   211   196   195    2
   212   186   180   am
   213   244   246    1
   214   244   245    1
   215   205   206    1
   216   205   208    1
   217   182   179    1
   218   206   207    2
   219   180   179    1
   220   180   181    2
   221   195   194    1
   222   195   197   am
   223   179   178    1
   224   208   209    1
   225   178   171   am
   226   166   164   ar
   227   166   168   ar
   228   163   164    1
   229   163   160    1
   230   164   165   ar
   231   168   167   ar
   232   171   172    2
   233   171   170    1
   234   159   160    1
   235   165   167   ar
   236   160   161    1
   237   173   170    1
   238   173   174    1
   239   170   169    1
   240   177   175   ar
   241   161   162    2
   242   174   175    1
   243   175   176   ar
