@<TRIPOS>MOLECULE
tmp/5h68B01.pdb
 155 146 0 0 0
SMALL
GASTEIGER

@<TRIPOS>ATOM
      1  N         12.7420   -3.0340   41.9640 N.3    12  LYS12      -0.1231
      2  CA        13.5980   -2.3670   40.9830 C.3    12  LYS12       0.1693
      3  C         13.5990   -0.8550   41.1960 C.2    12  LYS12       0.2592
      4  O         13.9430   -0.3970   42.2810 O.2    12  LYS12      -0.2718
      5  CB        13.2260   -2.7760   39.5450 C.3    12  LYS12       0.0285
      6  CG        13.7350   -4.1870   39.1620 C.3    12  LYS12       0.0035
      7  CD        13.5370   -4.4940   37.6790 C.3    12  LYS12       0.0206
      8  CE        13.9570   -5.9310   37.3010 C.3    12  LYS12       0.1093
      9  NZ        14.0450   -6.1370   35.8120 N.3    12  LYS12      -0.1314
     10  N         13.1950   -0.0800   40.1940 N.am   13  SER13      -0.1952
     11  CA        13.2870    1.3810   40.3090 C.3    13  SER13       0.1924
     12  C         12.1820    2.0130   41.1590 C.2    13  SER13       0.2314
     13  O         12.1780    3.2330   41.4100 O.2    13  SER13      -0.2863
     14  CB        13.3130    2.0250   38.9210 C.3    13  SER13       0.2116
     15  OG        12.1390    1.7170   38.1990 O.3    13  SER13      -0.2180
     16  N         13.2350    7.0480   27.9810 N.3    33  ASN33      -0.1225
     17  CA        14.0800    5.8730   28.1910 C.3    33  ASN33       0.1785
     18  C         14.4740    5.7440   29.6600 C.2    33  ASN33       0.2598
     19  O         14.7400    6.7520   30.3350 O.2    33  ASN33      -0.2718
     20  CB        15.3770    5.9350   27.3660 C.3    33  ASN33       0.1169
     21  CG        15.1490    5.8330   25.8530 C.2    33  ASN33       0.2627
     22  OD1       15.8880    6.4530   25.0830 O.2    33  ASN33      -0.2716
     23  ND2       14.1370    5.0620   25.4240 N.am   33  ASN33      -0.0877
     24  N         14.5130    4.5090   30.1510 N.am   34  GLY34      -0.1942
     25  CA        15.0460    4.2440   31.4770 C.3    34  GLY34       0.2014
     26  C         14.1700    4.6560   32.6510 C.2    34  GLY34       0.2640
     27  O         14.6350    4.6640   33.7940 O.2    34  GLY34      -0.2714
     28  N         12.9020    4.9620   32.4000 N.am   35  SER35      -0.1935
     29  CA        12.0600    5.5140   33.4700 C.3    35  SER35       0.2055
     30  C         11.4310    4.4890   34.4160 C.2    35  SER35       0.2644
     31  O         11.0610    4.8350   35.5350 O.2    35  SER35      -0.2714
     32  CB        10.9960    6.4730   32.9270 C.3    35  SER35       0.2130
     33  OG        10.0100    5.7950   32.1720 O.3    35  SER35      -0.2179
     34  N         11.3020    3.2380   33.9860 N.am   36  GLY36      -0.1939
     35  CA        10.6820    2.2320   34.8380 C.3    36  GLY36       0.2014
     36  C          9.4990    1.4880   34.2290 C.2    36  GLY36       0.2639
     37  O          8.8720    0.6720   34.9090 O.2    36  GLY36      -0.2714
     38  N          9.2020    1.7260   32.9510 N.am   37  LYS37      -0.1963
     39  CA         8.0250    1.1010   32.3310 C.3    37  LYS37       0.1728
     40  C          8.1230   -0.4250   32.2130 C.2    37  LYS37       0.2617
     41  O          7.2450   -1.1520   32.6890 O.2    37  LYS37      -0.2715
     42  CB         7.7070    1.7420   30.9670 C.3    37  LYS37       0.0311
     43  CG         7.6050    3.2760   31.0280 C.3    37  LYS37       0.0038
     44  CD         7.3480    3.8860   29.6540 C.3    37  LYS37       0.0206
     45  CE         8.5630    3.7370   28.7270 C.3    37  LYS37       0.1093
     46  NZ         9.8180    4.3420   29.3040 N.3    37  LYS37      -0.1314
     47  N          9.1780   -0.9190   31.5740 N.am   38  SER38      -0.1936
     48  CA         9.3460   -2.3560   31.4570 C.3    38  SER38       0.2055
     49  C          9.4720   -3.0010   32.8330 C.2    38  SER38       0.2643
     50  O          9.1310   -4.1740   33.0020 O.2    38  SER38      -0.2714
     51  CB        10.5600   -2.7020   30.5930 C.3    38  SER38       0.2130
     52  OG        10.3460   -2.2650   29.2570 O.3    38  SER38      -0.2179
     53  N          9.9560   -2.2410   33.8130 N.am   39  ASN39      -0.1971
     54  CA        10.0480   -2.7790   35.1700 C.3    39  ASN39       0.1688
     55  C          8.6690   -3.1420   35.7100 C.2    39  ASN39       0.2292
     56  O          8.5210   -4.1110   36.4520 O.2    39  ASN39      -0.2864
     57  CB        10.7480   -1.8010   36.1190 C.3    39  ASN39       0.1181
     58  CG        12.2450   -1.6550   35.8440 C.2    39  ASN39       0.2629
     59  OD1       12.8520   -2.4360   35.1020 O.2    39  ASN39      -0.2716
     60  ND2       12.8440   -0.6250   36.4450 N.am   39  ASN39      -0.0877
     61  N         15.6980  -10.0560   33.7090 N.3    57  ARG57      -0.1245
     62  CA        16.9410   -9.3220   33.4470 C.3    57  ARG57       0.1563
     63  C         17.9300   -9.3120   34.6010 C.2    57  ARG57       0.2260
     64  O         18.9150   -8.5710   34.5740 O.2    57  ARG57      -0.2867
     65  CB        16.6480   -7.8890   33.0020 C.3    57  ARG57       0.0307
     66  CG        16.1460   -7.7860   31.5680 C.3    57  ARG57       0.0489
     67  CD        15.8470   -6.3510   31.2180 C.3    57  ARG57       0.2205
     68  NE        14.6220   -5.8610   31.8520 N.pl3  57  ARG57      -0.0865
     69  CZ        14.3510   -4.5730   32.0300 C.cat  57  ARG57       0.5346
     70  NH1       15.2210   -3.6440   31.6290 N.pl3  57  ARG57       0.1354
     71  NH2       13.2040   -4.2100   32.5960 N.pl3  57  ARG57       0.1354
     72  N         18.3120   -9.2240   42.7480 N.3    63  ASP63      -0.1239
     73  CA        18.5030   -8.0890   41.8490 C.3    63  ASP63       0.1674
     74  C         17.2320   -7.2620   41.6260 C.2    63  ASP63       0.2266
     75  O         17.3080   -6.1140   41.1880 O.2    63  ASP63      -0.2867
     76  CB        19.0560   -8.5600   40.4950 C.3    63  ASP63       0.1410
     77  CG        20.4230   -9.2180   40.6190 C.2    63  ASP63       0.3668
     78  OD1       21.1380   -8.9170   41.5990 O.co2  63  ASP63      -0.2456
     79  OD2       20.7810  -10.0360   39.7420 O.co2  63  ASP63      -0.2456
     80  N         15.3330   -6.1760   43.9450 N.3    65  ILE65      -0.1231
     81  CA        15.1390   -5.2250   45.0440 C.3    65  ILE65       0.1692
     82  C         15.8550   -3.9040   44.7320 C.2    65  ILE65       0.2592
     83  O         16.9940   -3.9190   44.2830 O.2    65  ILE65      -0.2718
     84  CB        15.6970   -5.7730   46.3820 C.3    65  ILE65       0.0266
     85  CG1       15.1200   -7.1640   46.6870 C.3    65  ILE65       0.0019
     86  CG2       15.4030   -4.7900   47.5150 C.3    65  ILE65       0.0020
     87  CD1       15.8290   -7.8990   47.8620 C.3    65  ILE65       0.0001
     88  N         15.1900   -2.7770   44.9800 N.am   66  PHE66      -0.1962
     89  CA        15.7970   -1.4630   44.7910 C.3    66  PHE66       0.1771
     90  C         17.1910   -1.3890   45.4110 C.2    66  PHE66       0.2619
     91  O         17.3620   -1.5300   46.6300 O.2    66  PHE66      -0.2715
     92  CB        14.9030   -0.3600   45.3550 C.3    66  PHE66       0.0574
     93  CG        15.4910    1.0280   45.2140 C.ar   66  PHE66      -0.0200
     94  CD1       15.5310    1.6620   43.9740 C.ar   66  PHE66      -0.0042
     95  CD2       15.9960    1.6980   46.3220 C.ar   66  PHE66      -0.0042
     96  CE1       16.0680    2.9460   43.8430 C.ar   66  PHE66      -0.0003
     97  CE2       16.5340    2.9720   46.2060 C.ar   66  PHE66      -0.0003
     98  CZ        16.5770    3.6020   44.9720 C.ar   66  PHE66      -0.0000
     99  N         18.1930   -1.1750   44.5640 N.am   67  ALA67      -0.1963
    100  CA        19.5770   -1.2900   45.0040 C.3    67  ALA67       0.1728
    101  C         20.1980    0.0430   45.3750 C.2    67  ALA67       0.2616
    102  O         21.3810    0.0960   45.6960 O.2    67  ALA67      -0.2715
    103  CB        20.4210   -1.9980   43.9560 C.3    67  ALA67       0.0334
    104  N         19.4120    1.1120   45.3420 N.am   68  GLY68      -0.1955
    105  CA        19.9220    2.4180   45.7370 C.3    68  GLY68       0.1869
    106  C         20.1800    3.3210   44.5390 C.2    68  GLY68       0.2309
    107  O         20.0940    2.8910   43.4000 O.2    68  GLY68      -0.2863
    108  N          9.6390   -6.4850   25.6880 N.3   143  GLN143     -0.1245
    109  CA        10.2630   -5.5390   24.7800 C.3   143  GLN143      0.1566
    110  C         11.2790   -6.2730   23.8980 C.2   143  GLN143      0.2260
    111  O         12.0770   -7.0760   24.3890 O.2   143  GLN143     -0.2867
    112  CB        10.9380   -4.4120   25.5650 C.3   143  GLN143      0.0367
    113  CG        11.3960   -3.2500   24.7090 C.3   143  GLN143      0.0905
    114  CD        11.9130   -2.1070   25.5520 C.2   143  GLN143      0.2608
    115  OE1       11.9390   -2.1890   26.7900 O.2   143  GLN143     -0.2717
    116  NE2       12.3150   -1.0290   24.8990 N.am  143  GLN143     -0.0878
    117  N          6.0110   -2.2980   23.9650 N.3   264  GLN264     -0.1245
    118  CA         6.5180   -1.7320   22.7130 C.3   264  GLN264      0.1566
    119  C          6.4950   -2.7000   21.5370 C.2   264  GLN264      0.2260
    120  O          7.4760   -2.8080   20.8060 O.2   264  GLN264     -0.2867
    121  CB         7.9290   -1.1560   22.9060 C.3   264  GLN264      0.0367
    122  CG         7.9870   -0.0920   23.9950 C.3   264  GLN264      0.0905
    123  CD         9.3290    0.6290   24.1030 C.2   264  GLN264      0.2608
    124  OE1        9.6760    1.1410   25.1800 O.2   264  GLN264     -0.2717
    125  NE2       10.0810    0.7020   22.9850 N.am  264  GLN264     -0.0878
    126  N          2.8940   -0.7360   26.8870 N.3   293  ILE293     -0.1245
    127  CA         3.8980    0.2890   26.9780 C.3   293  ILE293      0.1561
    128  C          4.1300    0.7390   25.5440 C.2   293  ILE293      0.2260
    129  O          4.3500   -0.0870   24.6470 O.2   293  ILE293     -0.2867
    130  CB         5.1710   -0.2640   27.6010 C.3   293  ILE293      0.0252
    131  CG1        4.8910   -0.6020   29.0670 C.3   293  ILE293      0.0019
    132  CG2        6.2990    0.7570   27.5100 C.3   293  ILE293      0.0019
    133  CD1        5.9250   -1.4460   29.6460 C.3   293  ILE293      0.0001
    134  N          5.2950    4.2150   22.7030 N.3   295  HIS295     -0.1241
    135  CA         5.7740    5.5570   22.4060 C.3   295  HIS295      0.1621
    136  C          5.0200    6.1190   21.2170 C.2   295  HIS295      0.2264
    137  O          5.3660    7.1810   20.7200 O.2   295  HIS295     -0.2867
    138  CB         7.2780    5.5430   22.0860 C.3   295  HIS295      0.0745
    139  CG         8.1150    5.0100   23.1930 C.ar  295  HIS295      0.0817
    140  ND1        8.5770    5.8000   24.2310 N.ar  295  HIS295     -0.2268
    141  CD2        8.5680    3.7590   23.4520 C.ar  295  HIS295      0.1154
    142  CE1        9.2710    5.0600   25.0690 C.ar  295  HIS295      0.1986
    143  NE2        9.2760    3.8160   24.6260 N.ar  295  HIS295     -0.2212
    144  N         11.4970    9.5910   35.9300 N.3   311  MET311     -0.1245
    145  CA        12.5270    9.4710   36.9350 C.3   311  MET311      0.1570
    146  C         13.1550   10.8580   37.1500 C.2   311  MET311      0.2261
    147  O         14.2940   11.0970   36.7590 O.2   311  MET311     -0.2867
    148  CB        13.5620    8.4430   36.4640 C.3   311  MET311      0.0387
    149  CG        14.3970    7.8190   37.5610 C.3   311  MET311      0.0595
    150  SD        15.3300    6.4430   36.8980 S.3   311  MET311     -0.1393
    151  CE        14.1870    5.0820   37.0930 C.3   311  MET311      0.0692
    152  N         17.3100    7.6370   39.8240 N.3   315  GLY315     -0.1225
    153  CA        17.0910    6.2330   40.1210 C.3   315  GLY315      0.1811
    154  C         15.7080    5.7880   40.5770 C.2   315  GLY315      0.2280
    155  O         15.4590    4.5880   40.6800 O.2   315  GLY315     -0.2866
@<TRIPOS>BOND
     1   137   136    2
     2   120   119    2
     3   136   135    1
     4   119   118    1
     5   138   135    1
     6   138   139    1
     7   135   134    1
     8   118   121    1
     9   118   117    1
    10   121   122    1
    11   125   123   am
    12   139   141   ar
    13   139   140   ar
    14   141   143   ar
    15   110   111    2
    16   110   109    1
    17   122   123    1
    18   123   124    2
    19   140   142   ar
    20   143   142   ar
    21   129   128    2
    22   113   114    1
    23   113   112    1
    24   109   112    1
    25   109   108    1
    26   116   114   am
    27    22    21    2
    28    23    21   am
    29   128   127    1
    30   114   115    2
    31    21    20    1
    32   126   127    1
    33   127   130    1
    34    20    17    1
    35   132   130    1
    36   130   131    1
    37    16    17    1
    38    17    18    1
    39    45    46    1
    40    45    44    1
    41   131   133    1
    42    52    51    1
    43    44    43    1
    44    18    24   am
    45    18    19    2
    46    24    25    1
    47    51    48    1
    48    42    43    1
    49    42    39    1
    50    67    66    1
    51    67    68    1
    52    48    47    1
    53    48    49    1
    54    25    26    1
    55    66    65    1
    56    47    40   am
    57    70    69    1
    58    68    69    2
    59    69    71    1
    60    33    32    1
    61    40    39    1
    62    40    41    2
    63    39    38    1
    64    28    26   am
    65    28    29    1
    66    26    27    2
    67    49    50    2
    68    49    53   am
    69    32    29    1
    70    38    36   am
    71    65    62    1
    72    62    61    1
    73    62    63    1
    74    29    30    1
    75    53    54    1
    76    34    30   am
    77    34    35    1
    78    36    35    1
    79    36    37    2
    80    30    31    2
    81    64    63    2
    82    59    58    2
    83    54    55    1
    84    54    57    1
    85    55    56    2
    86     9     8    1
    87    58    57    1
    88    58    60   am
    89   144   145    1
    90   148   145    1
    91   148   149    1
    92   147   146    2
    93   150   151    1
    94   150   149    1
    95   145   146    1
    96     8     7    1
    97     7     6    1
    98    15    14    1
    99    14    11    1
   100     6     5    1
   101     5     2    1
   102    79    77   ar
   103   152   153    1
   104   153   154    1
   105    10    11    1
   106    10     3   am
   107    11    12    1
   108    76    77    1
   109    76    73    1
   110   154   155    2
   111    77    78   ar
   112     2     3    1
   113     2     1    1
   114    12    13    2
   115    75    74    2
   116     3     4    2
   117    74    73    1
   118    73    72    1
   119   107   106    2
   120    96    94   ar
   121    96    98   ar
   122    80    81    1
   123   103   100    1
   124    94    93   ar
   125    83    82    2
   126   106   105    1
   127    99   100    1
   128    99    90   am
   129    82    88   am
   130    82    81    1
   131    89    88    1
   132    89    92    1
   133    89    90    1
   134    98    97   ar
   135   100   101    1
   136    81    84    1
   137    93    92    1
   138    93    95   ar
   139   104   101   am
   140   104   105    1
   141   101   102    2
   142    90    91    2
   143    97    95   ar
   144    84    85    1
   145    84    86    1
   146    85    87    1
