@<TRIPOS>MOLECULE
tmp/5h68B00.pdb
 79 74 0 0 0
SMALL
GASTEIGER

@<TRIPOS>ATOM
      1  N          2.7140   -8.4510   -2.8570 N.3   227  LYS227     -0.1231
      2  CA         3.8940   -9.2900   -2.9720 C.3   227  LYS227      0.1693
      3  C          3.5890  -10.7290   -3.3300 C.2   227  LYS227      0.2591
      4  O          2.4750  -11.2080   -3.1150 O.2   227  LYS227     -0.2718
      5  CB         4.7240   -9.2390   -1.6900 C.3   227  LYS227      0.0285
      6  CG         5.7460   -8.1040   -1.7110 C.3   227  LYS227      0.0035
      7  CD         5.6390   -7.2250   -0.4830 C.3   227  LYS227      0.0206
      8  CE         6.6330   -6.0770   -0.5680 C.3   227  LYS227      0.1093
      9  NZ         6.5990   -5.2300    0.6700 N.3   227  LYS227     -0.1314
     10  N          4.5940  -11.3880   -3.9000 N.am  228  LYS228     -0.1980
     11  CA         4.5630  -12.8260   -4.1290 C.3   228  LYS228      0.1596
     12  C          5.0510  -13.5130   -2.8720 C.2   228  LYS228      0.2287
     13  O          6.0060  -13.0540   -2.2350 O.2   228  LYS228     -0.2864
     14  CB         5.4680  -13.2170   -5.2980 C.3   228  LYS228      0.0298
     15  CG         4.8160  -13.0630   -6.6730 C.3   228  LYS228      0.0038
     16  CD         5.5220  -13.9210   -7.7240 C.3   228  LYS228      0.0206
     17  CE         4.6670  -14.0770   -8.9880 C.3   228  LYS228      0.1093
     18  NZ         4.9260  -13.0130  -10.0110 N.3   228  LYS228     -0.1314
     19  N          7.0530  -15.5100   -0.4750 N.3   230  GLN230     -0.1245
     20  CA         8.4520  -15.8940   -0.4450 C.3   230  GLN230      0.1566
     21  C          8.7290  -16.3270    0.9760 C.2   230  GLN230      0.2260
     22  O          7.8340  -16.2490    1.8220 O.2   230  GLN230     -0.2867
     23  CB         9.3440  -14.7120   -0.8230 C.3   230  GLN230      0.0367
     24  CG         9.1110  -14.1730   -2.2260 C.3   230  GLN230      0.0905
     25  CD         9.9060  -12.9170   -2.4860 C.2   230  GLN230      0.2608
     26  OE1       11.1190  -12.9740   -2.6900 O.2   230  GLN230     -0.2717
     27  NE2        9.2310  -11.7670   -2.4560 N.am  230  GLN230     -0.0878
     28  N         12.6140  -13.4210    4.2930 N.3   234  LEU234     -0.1231
     29  CA        12.8530  -12.2550    3.4480 C.3   234  LEU234      0.1693
     30  C         11.9550  -11.0620    3.7720 C.2   234  LEU234      0.2592
     31  O         12.1590   -9.9770    3.2360 O.2   234  LEU234     -0.2718
     32  CB        12.7060  -12.6140    1.9660 C.3   234  LEU234      0.0284
     33  CG        13.7910  -13.5220    1.3870 C.3   234  LEU234      0.0019
     34  CD1       13.3660  -14.0170    0.0020 C.3   234  LEU234      0.0001
     35  CD2       15.1100  -12.7710    1.3190 C.3   234  LEU234      0.0001
     36  N         10.9580  -11.2570    4.6300 N.am  235  LEU235     -0.1966
     37  CA        10.0720  -10.1540    4.9820 C.3   235  LEU235      0.1728
     38  C         10.8210   -9.1110    5.8170 C.2   235  LEU235      0.2617
     39  O         11.8210   -9.4140    6.4660 O.2   235  LEU235     -0.2715
     40  CB         8.8180  -10.6400    5.7230 C.3   235  LEU235      0.0311
     41  CG         7.8680  -11.5220    4.9170 C.3   235  LEU235      0.0022
     42  CD1        6.5860  -11.7390    5.6900 C.3   235  LEU235      0.0001
     43  CD2        7.5760  -10.9220    3.5570 C.3   235  LEU235      0.0001
     44  N         10.3270   -7.8830    5.7790 N.am  236  SER236     -0.1936
     45  CA        10.9840   -6.7710    6.4530 C.3   236  SER236      0.2055
     46  C         10.7680   -6.8310    7.9670 C.2   236  SER236      0.2644
     47  O          9.9820   -7.6440    8.4770 O.2   236  SER236     -0.2714
     48  CB        10.4520   -5.4480    5.9050 C.3   236  SER236      0.2130
     49  OG         9.1550   -5.2070    6.3830 O.3   236  SER236     -0.2179
     50  N         11.4790   -5.9770    8.6900 N.am  237  GLY237     -0.1939
     51  CA        11.3190   -5.8760   10.1300 C.3   237  GLY237      0.2014
     52  C          9.8980   -5.5510   10.5470 C.2   237  GLY237      0.2639
     53  O          9.3510   -6.1670   11.4720 O.2   237  GLY237     -0.2714
     54  N          9.2820   -4.5780    9.8810 N.am  238  GLY238     -0.1939
     55  CA         7.9120   -4.2260   10.2200 C.3   238  GLY238      0.2014
     56  C          6.8940   -5.2550    9.7580 C.2   238  GLY238      0.2638
     57  O          5.8830   -5.4890   10.4320 O.2   238  GLY238     -0.2714
     58  N          7.1400   -5.8580    8.5980 N.am  239  GLU239     -0.1977
     59  CA         6.2520   -6.9100    8.0860 C.3   239  GLU239      0.1602
     60  C          6.2850   -8.1230    9.0030 C.2   239  GLU239      0.2287
     61  O          5.2440   -8.7150    9.3150 O.2   239  GLU239     -0.2864
     62  CB         6.6530   -7.3080    6.6570 C.3   239  GLU239      0.0415
     63  CG         6.3330   -6.2350    5.6260 C.3   239  GLU239      0.1163
     64  CD         6.8960   -6.5410    4.2440 C.2   239  GLU239      0.3649
     65  OE1        7.9350   -7.2330    4.1480 O.co2 239  GLU239     -0.2457
     66  OE2        6.3100   -6.0650    3.2400 O.co2 239  GLU239     -0.2457
     67  N          8.6030   -1.4710   15.3430 N.3   268  ALA268     -0.1245
     68  CA         8.9980   -1.6000   13.9270 C.3   268  ALA268      0.1562
     69  C          7.9540   -1.1140   12.9160 C.2   268  ALA268      0.2260
     70  O          8.2220   -1.0470   11.7140 O.2   268  ALA268     -0.2867
     71  CB         9.3800   -3.0670   13.6330 C.3   268  ALA268      0.0290
     72  N          5.3390    1.2260   10.7650 N.3   270  ASP270     -0.1239
     73  CA         5.2770    2.5710   10.2000 C.3   270  ASP270      0.1674
     74  C          3.9770    3.2220   10.6520 C.2   270  ASP270      0.2266
     75  O          3.1750    2.5800   11.3400 O.2   270  ASP270     -0.2867
     76  CB         5.4460    2.5620    8.6570 C.3   270  ASP270      0.1410
     77  CG         4.2980    1.8710    7.9200 C.2   270  ASP270      0.3668
     78  OD1        3.1910    1.7030    8.4850 O.co2 270  ASP270     -0.2456
     79  OD2        4.4850    1.5260    6.7250 O.co2 270  ASP270     -0.2456
@<TRIPOS>BOND
     1    18    17    1
     2    17    16    1
     3    16    15    1
     4    15    14    1
     5    14    11    1
     6    11    10    1
     7    11    12    1
     8    10     3   am
     9     3     4    2
    10     3     2    1
    11     2     1    1
    12     2     5    1
    13    12    13    2
    14    26    25    2
    15    25    27   am
    16    25    24    1
    17    24    23    1
    18     6     5    1
    19     6     7    1
    20    23    20    1
    21     8     7    1
    22     8     9    1
    23    19    20    1
    24    20    21    1
    25    34    33    1
    26    21    22    2
    27    35    33    1
    28    33    32    1
    29    32    29    1
    30    31    30    2
    31    66    64   ar
    32    29    30    1
    33    29    28    1
    34    43    41    1
    35    30    36   am
    36    65    64   ar
    37    64    63    1
    38    36    37    1
    39    41    42    1
    40    41    40    1
    41    37    40    1
    42    37    38    1
    43    63    62    1
    44    44    38   am
    45    44    45    1
    46    38    39    2
    47    48    49    1
    48    48    45    1
    49    45    46    1
    50    62    59    1
    51    79    77   ar
    52    77    78   ar
    53    77    76    1
    54    46    47    2
    55    46    50   am
    56    59    58    1
    57    59    60    1
    58    58    56   am
    59    76    73    1
    60    50    51    1
    61    60    61    2
    62    56    55    1
    63    56    57    2
    64    54    55    1
    65    54    52   am
    66    51    52    1
    67    73    74    1
    68    73    72    1
    69    52    53    2
    70    74    75    2
    71    70    69    2
    72    69    68    1
    73    71    68    1
    74    68    67    1
