@<TRIPOS>MOLECULE
tmp/5h6lA00.pdb
 208 206 0 0 0
SMALL
GASTEIGER

@<TRIPOS>ATOM
      1  N        -29.1770  -85.8310   -0.1430 N.3    63  VAL63      -0.1231
      2  CA       -28.7410  -87.1630    0.2800 C.3    63  VAL63       0.1692
      3  C        -27.2180  -87.1830    0.4400 C.2    63  VAL63       0.2592
      4  O        -26.5030  -86.5300   -0.3220 O.2    63  VAL63      -0.2718
      5  CB       -29.2270  -88.2400   -0.7270 C.3    63  VAL63       0.0266
      6  CG1      -28.4700  -89.5600   -0.5840 C.3    63  VAL63       0.0020
      7  CG2      -30.7270  -88.4640   -0.5660 C.3    63  VAL63       0.0020
      8  N        -26.7390  -87.9140    1.4490 N.am   64  ARG64      -0.1966
      9  CA       -25.3140  -88.2150    1.6030 C.3    64  ARG64       0.1729
     10  C        -25.1120  -89.7110    1.8400 C.2    64  ARG64       0.2616
     11  O        -25.6170  -90.2660    2.8190 O.2    64  ARG64      -0.2715
     12  CB       -24.6910  -87.4230    2.7570 C.3    64  ARG64       0.0348
     13  CG       -23.1870  -87.6430    2.8860 C.3    64  ARG64       0.0492
     14  CD       -22.5320  -86.7400    3.9160 C.3    64  ARG64       0.2205
     15  NE       -21.2230  -87.2660    4.3120 N.pl3  64  ARG64      -0.0865
     16  CZ       -20.1020  -87.1950    3.5860 C.cat  64  ARG64       0.5346
     17  NH1      -20.0810  -86.6070    2.3880 N.pl3  64  ARG64       0.1354
     18  NH2      -18.9780  -87.7230    4.0670 N.pl3  64  ARG64       0.1354
     19  N        -24.3690  -90.3470    0.9360 N.am   65  TRP65      -0.1960
     20  CA       -23.9070  -91.7210    1.1160 C.3    65  TRP65       0.1771
     21  C        -22.7320  -91.7220    2.0920 C.2    65  TRP65       0.2620
     22  O        -21.8100  -90.9140    1.9540 O.2    65  TRP65      -0.2715
     23  CB       -23.4590  -92.3250   -0.2170 C.3    65  TRP65       0.0590
     24  CG       -24.5440  -92.4230   -1.2470 C.ar   65  TRP65       0.0006
     25  CD1      -24.8830  -91.4800   -2.1760 C.ar   65  TRP65       0.0946
     26  CD2      -25.4270  -93.5290   -1.4600 C.ar   65  TRP65       0.0152
     27  NE1      -25.9210  -91.9310   -2.9530 N.ar   65  TRP65      -0.2442
     28  CE2      -26.2770  -93.1860   -2.5350 C.ar   65  TRP65       0.0810
     29  CE3      -25.5840  -94.7790   -0.8450 C.ar   65  TRP65       0.0012
     30  CZ2      -27.2700  -94.0490   -3.0120 C.ar   65  TRP65       0.0191
     31  CZ3      -26.5750  -95.6380   -1.3170 C.ar   65  TRP65       0.0001
     32  CH2      -27.4060  -95.2660   -2.3910 C.ar   65  TRP65       0.0015
     33  N        -22.7710  -92.6220    3.0740 N.am   66  ASP66      -0.1957
     34  CA       -21.7130  -92.7210    4.0860 C.3    66  ASP66       0.1840
     35  C        -21.7110  -94.1120    4.7260 C.2    66  ASP66       0.2622
     36  O        -22.7660  -94.7280    4.8820 O.2    66  ASP66      -0.2715
     37  CB       -21.9040  -91.6370    5.1590 C.3    66  ASP66       0.1450
     38  CG       -20.5980  -91.2300    5.8280 C.2    66  ASP66       0.3671
     39  OD1      -19.8450  -92.1180    6.2800 O.co2  66  ASP66      -0.2456
     40  OD2      -20.3300  -90.0120    5.9100 O.co2  66  ASP66      -0.2456
     41  N        -20.5220  -94.5930    5.0900 N.am   67  ARG67      -0.1963
     42  CA       -20.3600  -95.9060    5.7310 C.3    67  ARG67       0.1729
     43  C        -20.3890  -95.8540    7.2660 C.2    67  ARG67       0.2616
     44  O        -20.5080  -96.8990    7.9100 O.2    67  ARG67      -0.2715
     45  CB       -19.0700  -96.5790    5.2480 C.3    67  ARG67       0.0348
     46  CG       -19.1150  -96.9720    3.7800 C.3    67  ARG67       0.0492
     47  CD       -17.8880  -97.7610    3.3570 C.3    67  ARG67       0.2205
     48  NE       -17.9980  -98.2230    1.9710 N.pl3  67  ARG67      -0.0865
     49  CZ       -18.6940  -99.2860    1.5550 C.cat  67  ARG67       0.5346
     50  NH1      -19.3750 -100.0550    2.4090 N.pl3  67  ARG67       0.1354
     51  NH2      -18.7100  -99.5890    0.2590 N.pl3  67  ARG67       0.1354
     52  N        -20.2830  -94.6550    7.8440 N.am   68  ARG68      -0.1977
     53  CA       -20.3560  -94.4810    9.3010 C.3    68  ARG68       0.1597
     54  C        -21.8030  -94.6390    9.7930 C.2    68  ARG68       0.2287
     55  O        -22.7310  -94.1860    9.1160 O.2    68  ARG68      -0.2864
     56  CB       -19.8080  -93.1130    9.7120 C.3    68  ARG68       0.0334
     57  CG       -18.3240  -92.9300    9.4300 C.3    68  ARG68       0.0492
     58  CD       -17.8830  -91.5040    9.7180 C.3    68  ARG68       0.2205
     59  NE       -18.3980  -90.5570    8.7260 N.pl3  68  ARG68      -0.0865
     60  CZ       -18.3900  -89.2270    8.8510 C.cat  68  ARG68       0.5346
     61  NH1      -17.8910  -88.6320    9.9360 N.pl3  68  ARG68       0.1354
     62  NH2      -18.8940  -88.4770    7.8730 N.pl3  68  ARG68       0.1354
     63  N        -22.6500  -92.4800   15.3440 N.3    72  GLU72      -0.1245
     64  CA       -21.7410  -91.3690   15.0250 C.3    72  GLU72       0.1567
     65  C        -22.5020  -90.1740   14.4510 C.2    72  GLU72       0.2260
     66  O        -22.3830  -89.0560   14.9550 O.2    72  GLU72      -0.2867
     67  CB       -20.6540  -91.7920   14.0200 C.3    72  GLU72       0.0388
     68  CG       -19.3260  -92.2000   14.6430 C.3    72  GLU72       0.1160
     69  CD       -18.1720  -92.1100   13.6590 C.2    72  GLU72       0.3649
     70  OE1      -17.8340  -90.9830   13.2370 O.co2  72  GLU72      -0.2457
     71  OE2      -17.5970  -93.1640   13.3130 O.co2  72  GLU72      -0.2457
     72  N        -19.3490  -84.0060   10.4920 N.3    79  VAL79      -0.1231
     73  CA       -18.1550  -83.1930   10.7290 C.3    79  VAL79       0.1678
     74  C        -17.2020  -83.4140    9.5490 C.2    79  VAL79       0.2434
     75  O        -16.9860  -84.5620    9.1530 O.2    79  VAL79      -0.2733
     76  CB       -17.4440  -83.5870   12.0480 C.3    79  VAL79       0.0265
     77  CG1      -16.3050  -82.6220   12.3650 C.3    79  VAL79       0.0020
     78  CG2      -18.4330  -83.6280   13.2090 C.3    79  VAL79       0.0020
     79  N        -16.6280  -82.3290    8.9820 N.am   80  PRO80      -0.2718
     80  CA       -15.6580  -82.5180    7.8950 C.3    80  PRO80       0.1535
     81  C        -14.3220  -83.0900    8.3830 C.2    80  PRO80       0.2598
     82  O        -14.0380  -83.0640    9.5830 O.2    80  PRO80      -0.2715
     83  CB       -15.4740  -81.1030    7.3360 C.3    80  PRO80       0.0310
     84  CG       -15.7790  -80.2050    8.4800 C.3    80  PRO80       0.0237
     85  CD       -16.8480  -80.8990    9.2740 C.3    80  PRO80       0.0939
     86  N        -13.5190  -83.6000    7.4500 N.am   81  ILE81      -0.1978
     87  CA       -12.2220  -84.2080    7.7770 C.3    81  ILE81       0.1596
     88  C        -11.2410  -83.1480    8.2940 C.2    81  ILE81       0.2287
     89  O        -10.5490  -83.3790    9.2880 O.2    81  ILE81      -0.2864
     90  CB       -11.6250  -84.9820    6.5700 C.3    81  ILE81       0.0276
     91  CG1      -12.5090  -86.1910    6.2300 C.3    81  ILE81       0.0022
     92  CG2      -10.1970  -85.4490    6.8620 C.3    81  ILE81       0.0022
     93  CD1      -12.2650  -86.7830    4.8580 C.3    81  ILE81       0.0001
     94  N        -12.2080  -79.3080   -4.5090 N.3    97  PHE97      -0.1227
     95  CA       -13.1700  -80.1800   -3.8150 C.3    97  PHE97       0.1736
     96  C        -14.0990  -80.8830   -4.8090 C.2    97  PHE97       0.2595
     97  O        -14.3190  -82.0910   -4.7100 O.2    97  PHE97      -0.2718
     98  CB       -13.9900  -79.3810   -2.7820 C.3    97  PHE97       0.0547
     99  CG       -15.3050  -80.0180   -2.4140 C.ar   97  PHE97      -0.0202
    100  CD1      -15.3540  -81.0790   -1.5150 C.ar   97  PHE97      -0.0042
    101  CD2      -16.4980  -79.5570   -2.9690 C.ar   97  PHE97      -0.0042
    102  CE1      -16.5660  -81.6680   -1.1780 C.ar   97  PHE97      -0.0003
    103  CE2      -17.7110  -80.1430   -2.6360 C.ar   97  PHE97      -0.0003
    104  CZ       -17.7450  -81.2000   -1.7380 C.ar   97  PHE97      -0.0000
    105  N        -14.6410  -80.1140   -5.7520 N.am   98  ALA98      -0.1980
    106  CA       -15.5230  -80.6520   -6.7910 C.3    98  ALA98       0.1597
    107  C        -14.7870  -81.5910   -7.7490 C.2    98  ALA98       0.2287
    108  O        -15.2940  -82.6620   -8.0720 O.2    98  ALA98      -0.2864
    109  CB       -16.1800  -79.5200   -7.5670 C.3    98  ALA98       0.0319
    110  N        -11.4440  -83.0800   -7.5270 N.3   100  ASN100     -0.1225
    111  CA       -10.6810  -84.1860   -6.9280 C.3   100  ASN100      0.1785
    112  C        -11.3130  -84.7710   -5.6640 C.2   100  ASN100      0.2597
    113  O        -11.4300  -85.9900   -5.5320 O.2   100  ASN100     -0.2718
    114  CB        -9.2640  -83.7130   -6.5840 C.3   100  ASN100      0.1169
    115  CG        -8.5700  -83.0320   -7.7500 C.2   100  ASN100      0.2627
    116  OD1       -8.0430  -81.9270   -7.6100 O.2   100  ASN100     -0.2716
    117  ND2       -8.5690  -83.6840   -8.9070 N.am  100  ASN100     -0.0877
    118  N        -11.7010  -83.8880   -4.7450 N.am  101  ASN101     -0.1974
    119  CA       -12.1020  -84.2470   -3.3790 C.3   101  ASN101      0.1688
    120  C        -10.9920  -84.9610   -2.5960 C.2   101  ASN101      0.2292
    121  O        -11.0730  -86.1590   -2.3070 O.2   101  ASN101     -0.2864
    122  CB       -13.4140  -85.0490   -3.3430 C.3   101  ASN101      0.1181
    123  CG       -14.0250  -85.0970   -1.9500 C.2   101  ASN101      0.2629
    124  OD1      -14.7880  -84.2130   -1.5680 O.2   101  ASN101     -0.2716
    125  ND2      -13.6910  -86.1350   -1.1850 N.am  101  ASN101     -0.0877
    126  N         -9.0290  -84.5700    1.2160 N.3   103  PRO103     -0.2102
    127  CA        -9.5460  -84.1430    2.5260 C.3   103  PRO103      0.1504
    128  C         -9.7150  -82.6250    2.6490 C.2   103  PRO103      0.2576
    129  O         -8.7680  -81.8790    2.3940 O.2   103  PRO103     -0.2718
    130  CB        -8.4870  -84.6610    3.4980 C.3   103  PRO103      0.0282
    131  CG        -7.9840  -85.9000    2.8440 C.3   103  PRO103      0.0208
    132  CD        -8.0070  -85.6260    1.3640 C.3   103  PRO103      0.0893
    133  N        -10.9210  -82.1900    3.0160 N.am  104  SER104     -0.1953
    134  CA       -11.3060  -80.7770    2.9540 C.3   104  SER104      0.1924
    135  C        -12.2370  -80.3750    4.0990 C.2   104  SER104      0.2314
    136  O        -12.6550  -81.2130    4.9030 O.2   104  SER104     -0.2863
    137  CB       -11.9890  -80.4960    1.6080 C.3   104  SER104      0.2116
    138  OG       -13.2160  -81.1980    1.4930 O.3   104  SER104     -0.2180
    139  N        -15.2430  -79.3050    3.5080 N.3   106  PHE106     -0.1227
    140  CA       -16.5980  -79.5090    2.9850 C.3   106  PHE106      0.1736
    141  C        -17.1560  -80.8860    3.3370 C.2   106  PHE106      0.2595
    142  O        -16.4040  -81.8510    3.4770 O.2   106  PHE106     -0.2718
    143  CB       -16.6070  -79.3770    1.4590 C.3   106  PHE106      0.0547
    144  CG       -16.0670  -78.0710    0.9520 C.ar  106  PHE106     -0.0202
    145  CD1      -16.8730  -76.9380    0.9120 C.ar  106  PHE106     -0.0042
    146  CD2      -14.7520  -77.9740    0.4990 C.ar  106  PHE106     -0.0042
    147  CE1      -16.3780  -75.7320    0.4380 C.ar  106  PHE106     -0.0003
    148  CE2      -14.2520  -76.7710    0.0250 C.ar  106  PHE106     -0.0003
    149  CZ       -15.0660  -75.6490   -0.0050 C.ar  106  PHE106     -0.0000
    150  N        -18.4800  -80.9570    3.4710 N.am  107  VAL107     -0.1966
    151  CA       -19.2170  -82.2200    3.4970 C.3   107  VAL107      0.1727
    152  C        -20.0580  -82.2710    2.2220 C.2   107  VAL107      0.2617
    153  O        -20.8790  -81.3820    1.9820 O.2   107  VAL107     -0.2715
    154  CB       -20.1190  -82.3360    4.7450 C.3   107  VAL107      0.0290
    155  CG1      -21.0810  -83.5160    4.6240 C.3   107  VAL107      0.0023
    156  CG2      -19.2610  -82.4700    5.9950 C.3   107  VAL107      0.0023
    157  N        -19.8490  -83.3130    1.4190 N.am  108  SER108     -0.1936
    158  CA       -20.5320  -83.4630    0.1350 C.3   108  SER108      0.2055
    159  C        -21.9110  -84.1000    0.3070 C.2   108  SER108      0.2644
    160  O        -22.0720  -85.0430    1.0830 O.2   108  SER108     -0.2714
    161  CB       -19.6890  -84.3150   -0.8170 C.3   108  SER108      0.2130
    162  OG       -19.4280  -85.5930   -0.2650 O.3   108  SER108     -0.2179
    163  N        -22.8970  -83.5610   -0.4110 N.am  109  THR109     -0.1936
    164  CA       -24.2300  -84.1610   -0.5280 C.3   109  THR109      0.2028
    165  C        -24.6570  -84.1280   -1.9940 C.2   109  THR109      0.2642
    166  O        -23.9780  -83.5210   -2.8220 O.2   109  THR109     -0.2714
    167  CB       -25.2760  -83.4100    0.3230 C.3   109  THR109      0.1808
    168  OG1      -25.4280  -82.0710   -0.1610 O.3   109  THR109     -0.2208
    169  CG2      -24.8610  -83.3710    1.7880 C.3   109  THR109      0.0379
    170  N        -25.7750  -84.7830   -2.3040 N.am  110  THR110     -0.1950
    171  CA       -26.3360  -84.7910   -3.6610 C.3   110  THR110      0.1897
    172  C        -27.8470  -84.5420   -3.6250 C.2   110  THR110      0.2313
    173  O        -28.5360  -84.9950   -2.7080 O.2   110  THR110     -0.2863
    174  CB       -26.0110  -86.1060   -4.4160 C.3   110  THR110      0.1794
    175  OG1      -26.5280  -86.0400   -5.7520 O.3   110  THR110     -0.2208
    176  CG2      -26.5880  -87.3370   -3.7070 C.3   110  THR110      0.0378
    177  N        -27.6680  -89.5540   -7.2480 N.3   121  TRP121     -0.1241
    178  CA       -26.3590  -90.0400   -7.6810 C.3   121  TRP121      0.1605
    179  C        -25.8850  -91.1210   -6.7080 C.2   121  TRP121      0.2264
    180  O        -25.8950  -90.9100   -5.4930 O.2   121  TRP121     -0.2867
    181  CB       -25.3460  -88.8900   -7.7450 C.3   121  TRP121      0.0550
    182  CG       -23.9430  -89.3300   -8.0440 C.ar  121  TRP121      0.0003
    183  CD1      -23.3820  -89.5030   -9.2750 C.ar  121  TRP121      0.0946
    184  CD2      -22.9250  -89.6530   -7.0900 C.ar  121  TRP121      0.0152
    185  NE1      -22.0770  -89.9160   -9.1490 N.ar  121  TRP121     -0.2442
    186  CE2      -21.7710  -90.0180   -7.8180 C.ar  121  TRP121      0.0810
    187  CE3      -22.8790  -89.6740   -5.6880 C.ar  121  TRP121      0.0012
    188  CZ2      -20.5760  -90.3960   -7.1910 C.ar  121  TRP121      0.0191
    189  CZ3      -21.6910  -90.0510   -5.0630 C.ar  121  TRP121      0.0001
    190  CH2      -20.5560  -90.4070   -5.8170 C.ar  121  TRP121      0.0015
    191  N        -22.9500  -85.5950  -10.4060 N.3   157  GLN157     -0.1245
    192  CA       -22.9690  -85.7120   -8.9420 C.3   157  GLN157      0.1566
    193  C        -23.9960  -84.7960   -8.2590 C.2   157  GLN157      0.2260
    194  O        -24.4350  -85.0990   -7.1490 O.2   157  GLN157     -0.2867
    195  CB       -21.5700  -85.4660   -8.3590 C.3   157  GLN157      0.0367
    196  CG       -20.5410  -86.5100   -8.7810 C.3   157  GLN157      0.0905
    197  CD       -19.1560  -86.2740   -8.1980 C.2   157  GLN157      0.2608
    198  OE1      -18.9170  -85.2900   -7.4990 O.2   157  GLN157     -0.2717
    199  NE2      -18.2320  -87.1840   -8.4900 N.am  157  GLN157     -0.0878
    200  N        -23.8430  -81.7970   -6.8290 N.3   159  GLN159     -0.1245
    201  CA       -23.2950  -81.5310   -5.4930 C.3   159  GLN159      0.1566
    202  C        -23.8180  -80.2570   -4.8320 C.2   159  GLN159      0.2260
    203  O        -23.8890  -79.2040   -5.4640 O.2   159  GLN159     -0.2867
    204  CB       -21.7580  -81.4690   -5.5230 C.3   159  GLN159      0.0367
    205  CG       -21.0590  -82.8150   -5.3970 C.3   159  GLN159      0.0905
    206  CD       -19.5970  -82.6750   -5.0060 C.2   159  GLN159      0.2608
    207  OE1      -19.1070  -83.3860   -4.1280 O.2   159  GLN159     -0.2717
    208  NE2      -18.8960  -81.7470   -5.6500 N.am  159  GLN159     -0.0878
@<TRIPOS>BOND
     1   191   192    1
     2   183   185   ar
     3   183   182   ar
     4   185   186   ar
     5   192   195    1
     6   192   193    1
     7   117   115   am
     8   196   195    1
     9   196   197    1
    10   199   197   am
    11   193   194    2
    12   197   198    2
    13   108   107    2
    14   182   181    1
    15   182   184   ar
    16   186   188   ar
    17   186   184   ar
    18   115   116    2
    19   115   114    1
    20   107   106    1
    21   181   178    1
    22   178   177    1
    23   178   179    1
    24   109   106    1
    25   110   111    1
    26   188   190   ar
    27   184   187   ar
    28   111   114    1
    29   111   112    1
    30   200   201    1
    31   106   105    1
    32   179   180    2
    33   190   189   ar
    34   105    96   am
    35   175   174    1
    36   187   189   ar
    37   112   113    2
    38   112   118   am
    39   208   206   am
    40   204   201    1
    41   204   205    1
    42   201   202    1
    43   203   202    2
    44   205   206    1
    45   206   207    2
    46    96    97    2
    47    96    95    1
    48   118   119    1
    49    94    95    1
    50   174   176    1
    51   174   171    1
    52    95    98    1
    53   171   172    1
    54   171   170    1
    55   172   173    2
    56   119   122    1
    57   119   120    1
    58   122   123    1
    59    30    28   ar
    60    30    32   ar
    61   101   103   ar
    62   101    99   ar
    63    27    28   ar
    64    27    25   ar
    65   166   165    2
    66    98    99    1
    67   103   104   ar
    68   120   121    2
    69    28    26   ar
    70    99   100   ar
    71    32    31   ar
    72   170   165   am
    73    25    24   ar
    74   165   164    1
    75   123   124    2
    76   123   125   am
    77   104   102   ar
    78   100   102   ar
    79    26    24   ar
    80    26    29   ar
    81    31    29   ar
    82    24    23    1
    83   161   162    1
    84   161   158    1
    85     5     6    1
    86     5     7    1
    87     5     2    1
    88   164   163    1
    89   164   167    1
    90   163   159   am
    91     4     3    2
    92    23    20    1
    93   168   167    1
    94     1     2    1
    95   149   148   ar
    96   149   147   ar
    97   148   146   ar
    98   158   159    1
    99   158   157    1
   100    51    49    1
   101     2     3    1
   102   159   160    2
   103   167   169    1
   104   147   145   ar
   105     3     8   am
   106   146   144   ar
   107   145   144   ar
   108    19    20    1
   109    19    10   am
   110   144   143    1
   111    20    21    1
   112   126   132    1
   113   126   127    1
   114   132   131    1
   115   157   152   am
   116     8     9    1
   117   143   140    1
   118   138   137    1
   119    49    48    2
   120    49    50    1
   121     9    10    1
   122     9    12    1
   123   137   134    1
   124    10    11    2
   125    22    21    2
   126    48    47    1
   127   153   152    2
   128    21    33   am
   129   152   151    1
   130    17    16    1
   131   129   128    2
   132   127   128    1
   133   127   130    1
   134   128   133   am
   135    12    13    1
   136   131   130    1
   137    13    14    1
   138   134   133    1
   139   134   135    1
   140   140   141    1
   141   140   139    1
   142    33    34    1
   143   141   150   am
   144   141   142    2
   145    47    46    1
   146   150   151    1
   147   151   154    1
   148    16    18    1
   149    16    15    2
   150    46    45    1
   151    14    15    1
   152    34    35    1
   153    34    37    1
   154   135   136    2
   155   155   154    1
   156    35    36    2
   157    35    41   am
   158   154   156    1
   159    93    91    1
   160    41    42    1
   161    37    38    1
   162    45    42    1
   163    42    43    1
   164    38    40   ar
   165    38    39   ar
   166    91    90    1
   167    90    92    1
   168    90    87    1
   169    43    52   am
   170    43    44    2
   171    83    80    1
   172    83    84    1
   173    86    87    1
   174    86    81   am
   175    87    88    1
   176    52    53    1
   177    62    60    1
   178    80    81    1
   179    80    79    1
   180    88    89    2
   181    81    82    2
   182    84    85    1
   183    59    60    2
   184    59    58    1
   185    60    61    1
   186    79    85    1
   187    79    74   am
   188    55    54    2
   189    75    74    2
   190    53    56    1
   191    53    54    1
   192    57    56    1
   193    57    58    1
   194    74    73    1
   195    72    73    1
   196    73    76    1
   197    76    77    1
   198    76    78    1
   199    70    69   ar
   200    71    69   ar
   201    69    68    1
   202    67    68    1
   203    67    64    1
   204    65    66    2
   205    65    64    1
   206    64    63    1
