@<TRIPOS>MOLECULE
tmp/5h6oA00.pdb
 181 166 0 0 0
SMALL
GASTEIGER

@<TRIPOS>ATOM
      1  N         51.7730   22.5820   52.1910 N.3    12  LEU12      -0.1245
      2  CA        50.9010   22.5640   53.3610 C.3    12  LEU12       0.1561
      3  C         50.3790   23.9580   53.6900 C.2    12  LEU12       0.2260
      4  O         49.1950   24.1320   53.9860 O.2    12  LEU12      -0.2867
      5  CB        51.6330   21.9810   54.5710 C.3    12  LEU12       0.0270
      6  CG        51.7140   20.4550   54.6320 C.3    12  LEU12       0.0019
      7  CD1       52.4770   20.0050   55.8700 C.3    12  LEU12       0.0001
      8  CD2       50.3190   19.8500   54.6070 C.3    12  LEU12       0.0001
      9  N         46.3860   25.1970   53.4830 N.3    16  GLN16      -0.1245
     10  CA        45.6940   25.7930   54.6200 C.3    16  GLN16       0.1566
     11  C         45.2070   27.2020   54.2990 C.2    16  GLN16       0.2260
     12  O         44.1290   27.6100   54.7350 O.2    16  GLN16      -0.2867
     13  CB        46.6050   25.8180   55.8490 C.3    16  GLN16       0.0367
     14  CG        46.9600   24.4420   56.3810 C.3    16  GLN16       0.0905
     15  CD        47.9190   24.5000   57.5550 C.2    16  GLN16       0.2608
     16  OE1       48.5000   25.5480   57.8460 O.2    16  GLN16      -0.2717
     17  NE2       48.0890   23.3730   58.2380 N.am   16  GLN16      -0.0878
     18  N         49.1650   26.4070   61.5530 N.3    59  SER59      -0.1217
     19  CA        48.8970   25.1620   62.2510 C.3    59  SER59       0.1889
     20  C         49.1390   25.4230   63.7320 C.2    59  SER59       0.2288
     21  O         50.1500   26.0230   64.0960 O.2    59  SER59      -0.2866
     22  CB        49.7850   24.0320   61.7310 C.3    59  SER59       0.2089
     23  OG        49.5770   22.8450   62.4740 O.3    59  SER59      -0.2183
     24  N         50.2190   23.9210   66.1270 N.3    61  LYS61      -0.1231
     25  CA        51.5120   23.4900   66.6430 C.3    61  LYS61       0.1693
     26  C         52.5560   24.5840   66.4570 C.2    61  LYS61       0.2592
     27  O         53.4480   24.7570   67.2860 O.2    61  LYS61      -0.2718
     28  CB        51.9760   22.2130   65.9420 C.3    61  LYS61       0.0285
     29  CG        50.9850   21.0710   65.9950 C.3    61  LYS61       0.0035
     30  CD        51.3810   19.9680   65.0280 C.3    61  LYS61       0.0206
     31  CE        52.8010   19.4990   65.2750 C.3    61  LYS61       0.1093
     32  NZ        53.1930   18.3990   64.3510 N.3    61  LYS61      -0.1314
     33  N         52.4300   25.3210   65.3590 N.am   62  ASP62      -0.1974
     34  CA        53.4390   26.2970   64.9670 C.3    62  ASP62       0.1709
     35  C         53.1280   27.7050   65.4700 C.2    62  ASP62       0.2293
     36  O         53.9070   28.6320   65.2530 O.2    62  ASP62      -0.2864
     37  CB        53.5870   26.3120   63.4450 C.3    62  ASP62       0.1436
     38  CG        53.8880   24.9390   62.8780 C.2    62  ASP62       0.3671
     39  OD1       55.0650   24.5270   62.9130 O.co2  62  ASP62      -0.2456
     40  OD2       52.9500   24.2690   62.4000 O.co2  62  ASP62      -0.2456
     41  N         62.7430   10.5600   62.4500 N.3   105  THR105     -0.1203
     42  CA        61.8910   11.6380   62.9460 C.3   105  THR105      0.1994
     43  C         62.7590   12.7380   63.5600 C.2   105  THR105      0.2618
     44  O         63.7550   12.4460   64.2210 O.2   105  THR105     -0.2717
     45  CB        60.8690   11.1230   63.9840 C.3   105  THR105      0.1784
     46  OG1       60.1000   10.0590   63.4110 O.3   105  THR105     -0.2211
     47  CG2       59.9280   12.2330   64.4100 C.3   105  THR105      0.0376
     48  N         62.3910   13.9970   63.3390 N.am  106  CYS106     -0.1955
     49  CA        63.1040   15.1150   63.9530 C.3   106  CYS106      0.1843
     50  C         62.3910   15.6300   65.2010 C.2   106  CYS106      0.2626
     51  O         62.8670   16.5520   65.8640 O.2   106  CYS106     -0.2714
     52  CB        63.2840   16.2540   62.9480 C.3   106  CYS106      0.0997
     53  SG        65.0100   16.6030   62.5320 S.3   106  CYS106     -0.0797
     54  N         61.2430   15.0350   65.5090 N.am  107  SER107     -0.1950
     55  CA        60.4270   15.4780   66.6340 C.3   107  SER107      0.1924
     56  C         60.8740   14.8500   67.9480 C.2   107  SER107      0.2314
     57  O         60.8920   13.6280   68.0860 O.2   107  SER107     -0.2863
     58  CB        58.9530   15.1540   66.3810 C.3   107  SER107      0.2116
     59  OG        58.1750   15.3750   67.5440 O.3   107  SER107     -0.2180
     60  N         59.2130   14.9800   70.5920 N.3   109  ARG109     -0.1231
     61  CA        57.9960   14.4090   71.1580 C.3   109  ARG109      0.1694
     62  C         57.7720   12.9770   70.6850 C.2   109  ARG109      0.2591
     63  O         57.4850   12.0850   71.4830 O.2   109  ARG109     -0.2718
     64  CB        56.7880   15.2700   70.7900 C.3   109  ARG109      0.0321
     65  CG        55.4980   14.8460   71.4620 C.3   109  ARG109      0.0489
     66  CD        54.3060   15.5710   70.8630 C.3   109  ARG109      0.2205
     67  NE        53.5990   14.7530   69.8830 N.pl3 109  ARG109     -0.0865
     68  CZ        53.8550   14.7550   68.5790 C.cat 109  ARG109      0.5346
     69  NH1       54.8090   15.5350   68.0900 N.pl3 109  ARG109      0.1354
     70  NH2       53.1590   13.9750   67.7640 N.pl3 109  ARG109      0.1354
     71  N         57.9000   12.7680   69.3790 N.am  110  ARG110     -0.1980
     72  CA        57.7100   11.4480   68.7900 C.3   110  ARG110      0.1597
     73  C         58.8570   10.5140   69.1660 C.2   110  ARG110      0.2287
     74  O         58.6460    9.3330   69.4350 O.2   110  ARG110     -0.2864
     75  CB        57.5850   11.5560   67.2670 C.3   110  ARG110      0.0334
     76  CG        56.3530   12.3200   66.7990 C.3   110  ARG110      0.0492
     77  CD        56.4340   12.6610   65.3170 C.3   110  ARG110      0.2205
     78  NE        55.2270   13.3340   64.8410 N.pl3 110  ARG110     -0.0865
     79  CZ        55.1440   13.9990   63.6920 C.cat 110  ARG110      0.5346
     80  NH1       56.2030   14.0920   62.8990 N.pl3 110  ARG110      0.1354
     81  NH2       54.0040   14.5790   63.3400 N.pl3 110  ARG110      0.1354
     82  N         65.2550   13.6000   60.4930 N.3   126  LEU126     -0.1245
     83  CA        64.4920   13.7260   59.2580 C.3   126  LEU126      0.1561
     84  C         64.1850   15.1940   58.9750 C.2   126  LEU126      0.2260
     85  O         63.5050   15.8550   59.7590 O.2   126  LEU126     -0.2867
     86  CB        63.1990   12.9110   59.3440 C.3   126  LEU126      0.0270
     87  CG        62.3220   12.8480   58.0930 C.3   126  LEU126      0.0019
     88  CD1       63.0930   12.2650   56.9200 C.3   126  LEU126      0.0001
     89  CD2       61.0610   12.0430   58.3640 C.3   126  LEU126      0.0001
     90  N         60.7420   14.3480   52.5370 N.3   133  ARG133     -0.1245
     91  CA        60.7620   13.2870   53.5380 C.3   133  ARG133      0.1563
     92  C         60.4130   11.9320   52.9270 C.2   133  ARG133      0.2260
     93  O         61.0600   10.9260   53.2160 O.2   133  ARG133     -0.2867
     94  CB        59.7940   13.6130   54.6790 C.3   133  ARG133      0.0307
     95  CG        60.3140   14.6510   55.6640 C.3   133  ARG133      0.0489
     96  CD        59.2930   14.9370   56.7550 C.3   133  ARG133      0.2205
     97  NE        59.9230   15.1940   58.0470 N.pl3 133  ARG133     -0.0865
     98  CZ        60.2570   16.3990   58.4950 C.cat 133  ARG133      0.5346
     99  NH1       60.8260   16.5310   59.6860 N.pl3 133  ARG133      0.1354
    100  NH2       60.0230   17.4740   57.7550 N.pl3 133  ARG133      0.1354
    101  N         57.8060    8.8440   60.6400 N.3   146  ILE146     -0.1231
    102  CA        56.5600    9.1930   61.3140 C.3   146  ILE146      0.1692
    103  C         56.1530   10.6350   61.0260 C.2   146  ILE146      0.2592
    104  O         56.8460   11.5770   61.4070 O.2   146  ILE146     -0.2718
    105  CB        56.6630    8.9850   62.8370 C.3   146  ILE146      0.0266
    106  CG1       56.9310    7.5120   63.1490 C.3   146  ILE146      0.0019
    107  CG2       55.3890    9.4480   63.5270 C.3   146  ILE146      0.0020
    108  CD1       56.8870    7.1820   64.6220 C.3   146  ILE146      0.0001
    109  N         55.0230   10.7910   60.3450 N.am  147  LEU147     -0.1966
    110  CA        54.5060   12.1030   59.9780 C.3   147  LEU147      0.1728
    111  C         53.1120   12.3120   60.5570 C.2   147  LEU147      0.2616
    112  O         52.4400   11.3520   60.9320 O.2   147  LEU147     -0.2715
    113  CB        54.4690   12.2650   58.4540 C.3   147  LEU147      0.0311
    114  CG        55.7130   12.7920   57.7280 C.3   147  LEU147      0.0022
    115  CD1       56.9180   11.8930   57.9430 C.3   147  LEU147      0.0001
    116  CD2       55.4260   12.9530   56.2400 C.3   147  LEU147      0.0001
    117  N         52.6840   13.5680   60.6370 N.am  148  ALA148     -0.1977
    118  CA        51.3400   13.8820   61.1060 C.3   148  ALA148      0.1597
    119  C         50.3010   13.3920   60.1050 C.2   148  ALA148      0.2287
    120  O         50.4580   13.5760   58.8980 O.2   148  ALA148     -0.2864
    121  CB        51.1910   15.3740   61.3410 C.3   148  ALA148      0.0319
    122  N         47.3300   14.4990   59.6470 N.3   150  ALA150     -0.1231
    123  CA        46.6270   15.6360   59.0610 C.3   150  ALA150      0.1694
    124  C         47.2860   16.1090   57.7680 C.2   150  ALA150      0.2592
    125  O         46.6140   16.2930   56.7540 O.2   150  ALA150     -0.2718
    126  CB        46.5550   16.7800   60.0620 C.3   150  ALA150      0.0304
    127  N         48.6020   16.2980   57.8130 N.am  151  GLY151     -0.1957
    128  CA        49.3560   16.7800   56.6690 C.3   151  GLY151      0.1869
    129  C         49.2180   15.9190   55.4280 C.2   151  GLY151      0.2309
    130  O         49.0960   16.4330   54.3170 O.2   151  GLY151     -0.2863
    131  N         45.5790   16.1380   53.9170 N.3   154  ARG154     -0.1245
    132  CA        45.3180   17.4110   53.2550 C.3   154  ARG154      0.1563
    133  C         46.0110   17.4840   51.8980 C.2   154  ARG154      0.2260
    134  O         45.6030   18.2450   51.0210 O.2   154  ARG154     -0.2867
    135  CB        45.7660   18.5730   54.1440 C.3   154  ARG154      0.0307
    136  CG        44.8960   18.7630   55.3750 C.3   154  ARG154      0.0489
    137  CD        45.5930   19.5900   56.4430 C.3   154  ARG154      0.2205
    138  NE        44.7180   19.8320   57.5880 N.pl3 154  ARG154     -0.0865
    139  CZ        45.1360   20.2720   58.7700 C.cat 154  ARG154      0.5346
    140  NH1       46.4240   20.5140   58.9730 N.pl3 154  ARG154      0.1354
    141  NH2       44.2640   20.4640   59.7520 N.pl3 154  ARG154      0.1354
    142  N         51.1240   16.4050   69.3810 N.3   173  ALA173     -0.1245
    143  CA        51.6190   17.7160   69.7740 C.3   173  ALA173      0.1562
    144  C         50.4420   18.6620   69.9740 C.2   173  ALA173      0.2260
    145  O         49.3470   18.4100   69.4690 O.2   173  ALA173     -0.2867
    146  CB        52.5800   18.2610   68.7320 C.3   173  ALA173      0.0290
    147  N         47.6370   21.0990   69.6600 N.3   175  GLY175     -0.1210
    148  CA        46.8740   21.6020   68.5330 C.3   175  GLY175      0.1956
    149  C         47.1680   20.9340   67.2010 C.2   175  GLY175      0.2612
    150  O         46.9310   21.5250   66.1480 O.2   175  GLY175     -0.2717
    151  N         47.6800   19.7070   67.2350 N.am  176  GLN176     -0.1965
    152  CA        47.9740   18.9820   66.0000 C.3   176  GLN176      0.1733
    153  C         46.6850   18.6230   65.2680 C.2   176  GLN176      0.2617
    154  O         45.7310   18.1320   65.8730 O.2   176  GLN176     -0.2715
    155  CB        48.7910   17.7200   66.2830 C.3   176  GLN176      0.0408
    156  CG        49.2040   16.9710   65.0220 C.3   176  GLN176      0.0908
    157  CD        50.1560   15.8230   65.2980 C.2   176  GLN176      0.2608
    158  OE1       51.3640   16.0220   65.4260 O.2   176  GLN176     -0.2717
    159  NE2       49.6160   14.6140   65.3860 N.am  176  GLN176     -0.0878
    160  N         46.6580   18.8820   63.9650 N.am  177  GLY177     -0.1940
    161  CA        45.4730   18.6400   63.1640 C.3   177  GLY177      0.2014
    162  C         44.5210   19.8210   63.1960 C.2   177  GLY177      0.2638
    163  O         43.5330   19.8560   62.4640 O.2   177  GLY177     -0.2714
    164  N         44.8240   20.7930   64.0510 N.am  178  ALA178     -0.1977
    165  CA        43.9870   21.9790   64.1960 C.3   178  ALA178      0.1597
    166  C         44.6050   23.1870   63.5000 C.2   178  ALA178      0.2287
    167  O         45.7920   23.4690   63.6580 O.2   178  ALA178     -0.2864
    168  CB        43.7490   22.2810   65.6700 C.3   178  ALA178      0.0319
    169  N         58.1560   23.8560   69.3680 N.3   220  CYS220     -0.1235
    170  CA        58.1160   22.4230   69.1080 C.3   220  CYS220      0.1677
    171  C         59.4300   21.7420   69.4830 C.2   220  CYS220      0.2270
    172  O         59.5640   20.5260   69.3560 O.2   220  CYS220     -0.2867
    173  CB        57.7940   22.1600   67.6350 C.3   220  CYS220      0.0956
    174  SG        56.3080   22.9920   67.0270 S.3   220  CYS220     -0.0801
    175  N         60.6420   21.2250   72.2900 N.3   222  VAL222     -0.1245
    176  CA        60.5480   20.5020   73.5530 C.3   222  VAL222      0.1561
    177  C         59.6820   19.2450   73.4100 C.2   222  VAL222      0.2260
    178  O         58.5890   19.2940   72.8420 O.2   222  VAL222     -0.2867
    179  CB        59.9960   21.4200   74.6750 C.3   222  VAL222      0.0252
    180  CG1       58.6140   21.9570   74.3160 C.3   222  VAL222      0.0019
    181  CG2       59.9800   20.6990   76.0130 C.3   222  VAL222      0.0019
@<TRIPOS>BOND
     1   134   133    2
     2   133   132    1
     3     1     2    1
     4    90    91    1
     5    92    93    2
     6    92    91    1
     7   132   131    1
     8   132   135    1
     9     2     3    1
    10     2     5    1
    11     9    10    1
    12    91    94    1
    13     3     4    2
    14   135   136    1
    15    11    10    1
    16    11    12    2
    17   130   129    2
    18     5     6    1
    19     8     6    1
    20    10    13    1
    21     6     7    1
    22    94    95    1
    23   136   137    1
    24   129   128    1
    25    95    96    1
    26    13    14    1
    27   116   114    1
    28    14    15    1
    29   137   138    1
    30   128   127    1
    31   125   124    2
    32    96    97    1
    33    88    87    1
    34    15    16    2
    35    15    17   am
    36   138   139    2
    37   114   115    1
    38   114   113    1
    39   100    98    1
    40   124   127   am
    41   124   123    1
    42    97    98    2
    43    87    89    1
    44    87    86    1
    45   113   110    1
    46    98    99    1
    47   139   140    1
    48   139   141    1
    49   120   119    2
    50    84    83    1
    51    84    85    2
    52   123   122    1
    53   123   126    1
    54    83    86    1
    55    83    82    1
    56   110   109    1
    57   110   111    1
    58   119   118    1
    59   109   103   am
    60   111   117   am
    61   111   112    2
    62   117   118    1
    63   101   102    1
    64   103   102    1
    65   103   104    2
    66   118   121    1
    67   102   105    1
    68    18    19    1
    69    22    19    1
    70    22    23    1
    71    19    20    1
    72    40    38   ar
    73    41    42    1
    74   163   162    2
    75    53    52    1
    76   105   106    1
    77   105   107    1
    78    38    39   ar
    79    38    37    1
    80    80    79    1
    81    42    43    1
    82    42    45    1
    83    52    49    1
    84   106   108    1
    85   161   162    1
    86   161   160    1
    87   162   164   am
    88    48    43   am
    89    48    49    1
    90    81    79    1
    91    46    45    1
    92    37    34    1
    93   166   167    2
    94   166   165    1
    95    43    44    2
    96    79    78    2
    97    20    21    2
    98    49    50    1
    99   160   153   am
   100    45    47    1
   101   164   165    1
   102   165   168    1
   103    32    31    1
   104    78    77    1
   105    34    33    1
   106    34    35    1
   107   156   157    1
   108   156   155    1
   109    30    31    1
   110    30    29    1
   111    50    54   am
   112    50    51    2
   113    36    35    2
   114   153   154    2
   115   153   152    1
   116   157   159   am
   117   157   158    2
   118    77    76    1
   119    33    26   am
   120    54    55    1
   121    28    29    1
   122    28    25    1
   123   152   155    1
   124   152   151    1
   125    24    25    1
   126   150   149    2
   127    58    55    1
   128    58    59    1
   129    26    25    1
   130    26    27    2
   131    55    56    1
   132    76    75    1
   133   174   173    1
   134   149   151   am
   135   149   148    1
   136    75    72    1
   137   173   170    1
   138    70    68    1
   139    56    57    2
   140    69    68    1
   141   148   147    1
   142    68    67    2
   143   146   143    1
   144    72    73    1
   145    72    71    1
   146   170   169    1
   147   170   171    1
   148    73    74    2
   149   172   171    2
   150    71    62   am
   151   142   143    1
   152   145   144    2
   153   143   144    1
   154    67    66    1
   155    60    61    1
   156    62    61    1
   157    62    63    2
   158    64    61    1
   159    64    65    1
   160    66    65    1
   161   175   176    1
   162   178   177    2
   163   177   176    1
   164   176   179    1
   165   180   179    1
   166   179   181    1
