@<TRIPOS>MOLECULE
tmp/5h6sC00.pdb
 126 122 0 0 0
SMALL
GASTEIGER

@<TRIPOS>ATOM
      1  N         19.2750   26.7580   -8.2520 N.3    77  LYS77      -0.1245
      2  CA        18.6240   26.1710   -9.4260 C.3    77  LYS77       0.1561
      3  C         17.3360   26.9280   -9.7390 C.2    77  LYS77       0.2260
      4  O         16.6230   27.3500   -8.8150 O.2    77  LYS77      -0.2867
      5  CB        18.3180   24.7080   -9.1630 C.3    77  LYS77       0.0271
      6  CG        17.7650   23.9080  -10.3350 C.3    77  LYS77       0.0035
      7  CD        17.6990   22.4530   -9.9360 C.3    77  LYS77       0.0206
      8  CE        17.4280   21.5250  -11.0970 C.3    77  LYS77       0.1093
      9  NZ        15.9820   21.4970  -11.3190 N.3    77  LYS77      -0.1314
     10  N         13.1310   19.9200  -15.9500 N.3   126  CYS126     -0.1221
     11  CA        14.1220   19.2740  -15.0800 C.3   126  CYS126      0.1808
     12  C         14.1360   17.7590  -15.1580 C.2   126  CYS126      0.2601
     13  O         14.3870   17.0940  -14.1530 O.2   126  CYS126     -0.2717
     14  CB        13.9630   19.7660  -13.6360 C.3   126  CYS126      0.0970
     15  SG        14.6240   21.4170  -13.4370 S.3   126  CYS126     -0.0800
     16  N         13.9170   17.2100  -16.3520 N.am  127  ILE127     -0.1965
     17  CA        13.9330   15.7490  -16.5780 C.3   127  ILE127      0.1727
     18  C         14.9680   15.4060  -17.6540 C.2   127  ILE127      0.2616
     19  O         14.6270   15.1200  -18.8020 O.2   127  ILE127     -0.2715
     20  CB        12.5290   15.2130  -16.9850 C.3   127  ILE127      0.0290
     21  CG1       11.4800   15.5340  -15.9070 C.3   127  ILE127      0.0022
     22  CG2       12.5550   13.7080  -17.2600 C.3   127  ILE127      0.0023
     23  CD1       11.6660   14.8210  -14.5780 C.3   127  ILE127      0.0001
     24  N         16.2400   15.4490  -17.2760 N.am  128  ARG128     -0.1963
     25  CA        17.3260   15.1110  -18.1990 C.3   128  ARG128      0.1729
     26  C         18.6460   15.1310  -17.4550 C.2   128  ARG128      0.2616
     27  O         18.8220   15.9190  -16.5070 O.2   128  ARG128     -0.2715
     28  CB        17.4070   16.1700  -19.3200 C.3   128  ARG128      0.0348
     29  CG        18.0490   15.6910  -20.5970 C.3   128  ARG128      0.0492
     30  CD        17.8110   16.7090  -21.7080 C.3   128  ARG128      0.2205
     31  NE        18.6050   16.4310  -22.8900 N.pl3 128  ARG128     -0.0865
     32  CZ        18.5520   17.1240  -24.0310 C.cat 128  ARG128      0.5346
     33  NH1       17.7510   18.1850  -24.1540 N.pl3 128  ARG128      0.1354
     34  NH2       19.3170   16.7480  -25.0550 N.pl3 128  ARG128      0.1354
     35  N         19.5940   14.3270  -17.9260 N.am  129  TRP129     -0.1974
     36  CA        20.9660   14.3920  -17.4480 C.3   129  TRP129      0.1640
     37  C         21.8420   15.3680  -18.2580 C.2   129  TRP129      0.2290
     38  O         23.0410   15.1730  -18.3700 O.2   129  TRP129     -0.2864
     39  CB        21.5920   12.9920  -17.4200 C.3   129  TRP129      0.0576
     40  CG        20.9360   12.0460  -16.4390 C.ar  129  TRP129      0.0006
     41  CD1       20.7160   12.2590  -15.1100 C.ar  129  TRP129      0.0946
     42  CD2       20.4480   10.7360  -16.7250 C.ar  129  TRP129      0.0152
     43  NE1       20.1130   11.1540  -14.5470 N.ar  129  TRP129     -0.2442
     44  CE2       19.9320   10.2050  -15.5210 C.ar  129  TRP129      0.0810
     45  CE3       20.4110    9.9440  -17.8850 C.ar  129  TRP129      0.0012
     46  CZ2       19.3800    8.9240  -15.4450 C.ar  129  TRP129      0.0191
     47  CZ3       19.8510    8.6730  -17.8050 C.ar  129  TRP129      0.0001
     48  CH2       19.3380    8.1810  -16.5990 C.ar  129  TRP129      0.0015
     49  N         19.6980   17.1880  -13.7350 N.3   152  SER152     -0.1217
     50  CA        19.1080   18.4900  -14.0470 C.3   152  SER152      0.1889
     51  C         19.7180   19.7360  -13.3650 C.2   152  SER152      0.2288
     52  O         19.4500   20.8500  -13.8080 O.2   152  SER152     -0.2866
     53  CB        17.5920   18.4180  -13.8060 C.3   152  SER152      0.2089
     54  OG        17.2680   18.4490  -12.4410 O.3   152  SER152     -0.2183
     55  N         18.1980   19.7910   -6.8030 N.3   171  GLY171     -0.1225
     56  CA        17.2090   18.7890   -6.4080 C.3   171  GLY171      0.1811
     57  C         17.6090   17.5070   -7.0880 C.2   171  GLY171      0.2280
     58  O         18.3350   17.5520   -8.0940 O.2   171  GLY171     -0.2866
     59  N         15.7880   13.8560   -8.1260 N.3   173  LEU173     -0.1231
     60  CA        14.7310   12.8440   -8.3580 C.3   173  LEU173      0.1693
     61  C         15.2190   11.6250   -9.1750 C.2   173  LEU173      0.2592
     62  O         14.6470   10.5370   -9.0590 O.2   173  LEU173     -0.2718
     63  CB        13.5740   13.5240   -9.1180 C.3   173  LEU173      0.0284
     64  CG        12.4730   12.6780   -9.7610 C.3   173  LEU173      0.0019
     65  CD1       11.6590   11.9780   -8.6780 C.3   173  LEU173      0.0001
     66  CD2       11.5920   13.5790  -10.6150 C.3   173  LEU173      0.0001
     67  N         16.2270   11.8290  -10.0210 N.am  174  GLY174     -0.1957
     68  CA        16.8610   10.7850  -10.8270 C.3   174  GLY174      0.1869
     69  C         18.3420   11.0710  -11.0610 C.2   174  GLY174      0.2309
     70  O         18.8930   10.7180  -12.1150 O.2   174  GLY174     -0.2863
     71  N         19.6820   14.3790  -10.2620 N.3   176  SER176     -0.1217
     72  CA        19.8750   15.7820  -10.6010 C.3   176  SER176      0.1889
     73  C         20.9240   16.5540   -9.7950 C.2   176  SER176      0.2288
     74  O         21.3950   17.5830  -10.2620 O.2   176  SER176     -0.2866
     75  CB        18.5590   16.5180  -10.5950 C.3   176  SER176      0.2089
     76  OG        17.5640   15.7440  -11.2480 O.3   176  SER176     -0.2183
     77  N         12.3560    2.0970  -11.1100 N.3   306  TRP306     -0.1241
     78  CA        12.3410    3.5600  -11.1350 C.3   306  TRP306      0.1605
     79  C         11.8870    4.0760  -12.5050 C.2   306  TRP306      0.2264
     80  O         10.9680    4.9000  -12.5960 O.2   306  TRP306     -0.2867
     81  CB        13.7020    4.1390  -10.7400 C.3   306  TRP306      0.0550
     82  CG        13.7810    5.6160  -10.8250 C.ar  306  TRP306      0.0003
     83  CD1       13.4520    6.5170   -9.8570 C.ar  306  TRP306      0.0946
     84  CD2       14.2350    6.3720  -11.9410 C.ar  306  TRP306      0.0152
     85  NE1       13.6750    7.7830  -10.3040 N.ar  306  TRP306     -0.2442
     86  CE2       14.1430    7.7290  -11.5900 C.ar  306  TRP306      0.0810
     87  CE3       14.7180    6.0300  -13.2100 C.ar  306  TRP306      0.0012
     88  CZ2       14.5270    8.7620  -12.4670 C.ar  306  TRP306      0.0191
     89  CZ3       15.0800    7.0520  -14.0770 C.ar  306  TRP306      0.0001
     90  CH2       14.9830    8.3980  -13.6960 C.ar  306  TRP306      0.0015
     91  N          8.4840    6.2890  -13.0970 N.3   310  VAL310     -0.1245
     92  CA         8.6590    7.6490  -13.6000 C.3   310  VAL310      0.1561
     93  C          8.2010    7.7650  -15.0660 C.2   310  VAL310      0.2260
     94  O          7.4500    8.6890  -15.4140 O.2   310  VAL310     -0.2867
     95  CB        10.1180    8.1280  -13.4170 C.3   310  VAL310      0.0252
     96  CG1       10.3310    9.4960  -14.0320 C.3   310  VAL310      0.0019
     97  CG2       10.4890    8.1940  -11.9400 C.3   310  VAL310      0.0019
     98  N         14.0560   12.7530  -25.7050 N.3   333  HIS333     -0.1241
     99  CA        14.7320   12.0330  -24.6330 C.3   333  HIS333      0.1621
    100  C         13.7310   11.2060  -23.8160 C.2   333  HIS333      0.2264
    101  O         14.0030   10.0670  -23.4910 O.2   333  HIS333     -0.2867
    102  CB        15.4960   12.9670  -23.7110 C.3   333  HIS333      0.0745
    103  CG        16.1340   12.2520  -22.5590 C.ar  333  HIS333      0.0817
    104  ND1       16.9790   11.1770  -22.7280 N.ar  333  HIS333     -0.2268
    105  CD2       16.0190   12.4370  -21.2220 C.ar  333  HIS333      0.1154
    106  CE1       17.3830   10.7490  -21.5430 C.ar  333  HIS333      0.1986
    107  NE2       16.8150   11.5010  -20.6150 N.ar  333  HIS333     -0.2212
    108  N         14.0450    7.2230  -24.2040 N.3   337  MET337     -0.1230
    109  CA        14.5580    6.4930  -23.0310 C.3   337  MET337      0.1702
    110  C         13.4300    5.9570  -22.1630 C.2   337  MET337      0.2592
    111  O         13.3230    4.7500  -21.9780 O.2   337  MET337     -0.2718
    112  CB        15.5150    7.3300  -22.1800 C.3   337  MET337      0.0401
    113  CG        16.2800    6.4370  -21.1880 C.3   337  MET337      0.0596
    114  SD        17.4520    7.2760  -20.1330 S.3   337  MET337     -0.1393
    115  CE        16.3090    8.1330  -19.0350 C.3   337  MET337      0.0692
    116  N         12.6030    6.8430  -21.6090 N.am  338  PHE338     -0.1976
    117  CA        11.5310    6.3580  -20.7230 C.3   338  PHE338      0.1639
    118  C         10.4950    5.5230  -21.4830 C.2   338  PHE338      0.2290
    119  O          9.8830    4.6210  -20.9030 O.2   338  PHE338     -0.2864
    120  CB        10.8760    7.4810  -19.9550 C.3   338  PHE338      0.0560
    121  CG        11.7320    8.0400  -18.8590 C.ar  338  PHE338     -0.0200
    122  CD1       11.8530    7.3790  -17.6330 C.ar  338  PHE338     -0.0042
    123  CD2       12.4220    9.2330  -19.0380 C.ar  338  PHE338     -0.0042
    124  CE1       12.6510    7.9100  -16.6250 C.ar  338  PHE338     -0.0003
    125  CE2       13.2110    9.7680  -18.0280 C.ar  338  PHE338     -0.0003
    126  CZ        13.3250    9.0990  -16.8190 C.ar  338  PHE338     -0.0000
@<TRIPOS>BOND
     1    98    99    1
     2    34    32    1
     3    99   100    1
     4    99   102    1
     5   108   109    1
     6    33    32    1
     7    32    31    2
     8   100   101    2
     9   102   103    1
    10   109   112    1
    11   109   110    1
    12    31    30    1
    13   104   103   ar
    14   104   106   ar
    15   103   105   ar
    16   112   113    1
    17   110   111    2
    18   110   116   am
    19    30    29    1
    20   116   117    1
    21   106   107   ar
    22   118   119    2
    23   118   117    1
    24   105   107   ar
    25   113   114    1
    26   117   120    1
    27    29    28    1
    28   114   115    1
    29   120   121    1
    30    28    25    1
    31   123   121   ar
    32   123   125   ar
    33   121   122   ar
    34    19    18    2
    35    38    37    2
    36    37    36    1
    37    25    26    1
    38    25    24    1
    39   125   126   ar
    40    35    26   am
    41    35    36    1
    42    45    47   ar
    43    45    42   ar
    44    47    48   ar
    45    18    24   am
    46    18    17    1
    47   122   124   ar
    48    26    27    2
    49    36    39    1
    50    39    40    1
    51    22    20    1
    52    20    17    1
    53    20    21    1
    54   126   124   ar
    55    42    40   ar
    56    42    44   ar
    57    48    46   ar
    58    17    16    1
    59    40    41   ar
    60    16    12   am
    61    10    11    1
    62    21    23    1
    63    44    46   ar
    64    44    43   ar
    65    94    93    2
    66    12    11    1
    67    12    13    2
    68    41    43   ar
    69    11    14    1
    70    93    92    1
    71    89    90   ar
    72    89    87   ar
    73    50    53    1
    74    50    49    1
    75    50    51    1
    76    96    95    1
    77    52    51    2
    78    53    54    1
    79    90    88   ar
    80    14    15    1
    81    92    95    1
    82    92    91    1
    83    95    97    1
    84    87    84   ar
    85    80    79    2
    86    79    78    1
    87    88    86   ar
    88    70    69    2
    89    84    86   ar
    90    84    82   ar
    91    86    85   ar
    92     9     8    1
    93    76    75    1
    94    78    77    1
    95    78    81    1
    96     8     7    1
    97    69    68    1
    98    68    67    1
    99    82    81    1
   100    82    83   ar
   101    66    64    1
   102    72    75    1
   103    72    71    1
   104    72    73    1
   105     6     7    1
   106     6     5    1
   107    85    83   ar
   108    74    73    2
   109    67    61   am
   110    64    63    1
   111    64    65    1
   112     3     2    1
   113     3     4    2
   114     2     5    1
   115     2     1    1
   116    61    62    2
   117    61    60    1
   118    63    60    1
   119    60    59    1
   120    58    57    2
   121    57    56    1
   122    55    56    1
