@<TRIPOS>MOLECULE
tmp/5h70B01.pdb
 97 92 0 0 0
SMALL
GASTEIGER

@<TRIPOS>ATOM
      1  N         24.7240   -1.2260  -27.1610 N.3    38  SER38      -0.1217
      2  CA        24.2140   -2.4120  -26.4830 C.3    38  SER38       0.1889
      3  C         22.7510   -2.6240  -26.8360 C.2    38  SER38       0.2288
      4  O         22.2650   -2.0920  -27.8310 O.2    38  SER38      -0.2866
      5  CB        24.3960   -2.2910  -24.9680 C.3    38  SER38       0.2089
      6  OG        25.7880   -2.1700  -24.6430 O.3    38  SER38      -0.2183
      7  N         20.3760   -0.1230  -22.2730 N.3    42  HIS42      -0.1241
      8  CA        21.4780    0.8260  -22.3670 C.3    42  HIS42       0.1621
      9  C         21.0880    2.0390  -23.2090 C.2    42  HIS42       0.2264
     10  O         21.4910    3.1660  -22.8970 O.2    42  HIS42      -0.2867
     11  CB        22.7170    0.1070  -22.9250 C.3    42  HIS42       0.0745
     12  CG        23.6800    0.9880  -23.6700 C.ar   42  HIS42       0.0817
     13  ND1       23.6640    1.1170  -25.0440 N.ar   42  HIS42      -0.2268
     14  CD2       24.7130    1.7520  -23.2360 C.ar   42  HIS42       0.1154
     15  CE1       24.6320    1.9330  -25.4220 C.ar   42  HIS42       0.1986
     16  NE2       25.2840    2.3330  -24.3450 N.ar   42  HIS42      -0.2212
     17  N         21.0910    5.8620  -21.6450 N.3    46  LYS46      -0.1245
     18  CA        22.1110    6.7590  -22.1810 C.3    46  LYS46       0.1561
     19  C         21.4720    8.0100  -22.7580 C.2    46  LYS46       0.2260
     20  O         21.9490    9.1260  -22.5170 O.2    46  LYS46      -0.2867
     21  CB        22.9640    6.0430  -23.2350 C.3    46  LYS46       0.0271
     22  CG        24.0580    6.9010  -23.9150 C.3    46  LYS46       0.0035
     23  CD        25.2660    7.0920  -23.0040 C.3    46  LYS46       0.0206
     24  CE        26.3980    7.9020  -23.5960 C.3    46  LYS46       0.1093
     25  NZ        26.0650    9.3140  -23.7320 N.3    46  LYS46      -0.1314
     26  N         27.9320    3.7560  -14.9970 N.3    59  PHE59      -0.1241
     27  CA        28.0780    3.1410  -16.3040 C.3    59  PHE59       0.1605
     28  C         28.1770    1.6370  -16.1650 C.2    59  PHE59       0.2264
     29  O         27.5410    0.8960  -16.9140 O.2    59  PHE59      -0.2867
     30  CB        29.3030    3.6950  -17.0280 C.3    59  PHE59       0.0534
     31  CG        29.0020    4.8980  -17.8660 C.ar   59  PHE59      -0.0203
     32  CD1       28.2500    4.7690  -19.0250 C.ar   59  PHE59      -0.0042
     33  CD2       29.4680    6.1590  -17.5020 C.ar   59  PHE59      -0.0042
     34  CE1       27.9610    5.8720  -19.7980 C.ar   59  PHE59      -0.0003
     35  CE2       29.1900    7.2560  -18.2740 C.ar   59  PHE59      -0.0003
     36  CZ        28.4340    7.1150  -19.4230 C.ar   59  PHE59      -0.0000
     37  N         25.5710   -1.2630  -17.8920 N.3    63  HIS63      -0.1241
     38  CA        25.8940   -2.3220  -18.8370 C.3    63  HIS63       0.1621
     39  C         25.4800   -3.6780  -18.2830 C.2    63  HIS63       0.2264
     40  O         24.7890   -4.4360  -18.9640 O.2    63  HIS63      -0.2867
     41  CB        27.3890   -2.2950  -19.1500 C.3    63  HIS63       0.0745
     42  CG        27.8190   -1.1070  -19.9480 C.ar   63  HIS63       0.0817
     43  ND1       28.9100   -0.3350  -19.6080 N.ar   63  HIS63      -0.2268
     44  CD2       27.3310   -0.5820  -21.0950 C.ar   63  HIS63       0.1154
     45  CE1       29.0620    0.6280  -20.4970 C.ar   63  HIS63       0.1986
     46  NE2       28.1150    0.5020  -21.4100 N.ar   63  HIS63      -0.2212
     47  N         36.6130   -3.2670  -18.9220 N.3    97  ARG97      -0.1245
     48  CA        36.2500   -1.9010  -19.2920 C.3    97  ARG97       0.1563
     49  C         35.8550   -1.0740  -18.0730 C.2    97  ARG97       0.2260
     50  O         36.0060    0.1530  -18.0660 O.2    97  ARG97      -0.2867
     51  CB        35.1290   -1.9090  -20.3340 C.3    97  ARG97       0.0307
     52  CG        33.7210   -1.8680  -19.7970 C.3    97  ARG97       0.0489
     53  CD        32.7820   -1.1560  -20.7760 C.3    97  ARG97       0.2205
     54  NE        32.4700   -1.9700  -21.9520 N.pl3  97  ARG97      -0.0865
     55  CZ        32.7420   -1.6140  -23.2110 C.cat  97  ARG97       0.5346
     56  NH1       33.3300   -0.4470  -23.4680 N.pl3  97  ARG97       0.1354
     57  NH2       32.4220   -2.4200  -24.2180 N.pl3  97  ARG97       0.1354
     58  N         38.5680    1.7540  -15.2880 N.3   101  ARG101     -0.1245
     59  CA        38.1100    3.0470  -14.7860 C.3   101  ARG101      0.1563
     60  C         37.9090    3.0470  -13.2760 C.2   101  ARG101      0.2260
     61  O         37.0400    3.7600  -12.7770 O.2   101  ARG101     -0.2867
     62  CB        36.8220    3.4850  -15.4870 C.3   101  ARG101      0.0307
     63  CG        36.9200    3.5260  -16.9910 C.3   101  ARG101      0.0489
     64  CD        35.5400    3.5450  -17.6230 C.3   101  ARG101      0.2205
     65  NE        35.5810    4.1810  -18.9280 N.pl3 101  ARG101     -0.0865
     66  CZ        35.8210    3.5180  -20.0550 C.cat 101  ARG101      0.5346
     67  NH1       36.0370    2.2140  -20.0090 N.pl3 101  ARG101      0.1354
     68  NH2       35.8600    4.1490  -21.2210 N.pl3 101  ARG101      0.1354
     69  N         34.1430    6.7440  -30.0310 N.3   144  PRO144     -0.2102
     70  CA        34.8320    7.2030  -28.8080 C.3   144  PRO144      0.1504
     71  C         35.0170    6.1130  -27.7600 C.2   144  PRO144      0.2575
     72  O         36.0470    6.1020  -27.0730 O.2   144  PRO144     -0.2718
     73  CB        33.9290    8.3340  -28.2920 C.3   144  PRO144      0.0282
     74  CG        32.6290    8.1780  -28.9960 C.3   144  PRO144      0.0208
     75  CD        32.9410    7.5390  -30.3270 C.3   144  PRO144      0.0893
     76  N         34.0500    5.2020  -27.6060 N.am  145  GLN145     -0.1980
     77  CA        34.2280    4.1100  -26.6560 C.3   145  GLN145      0.1601
     78  C         35.4940    3.3160  -26.9610 C.2   145  GLN145      0.2287
     79  O         36.2030    2.8840  -26.0440 O.2   145  GLN145     -0.2864
     80  CB        33.0040    3.1920  -26.6760 C.3   145  GLN145      0.0394
     81  CG        31.6910    3.8140  -26.2060 C.3   145  GLN145      0.0908
     82  CD        31.7810    4.3550  -24.8020 C.2   145  GLN145      0.2608
     83  OE1       32.2040    3.6140  -23.8930 O.2   145  GLN145     -0.2717
     84  NE2       31.5310    5.6120  -24.6150 N.am  145  GLN145     -0.0878
     85  N         37.7210    7.7550  -25.0440 N.3   149  ALA149     -0.1231
     86  CA        37.6570    9.2100  -25.1200 C.3   149  ALA149      0.1694
     87  C         37.2340    9.8330  -23.7950 C.2   149  ALA149      0.2592
     88  O         37.6280   10.9630  -23.4940 O.2   149  ALA149     -0.2718
     89  CB        36.7120    9.6270  -26.2430 C.3   149  ALA149      0.0304
     90  N         36.4310    9.1290  -22.9940 N.am  150  ASP150     -0.1974
     91  CA        36.0910    9.6620  -21.6730 C.3   150  ASP150      0.1709
     92  C         37.3120    9.6950  -20.7630 C.2   150  ASP150      0.2293
     93  O         37.4660   10.6100  -19.9480 O.2   150  ASP150     -0.2864
     94  CB        34.9890    8.8280  -21.0280 C.3   150  ASP150      0.1436
     95  CG        35.3900    7.3740  -20.8720 C.2   150  ASP150      0.3671
     96  OD1       35.7460    6.7580  -21.9130 O.co2 150  ASP150     -0.2456
     97  OD2       35.3610    6.8710  -19.7170 O.co2 150  ASP150     -0.2456
@<TRIPOS>BOND
     1    75    69    1
     2    75    74    1
     3    69    70    1
     4    74    73    1
     5    70    73    1
     6    70    71    1
     7     4     3    2
     8    71    76   am
     9    71    72    2
    10    76    77    1
    11     1     2    1
    12    78    77    1
    13    78    79    2
    14     3     2    1
    15    80    77    1
    16    80    81    1
    17     2     5    1
    18    89    86    1
    19    81    82    1
    20    15    13   ar
    21    15    16   ar
    22    86    85    1
    23    86    87    1
    24    13    12   ar
    25     5     6    1
    26    82    84   am
    27    82    83    2
    28    16    14   ar
    29    57    55    1
    30    22    21    1
    31    22    23    1
    32    87    88    2
    33    87    90   am
    34    25    24    1
    35    12    14   ar
    36    12    11    1
    37    24    23    1
    38    56    55    1
    39    21    18    1
    40    55    54    2
    41     9    10    2
    42     9     8    1
    43    90    91    1
    44    11     8    1
    45    19    20    2
    46    19    18    1
    47     8     7    1
    48    18    17    1
    49    54    53    1
    50    96    95   ar
    51    91    94    1
    52    91    92    1
    53    46    44   ar
    54    46    45   ar
    55    68    66    1
    56    44    42   ar
    57    94    95    1
    58    95    97   ar
    59    53    52    1
    60    92    93    2
    61    45    43   ar
    62    51    52    1
    63    51    48    1
    64    66    67    1
    65    66    65    2
    66    42    43   ar
    67    42    41    1
    68    34    36   ar
    69    34    32   ar
    70    36    35   ar
    71    48    47    1
    72    48    49    1
    73    41    38    1
    74    32    31   ar
    75    40    39    2
    76    65    64    1
    77    38    39    1
    78    38    37    1
    79    35    33   ar
    80    49    50    2
    81    31    33   ar
    82    31    30    1
    83    64    63    1
    84    30    27    1
    85    63    62    1
    86    29    28    2
    87    27    28    1
    88    27    26    1
    89    62    59    1
    90    58    59    1
    91    59    60    1
    92    60    61    2
