@<TRIPOS>MOLECULE
tmp/5h73A00.pdb
 133 127 0 0 0
SMALL
GASTEIGER

@<TRIPOS>ATOM
      1  N        -23.6560   -7.2450    7.3800 N.3     6  TYR6       -0.1241
      2  CA       -24.8010   -8.1010    6.9250 C.3     6  TYR6        0.1605
      3  C        -24.7500   -9.4560    7.5600 C.2     6  TYR6        0.2264
      4  O        -25.7650   -9.9950    8.0520 O.2     6  TYR6       -0.2867
      5  CB       -24.8250   -8.1490    5.3800 C.3     6  TYR6        0.0534
      6  CG       -25.4960   -6.9100    4.7280 C.ar    6  TYR6       -0.0201
      7  CD1      -24.8720   -5.6470    4.7680 C.ar    6  TYR6       -0.0009
      8  CD2      -26.7440   -7.0180    4.1000 C.ar    6  TYR6       -0.0009
      9  CE1      -25.4870   -4.5160    4.2000 C.ar    6  TYR6        0.0417
     10  CE2      -27.3610   -5.9060    3.5060 C.ar    6  TYR6        0.0417
     11  CZ       -26.7280   -4.6820    3.5400 C.ar    6  TYR6        0.1957
     12  OH       -27.3580   -3.5870    2.9680 O.3     6  TYR6       -0.2866
     13  N        -27.3070   -7.6990   10.3010 N.3    10  LEU10      -0.1231
     14  CA       -28.5680   -7.5270    9.6010 C.3    10  LEU10       0.1693
     15  C        -29.2380   -8.8680    9.3870 C.2    10  LEU10       0.2591
     16  O        -30.3960   -9.0630    9.7430 O.2    10  LEU10      -0.2718
     17  CB       -28.3770   -6.8260    8.2530 C.3    10  LEU10       0.0284
     18  CG       -29.7030   -6.5090    7.5090 C.3    10  LEU10       0.0019
     19  CD1      -30.6800   -5.7830    8.4250 C.3    10  LEU10       0.0001
     20  CD2      -29.4510   -5.7030    6.2470 C.3    10  LEU10       0.0001
     21  N        -28.5240   -9.7840    8.7370 N.am   11  MET11      -0.1979
     22  CA       -29.2120  -11.0650    8.4110 C.3    11  MET11       0.1605
     23  C        -29.6690  -11.8890    9.6220 C.2    11  MET11       0.2287
     24  O        -30.8130  -12.3870    9.5940 O.2    11  MET11      -0.2864
     25  CB       -28.4050  -11.9370    7.4200 C.3    11  MET11       0.0413
     26  CG       -28.0230  -11.2760    6.1100 C.3    11  MET11       0.0598
     27  SD       -29.3520  -10.3930    5.2560 S.3    11  MET11      -0.1393
     28  CE       -30.4470  -11.7890    4.8740 C.3    11  MET11       0.0692
     29  N        -32.9310  -10.1950   10.8390 N.3    14  LEU14      -0.1245
     30  CA       -34.0620  -10.4940    9.9910 C.3    14  LEU14       0.1561
     31  C        -34.5360  -11.8990   10.2640 C.2    14  LEU14       0.2260
     32  O        -35.7500  -12.1270   10.3260 O.2    14  LEU14      -0.2867
     33  CB       -33.7870  -10.3320    8.4750 C.3    14  LEU14       0.0270
     34  CG       -33.3990   -8.9150    7.9840 C.3    14  LEU14       0.0019
     35  CD1      -32.9210   -8.9160    6.5380 C.3    14  LEU14       0.0001
     36  CD2      -34.5340   -7.9210    8.1580 C.3    14  LEU14       0.0001
     37  N        -39.4540  -13.4680    5.2300 N.3    23  ALA23      -0.1245
     38  CA       -38.1910  -12.8260    4.9810 C.3    23  ALA23       0.1562
     39  C        -37.9310  -12.7860    3.4380 C.2    23  ALA23       0.2260
     40  O        -37.4270  -11.8350    2.9040 O.2    23  ALA23      -0.2867
     41  CB       -37.0520  -13.5490    5.7150 C.3    23  ALA23       0.0290
     42  N        -40.1000  -10.1640    1.7770 N.3    26  LEU26      -0.1231
     43  CA       -39.4690   -8.8260    2.0050 C.3    26  LEU26       0.1693
     44  C        -38.2700   -8.6120    1.1530 C.2    26  LEU26       0.2591
     45  O        -38.0440   -7.5730    0.5790 O.2    26  LEU26      -0.2718
     46  CB       -39.1440   -8.6610    3.4580 C.3    26  LEU26       0.0284
     47  CG       -38.5950   -7.3730    4.0450 C.3    26  LEU26       0.0019
     48  CD1      -38.4100   -7.6000    5.5570 C.3    26  LEU26       0.0001
     49  CD2      -37.2510   -7.0530    3.4970 C.3    26  LEU26       0.0001
     50  N        -37.3920   -9.6350    1.0320 N.am   27  ALA27      -0.1980
     51  CA       -36.2670   -9.5060    0.1960 C.3    27  ALA27       0.1597
     52  C        -36.5790   -9.2130   -1.2850 C.2    27  ALA27       0.2287
     53  O        -35.8390   -8.4630   -1.9260 O.2    27  ALA27      -0.2864
     54  CB       -35.3950  -10.7970    0.2950 C.3    27  ALA27       0.0319
     55  N        -37.7060   -5.5160   -1.4010 N.3    30  PHE30      -0.1227
     56  CA       -36.5530   -4.6160   -1.2920 C.3    30  PHE30       0.1736
     57  C        -35.7330   -4.6560   -2.5350 C.2    30  PHE30       0.2596
     58  O        -35.2670   -3.6340   -3.0410 O.2    30  PHE30      -0.2718
     59  CB       -35.6660   -4.8900   -0.1200 C.3    30  PHE30       0.0547
     60  CG       -36.0230   -4.1340    1.1210 C.ar   30  PHE30      -0.0202
     61  CD1      -37.3090   -4.2680    1.6610 C.ar   30  PHE30      -0.0042
     62  CD2      -35.0760   -3.3060    1.7620 C.ar   30  PHE30      -0.0042
     63  CE1      -37.6660   -3.5520    2.8320 C.ar   30  PHE30      -0.0003
     64  CE2      -35.4110   -2.6090    2.9470 C.ar   30  PHE30      -0.0003
     65  CZ       -36.7090   -2.7490    3.4640 C.ar   30  PHE30      -0.0000
     66  N        -35.4680   -5.8780   -3.1140 N.am   31  THR31      -0.1953
     67  CA       -34.6330   -5.9040   -4.2660 C.3    31  THR31       0.1897
     68  C        -35.3550   -5.2180   -5.4330 C.2    31  THR31       0.2313
     69  O        -34.7550   -4.4810   -6.1830 O.2    31  THR31      -0.2863
     70  CB       -34.3400   -7.4110   -4.6010 C.3    31  THR31       0.1794
     71  OG1      -33.7190   -7.9520   -3.4410 O.3    31  THR31      -0.2208
     72  CG2      -33.5150   -7.5590   -5.8350 C.3    31  THR31       0.0378
     73  N        -33.3850   -1.2380   -3.0460 N.3    35  LEU35      -0.1231
     74  CA       -32.9050   -0.9010   -1.6910 C.3    35  LEU35       0.1693
     75  C        -31.8020   -1.8730   -1.2470 C.2    35  LEU35       0.2592
     76  O        -31.9990   -2.8270   -0.4370 O.2    35  LEU35      -0.2718
     77  CB       -34.0800   -0.9260   -0.7190 C.3    35  LEU35       0.0284
     78  CG       -35.2270   -0.0060   -1.1500 C.3    35  LEU35       0.0019
     79  CD1      -36.3890   -0.2100   -0.2260 C.3    35  LEU35       0.0001
     80  CD2      -34.7480    1.4540   -1.1660 C.3    35  LEU35       0.0001
     81  N        -30.6390   -1.6180   -1.7550 N.am   36  LEU36      -0.1966
     82  CA       -29.5560   -2.6010   -1.6750 C.3    36  LEU36       0.1713
     83  C        -28.3110   -1.7660   -1.5470 C.2    36  LEU36       0.2458
     84  O        -28.2820   -0.6520   -2.0330 O.2    36  LEU36      -0.2730
     85  CB       -29.4110   -3.4080   -2.9830 C.3    36  LEU36       0.0310
     86  CG       -30.6060   -4.1410   -3.5670 C.3    36  LEU36       0.0022
     87  CD1      -30.5040   -4.3960   -5.0850 C.3    36  LEU36       0.0001
     88  CD2      -30.6980   -5.3820   -2.6720 C.3    36  LEU36       0.0001
     89  N        -27.2640   -2.3180   -0.9390 N.am   37  PRO37      -0.2727
     90  CA       -26.0220   -1.5900   -1.2520 C.3    37  PRO37       0.1402
     91  C        -25.7430   -1.6300   -2.7960 C.2    37  PRO37       0.2269
     92  O        -25.3680   -2.6970   -3.2560 O.2    37  PRO37      -0.2865
     93  CB       -24.9690   -2.3560   -0.4440 C.3    37  PRO37       0.0296
     94  CG       -25.6090   -3.6180    0.0890 C.3    37  PRO37       0.0237
     95  CD       -27.0390   -3.6760   -0.3970 C.3    37  PRO37       0.0939
     96  N        -35.5780  -17.5640   -6.4150 N.3    66  PHE66      -0.1241
     97  CA       -35.5660  -16.3560   -5.6400 C.3    66  PHE66       0.1605
     98  C        -36.5760  -15.4190   -6.2890 C.2    66  PHE66       0.2264
     99  O        -37.4120  -14.8540   -5.5410 O.2    66  PHE66      -0.2867
    100  CB       -34.1810  -15.7400   -5.6410 C.3    66  PHE66       0.0534
    101  CG       -34.1320  -14.3930   -4.9540 C.ar   66  PHE66      -0.0203
    102  CD1      -34.0830  -14.3010   -3.5780 C.ar   66  PHE66      -0.0042
    103  CD2      -34.3820  -13.2560   -5.6810 C.ar   66  PHE66      -0.0042
    104  CE1      -34.2340  -13.0430   -2.9020 C.ar   66  PHE66      -0.0003
    105  CE2      -34.4200  -12.0040   -5.0040 C.ar   66  PHE66      -0.0003
    106  CZ       -34.3850  -11.9220   -3.6620 C.ar   66  PHE66      -0.0000
    107  N        -27.5600   -5.8100   -7.7900 N.3    79  MET79      -0.1245
    108  CA       -26.8770   -6.5620   -6.7730 C.3    79  MET79       0.1570
    109  C        -25.5460   -7.1390   -7.2830 C.2    79  MET79       0.2261
    110  O        -24.6890   -7.4870   -6.4120 O.2    79  MET79      -0.2867
    111  CB       -27.8220   -7.7140   -6.3110 C.3    79  MET79       0.0387
    112  CG       -27.5960   -8.1530   -4.8970 C.3    79  MET79       0.0595
    113  SD       -28.7070   -9.4410   -4.2970 S.3    79  MET79      -0.1393
    114  CE       -30.2540   -8.6770   -4.3120 C.3    79  MET79       0.0692
    115  N        -27.5120  -16.2940    0.0070 N.3   327  LEU327     -0.1245
    116  CA       -28.1980  -14.9660    0.3570 C.3   327  LEU327      0.1561
    117  C        -28.9200  -14.9430    1.6080 C.2   327  LEU327      0.2260
    118  O        -28.9990  -13.8760    2.2880 O.2   327  LEU327     -0.2867
    119  CB       -29.0520  -14.6490   -0.7630 C.3   327  LEU327      0.0270
    120  CG       -28.7790  -13.8700   -1.9470 C.3   327  LEU327      0.0019
    121  CD1      -27.5980  -12.8850   -2.0530 C.3   327  LEU327      0.0001
    122  CD2      -29.6390  -14.0690   -3.1980 C.3   327  LEU327      0.0001
    123  N        -26.6300  -12.3720    2.9370 N.3   331  GLY331     -0.1210
    124  CA       -27.2090  -11.2580    2.2710 C.3   331  GLY331      0.1940
    125  C        -26.5270  -10.7910    1.0400 C.2   331  GLY331      0.2453
    126  O        -25.5190  -11.4490    0.5660 O.2   331  GLY331     -0.2732
    127  N        -26.9130   -9.6660    0.4300 N.am  332  PRO332     -0.2728
    128  CA       -26.4270   -9.2020   -0.8440 C.3   332  PRO332      0.1401
    129  C        -24.8770   -9.0670   -0.9860 C.2   332  PRO332      0.2269
    130  O        -24.4170   -9.2570   -2.0720 O.2   332  PRO332     -0.2865
    131  CB       -27.1530   -7.8490   -1.0360 C.3   332  PRO332      0.0296
    132  CG       -28.4570   -8.1260   -0.3480 C.3   332  PRO332      0.0237
    133  CD       -28.1630   -8.9320    0.8520 C.3   332  PRO332      0.0939
@<TRIPOS>BOND
     1   107   108    1
     2   109   108    1
     3   109   110    2
     4   108   111    1
     5    96    97    1
     6   111   112    1
     7    98    97    1
     8    98    99    2
     9    69    68    2
    10    72    70    1
    11   103   105   ar
    12   103   101   ar
    13   100    97    1
    14   100   101    1
    15    68    67    1
    16    87    86    1
    17   105   106   ar
    18   101   102   ar
    19   112   113    1
    20    70    67    1
    21    70    71    1
    22   114   113    1
    23    67    66    1
    24   106   104   ar
    25   102   104   ar
    26    86    85    1
    27    86    88    1
    28    92    91    2
    29   122   120    1
    30    66    57   am
    31    73    74    1
    32    58    57    2
    33    85    82    1
    34    91    90    1
    35    57    56    1
    36   130   129    2
    37   121   120    1
    38    84    83    2
    39   120   119    1
    40    53    52    2
    41    81    82    1
    42    81    75   am
    43    74    75    1
    44    74    77    1
    45    82    83    1
    46    83    89   am
    47    55    56    1
    48    56    59    1
    49    52    51    1
    50    90    89    1
    51    90    93    1
    52    75    76    2
    53    80    78    1
    54    78    77    1
    55    78    79    1
    56   131   128    1
    57   131   132    1
    58   129   128    1
    59    89    95    1
    60   128   127    1
    61   119   116    1
    62    93    94    1
    63    95    94    1
    64   132   133    1
    65    59    60    1
    66   115   116    1
    67    51    54    1
    68    51    50    1
    69   116   117    1
    70   127   133    1
    71   127   125   am
    72   126   125    2
    73    45    44    2
    74    50    44   am
    75   125   124    1
    76    60    61   ar
    77    60    62   ar
    78    44    43    1
    79   117   118    2
    80    61    63   ar
    81    62    64   ar
    82    42    43    1
    83    43    46    1
    84   124   123    1
    85    63    65   ar
    86    40    39    2
    87    64    65   ar
    88    12    11    1
    89    39    38    1
    90    46    47    1
    91    49    47    1
    92    10    11   ar
    93    10     8   ar
    94    11     9   ar
    95    47    48    1
    96     8     6   ar
    97     9     7   ar
    98     6     7   ar
    99     6     5    1
   100    28    27    1
   101    38    37    1
   102    38    41    1
   103    27    26    1
   104     5     2    1
   105    26    25    1
   106    20    18    1
   107    35    34    1
   108     2     1    1
   109     2     3    1
   110    25    22    1
   111    18    17    1
   112    18    19    1
   113     3     4    2
   114    34    36    1
   115    34    33    1
   116    17    14    1
   117    22    21    1
   118    22    23    1
   119    33    30    1
   120    21    15   am
   121    15    14    1
   122    15    16    2
   123    24    23    2
   124    14    13    1
   125    30    31    1
   126    30    29    1
   127    31    32    2
