@<TRIPOS>MOLECULE
tmp/5h74B03.pdb
 143 139 0 0 0
SMALL
GASTEIGER

@<TRIPOS>ATOM
      1  N        121.5890   52.9030  201.0460 N.3    11  GLN11      -0.1231
      2  CA       120.1930   53.2810  200.7510 C.3    11  GLN11       0.1698
      3  C        119.4860   53.8450  201.9910 C.2    11  GLN11       0.2592
      4  O        119.0210   54.9730  201.9750 O.2    11  GLN11      -0.2718
      5  CB       119.3920   52.0880  200.2000 C.3    11  GLN11       0.0381
      6  CG       117.9700   52.4180  199.7430 C.3    11  GLN11       0.0905
      7  CD       117.1640   51.1840  199.3770 C.2    11  GLN11       0.2608
      8  OE1      116.2700   50.7720  200.1220 O.2    11  GLN11      -0.2717
      9  NE2      117.4830   50.5750  198.2330 N.am   11  GLN11      -0.0878
     10  N        119.4340   53.0490  203.0520 N.am   12  CYS12      -0.1970
     11  CA       118.7230   53.4070  204.2660 C.3    12  CYS12       0.1712
     12  C        119.3070   54.6730  204.8700 C.2    12  CYS12       0.2296
     13  O        118.5800   55.6350  205.1040 O.2    12  CYS12      -0.2864
     14  CB       118.7840   52.2700  205.2900 C.3    12  CYS12       0.0983
     15  SG       117.8750   52.6170  206.8170 S.3    12  CYS12      -0.0798
     16  N        118.5260   57.7520  202.9670 N.3    15  GLN15      -0.1245
     17  CA       117.1100   58.0210  202.9060 C.3    15  GLN15       0.1566
     18  C        116.6300   58.6540  204.2120 C.2    15  GLN15       0.2260
     19  O        115.8920   59.6470  204.1780 O.2    15  GLN15      -0.2867
     20  CB       116.3570   56.7290  202.5940 C.3    15  GLN15       0.0367
     21  CG       115.0020   56.9620  201.9680 C.3    15  GLN15       0.0905
     22  CD       115.0630   57.2890  200.4890 C.2    15  GLN15       0.2608
     23  OE1      114.6490   58.3670  200.0770 O.2    15  GLN15      -0.2717
     24  NE2      115.5560   56.3580  199.6840 N.am   15  GLN15      -0.0878
     25  N        118.2620   59.9700  193.5070 N.3    75  SER75      -0.1217
     26  CA       116.9490   60.2130  194.0930 C.3    75  SER75       0.1889
     27  C        116.9710   61.3860  195.0960 C.2    75  SER75       0.2288
     28  O        116.0680   62.2260  195.0810 O.2    75  SER75      -0.2866
     29  CB       116.4170   58.9280  194.7440 C.3    75  SER75       0.2089
     30  OG       115.1940   59.1460  195.4160 O.3    75  SER75      -0.2183
     31  N        112.9920   40.5960  209.9680 N.3   173  PRO173     -0.2102
     32  CA       112.3260   39.8350  208.8880 C.3   173  PRO173      0.1504
     33  C        110.9150   40.3510  208.4870 C.2   173  PRO173      0.2576
     34  O        110.3980   39.9420  207.4440 O.2   173  PRO173     -0.2718
     35  CB       112.2310   38.4120  209.4390 C.3   173  PRO173      0.0282
     36  CG       113.0300   38.3870  210.6810 C.3   173  PRO173      0.0208
     37  CD       113.1950   39.7830  211.1750 C.3   173  PRO173      0.0893
     38  N        110.3040   41.2130  209.3050 N.am  174  LYS174     -0.1966
     39  CA       109.0540   41.8870  208.9320 C.3   174  LYS174      0.1728
     40  C        109.2090   42.9050  207.8070 C.2   174  LYS174      0.2616
     41  O        108.2250   43.2400  207.1410 O.2   174  LYS174     -0.2715
     42  CB       108.4290   42.5720  210.1410 C.3   174  LYS174      0.0311
     43  CG       107.9180   41.5850  211.1690 C.3   174  LYS174      0.0038
     44  CD       107.5160   42.2630  212.4640 C.3   174  LYS174      0.0206
     45  CE       106.8890   41.2420  213.4000 C.3   174  LYS174      0.1093
     46  NZ       106.7610   41.7210  214.8050 N.3   174  LYS174     -0.1314
     47  N        110.4310   43.3980  207.6030 N.am  175  VAL175     -0.1963
     48  CA       110.7070   44.4350  206.6020 C.3   175  VAL175      0.1727
     49  C        111.5590   43.9240  205.4280 C.2   175  VAL175      0.2617
     50  O        111.2720   44.2640  204.2860 O.2   175  VAL175     -0.2715
     51  CB       111.3570   45.6620  207.2820 C.3   175  VAL175      0.0290
     52  CG1      111.6010   46.7970  206.2890 C.3   175  VAL175      0.0023
     53  CG2      110.4750   46.1470  208.4240 C.3   175  VAL175      0.0023
     54  N        112.6000   43.1350  205.7140 N.am  176  SER176     -0.1936
     55  CA       113.5000   42.5790  204.6910 C.3   176  SER176      0.2055
     56  C        113.4750   41.0480  204.6960 C.2   176  SER176      0.2643
     57  O        113.3700   40.4370  205.7470 O.2   176  SER176     -0.2714
     58  CB       114.9340   43.0520  204.9350 C.3   176  SER176      0.2130
     59  OG       115.7950   42.6200  203.8900 O.3   176  SER176     -0.2179
     60  N        113.5820   40.4470  203.5160 N.am  177  ASP177     -0.1971
     61  CA       113.6920   38.9890  203.3690 C.3   177  ASP177      0.1709
     62  C        115.0930   38.5460  202.9580 C.2   177  ASP177      0.2293
     63  O        115.3030   37.3720  202.6470 O.2   177  ASP177     -0.2864
     64  CB       112.6740   38.4900  202.3440 C.3   177  ASP177      0.1436
     65  CG       111.2520   38.8100  202.7490 C.2   177  ASP177      0.3671
     66  OD1      110.6570   38.0100  203.5040 O.co2 177  ASP177     -0.2456
     67  OD2      110.7290   39.8700  202.3200 O.co2 177  ASP177     -0.2456
     68  N        107.9850   48.8870  212.1300 N.3   208  TYR208     -0.1241
     69  CA       106.9490   48.1990  211.3710 C.3   208  TYR208      0.1605
     70  C        105.7320   47.9540  212.2520 C.2   208  TYR208      0.2264
     71  O        104.6200   48.3150  211.8750 O.2   208  TYR208     -0.2867
     72  CB       107.4450   46.8680  210.7750 C.3   208  TYR208      0.0534
     73  CG       106.3770   46.2010  209.9390 C.ar  208  TYR208     -0.0201
     74  CD1      106.2310   46.5070  208.5860 C.ar  208  TYR208     -0.0009
     75  CD2      105.4770   45.2970  210.5140 C.ar  208  TYR208     -0.0009
     76  CE1      105.2360   45.9180  207.8220 C.ar  208  TYR208      0.0417
     77  CE2      104.4760   44.7100  209.7590 C.ar  208  TYR208      0.0417
     78  CZ       104.3590   45.0290  208.4170 C.ar  208  TYR208      0.1957
     79  OH       103.3680   44.4460  207.6760 O.3   208  TYR208     -0.2866
     80  N         99.6940   48.2630  204.9480 N.3   219  THR219     -0.1204
     81  CA       100.7670   48.0810  203.9710 C.3   219  THR219      0.1979
     82  C        101.7850   49.2260  204.1110 C.2   219  THR219      0.2460
     83  O        101.8500   50.1230  203.2720 O.2   219  THR219     -0.2732
     84  CB       100.1980   47.9780  202.5380 C.3   219  THR219      0.1783
     85  OG1       99.2020   46.9460  202.4990 O.3   219  THR219     -0.2211
     86  CG2      101.2890   47.6420  201.5310 C.3   219  THR219      0.0376
     87  N        102.5860   49.1950  205.1890 N.am  220  PRO220     -0.2717
     88  CA       103.5470   50.2720  205.4040 C.3   220  PRO220      0.1536
     89  C        104.6320   50.3140  204.3400 C.2   220  PRO220      0.2599
     90  O        105.1140   49.2670  203.9110 O.2   220  PRO220     -0.2715
     91  CB       104.1850   49.9280  206.7620 C.3   220  PRO220      0.0310
     92  CG       103.2900   48.9190  207.3780 C.3   220  PRO220      0.0237
     93  CD       102.6700   48.1710  206.2450 C.3   220  PRO220      0.0939
     94  N        104.9900   51.5210  203.9240 N.am  221  THR221     -0.1937
     95  CA       106.1250   51.7580  203.0520 C.3   221  THR221      0.2028
     96  C        107.3730   52.0840  203.8930 C.2   221  THR221      0.2642
     97  O        107.2830   52.2730  205.1090 O.2   221  THR221     -0.2714
     98  CB       105.8190   52.9290  202.0840 C.3   221  THR221      0.1808
     99  OG1      105.7130   54.1590  202.8150 O.3   221  THR221     -0.2208
    100  CG2      104.5160   52.6730  201.3160 C.3   221  THR221      0.0379
    101  N        108.5320   52.1480  203.2450 N.am  222  TYR222     -0.1959
    102  CA       109.7470   52.6210  203.9030 C.3   222  TYR222      0.1771
    103  C        109.5350   54.0620  204.3730 C.2   222  TYR222      0.2620
    104  O        109.9880   54.4360  205.4540 O.2   222  TYR222     -0.2715
    105  CB       110.9540   52.5820  202.9630 C.3   222  TYR222      0.0574
    106  CG       111.5060   51.2100  202.6120 C.ar  222  TYR222     -0.0198
    107  CD1      111.8370   50.2810  203.6030 C.ar  222  TYR222     -0.0009
    108  CD2      111.7610   50.8660  201.2830 C.ar  222  TYR222     -0.0009
    109  CE1      112.3710   49.0390  203.2730 C.ar  222  TYR222      0.0417
    110  CE2      112.2940   49.6330  200.9450 C.ar  222  TYR222      0.0417
    111  CZ       112.5980   48.7240  201.9360 C.ar  222  TYR222      0.1957
    112  OH       113.1350   47.5080  201.5790 O.3   222  TYR222     -0.2866
    113  N        108.8530   54.8580  203.5440 N.am  223  GLY223     -0.1954
    114  CA       108.4270   56.2130  203.8950 C.3   223  GLY223      0.1869
    115  C        107.6800   56.3080  205.2130 C.2   223  GLY223      0.2309
    116  O        107.9130   57.2330  205.9840 O.2   223  GLY223     -0.2863
    117  N        107.8690   54.0930  207.7630 N.3   225  LEU225     -0.1231
    118  CA       108.9280   53.8070  208.7450 C.3   225  LEU225      0.1693
    119  C        109.8090   55.0310  208.9980 C.2   225  LEU225      0.2592
    120  O        110.0730   55.3850  210.1460 O.2   225  LEU225     -0.2718
    121  CB       109.8120   52.6360  208.2780 C.3   225  LEU225      0.0284
    122  CG       109.3850   51.1980  208.5980 C.3   225  LEU225      0.0019
    123  CD1      107.9010   50.9380  208.3990 C.3   225  LEU225      0.0001
    124  CD2      110.2100   50.2260  207.7690 C.3   225  LEU225      0.0001
    125  N        110.2420   55.6760  207.9160 N.am  226  ASN226     -0.1974
    126  CA       111.1680   56.8140  207.9980 C.3   226  ASN226      0.1688
    127  C        110.5670   58.0510  208.6450 C.2   226  ASN226      0.2292
    128  O        111.2670   58.8100  209.3100 O.2   226  ASN226     -0.2864
    129  CB       111.7240   57.1490  206.6120 C.3   226  ASN226      0.1181
    130  CG       112.6380   56.0570  206.0770 C.2   226  ASN226      0.2629
    131  OD1      112.9750   55.1060  206.7930 O.2   226  ASN226     -0.2716
    132  ND2      113.0500   56.1860  204.8170 N.am  226  ASN226     -0.0877
    133  N        101.9620   60.2510  208.2170 N.3   276  ARG276     -0.1245
    134  CA       102.0510   61.4370  207.3510 C.3   276  ARG276      0.1563
    135  C        100.6820   61.8760  206.8610 C.2   276  ARG276      0.2260
    136  O         99.8430   61.0370  206.5300 O.2   276  ARG276     -0.2867
    137  CB       102.9350   61.1610  206.1380 C.3   276  ARG276      0.0307
    138  CG       104.4190   61.0850  206.4460 C.3   276  ARG276      0.0489
    139  CD       105.1910   60.6300  205.2240 C.3   276  ARG276      0.2205
    140  NE       104.8060   59.2770  204.8280 N.pl3 276  ARG276     -0.0865
    141  CZ       105.1650   58.6800  203.6970 C.cat 276  ARG276      0.5346
    142  NH1      105.9410   59.2970  202.8200 N.pl3 276  ARG276      0.1354
    143  NH2      104.7510   57.4420  203.4480 N.pl3 276  ARG276      0.1354
@<TRIPOS>BOND
     1    25    26    1
     2    26    29    1
     3    26    27    1
     4    29    30    1
     5    28    27    2
     6     9     7   am
     7     7     6    1
     8     7     8    2
     9    24    22   am
    10     6     5    1
    11    23    22    2
    12     5     2    1
    13    22    21    1
    14     2     1    1
    15     2     3    1
    16   110   108   ar
    17   110   111   ar
    18   108   106   ar
    19   100    98    1
    20    86    84    1
    21   112   111    1
    22   111   109   ar
    23    21    20    1
    24     4     3    2
    25     3    10   am
    26    98    99    1
    27    98    95    1
    28    67    65   ar
    29    64    65    1
    30    64    61    1
    31    85    84    1
    32    84    81    1
    33    20    17    1
    34   106   105    1
    35   106   107   ar
    36    63    62    2
    37    65    66   ar
    38   142   141    1
    39    17    16    1
    40    17    18    1
    41    62    61    1
    42   105   102    1
    43    95    96    1
    44    95    94    1
    45    10    11    1
    46   101    96   am
    47   101   102    1
    48    83    82    2
    49   109   107   ar
    50    61    60    1
    51   143   141    1
    52    60    56   am
    53   113   114    1
    54   113   103   am
    55   141   140    2
    56    59    58    1
    57    96    97    2
    58   114   115    1
    59   102   103    1
    60    90    89    2
    61    94    89   am
    62    81    82    1
    63    81    80    1
    64    82    87   am
    65    19    18    2
    66    11    12    1
    67    11    14    1
    68    50    49    2
    69    89    88    1
    70   103   104    2
    71    55    56    1
    72    55    58    1
    73    55    54    1
    74    56    57    2
    75   132   130   am
    76   140   139    1
    77    12    13    2
    78    87    88    1
    79    87    93    1
    80   115   116    2
    81   139   138    1
    82    14    15    1
    83    88    91    1
    84    49    54   am
    85    49    48    1
    86   130   129    1
    87   130   131    2
    88   137   138    1
    89   137   134    1
    90    93    92    1
    91    52    51    1
    92   136   135    2
    93    48    51    1
    94    48    47    1
    95   129   126    1
    96    91    92    1
    97   135   134    1
    98    41    40    2
    99    51    53    1
   100   134   133    1
   101    34    33    2
   102    47    40   am
   103    79    78    1
   104   117   118    1
   105   124   122    1
   106    40    39    1
   107    76    78   ar
   108    76    74   ar
   109   125   126    1
   110   125   119   am
   111   126   127    1
   112   121   122    1
   113   121   118    1
   114   123   122    1
   115    78    77   ar
   116    33    32    1
   117    33    38   am
   118    74    73   ar
   119   127   128    2
   120   118   119    1
   121    32    35    1
   122    32    31    1
   123    39    38    1
   124    39    42    1
   125   119   120    2
   126    35    36    1
   127    77    75   ar
   128    73    75   ar
   129    73    72    1
   130    31    37    1
   131    42    43    1
   132    36    37    1
   133    72    69    1
   134    43    44    1
   135    69    68    1
   136    69    70    1
   137    71    70    2
   138    44    45    1
   139    45    46    1
