@<TRIPOS>MOLECULE
tmp/5h74C00.pdb
 115 109 0 0 0
SMALL
GASTEIGER

@<TRIPOS>ATOM
      1  N        110.4840   50.3670  190.9060 N.3   247  ALA247     -0.1231
      2  CA       110.8040   50.5240  192.3180 C.3   247  ALA247      0.1694
      3  C        110.7750   49.2160  193.1430 C.2   247  ALA247      0.2592
      4  O        111.4790   49.1150  194.1570 O.2   247  ALA247     -0.2718
      5  CB       109.8690   51.5600  192.9340 C.3   247  ALA247      0.0304
      6  N        109.9690   48.2350  192.7270 N.am  248  LEU248     -0.1966
      7  CA       109.8500   46.9630  193.4570 C.3   248  LEU248      0.1728
      8  C        110.6190   45.8230  192.8080 C.2   248  LEU248      0.2616
      9  O        110.5750   44.6880  193.2870 O.2   248  LEU248     -0.2715
     10  CB       108.3820   46.5790  193.6020 C.3   248  LEU248      0.0311
     11  CG       107.5250   47.6660  194.2490 C.3   248  LEU248      0.0022
     12  CD1      106.0620   47.2740  194.2340 C.3   248  LEU248      0.0001
     13  CD2      107.9870   47.9530  195.6680 C.3   248  LEU248      0.0001
     14  N        111.3280   46.1260  191.7270 N.am  249  ASN249     -0.1958
     15  CA       112.1240   45.1370  191.0370 C.3   249  ASN249      0.1819
     16  C        113.3630   44.7790  191.8490 C.2   249  ASN249      0.2621
     17  O        114.1730   45.6460  192.1850 O.2   249  ASN249     -0.2715
     18  CB       112.5430   45.6640  189.6740 C.3   249  ASN249      0.1195
     19  CG       113.2060   44.6080  188.8370 C.2   249  ASN249      0.2630
     20  OD1      112.6280   43.5440  188.5940 O.2   249  ASN249     -0.2716
     21  ND2      114.4320   44.8800  188.4060 N.am  249  ASN249     -0.0877
     22  N        113.4840   43.5030  192.1860 N.am  250  VAL250     -0.1977
     23  CA       114.6500   42.9920  192.8670 C.3   250  VAL250      0.1596
     24  C        115.5100   42.3310  191.8010 C.2   250  VAL250      0.2287
     25  O        115.0080   41.5620  190.9760 O.2   250  VAL250     -0.2864
     26  CB       114.2500   42.0000  193.9670 C.3   250  VAL250      0.0276
     27  CG1      115.4780   41.3520  194.5910 C.3   250  VAL250      0.0022
     28  CG2      113.4190   42.7120  195.0220 C.3   250  VAL250      0.0022
     29  N        120.3670   39.5150  193.7710 N.3   254  GLU254     -0.1245
     30  CA       119.7840   39.4380  195.1180 C.3   254  GLU254      0.1567
     31  C        119.0840   38.1100  195.3820 C.2   254  GLU254      0.2260
     32  O        119.2330   37.5360  196.4670 O.2   254  GLU254     -0.2867
     33  CB       118.8000   40.5800  195.3660 C.3   254  GLU254      0.0388
     34  CG       119.4500   41.9320  195.6290 C.3   254  GLU254      0.1160
     35  CD       118.4910   42.9470  196.2120 C.2   254  GLU254      0.3649
     36  OE1      118.6400   44.1430  195.9220 O.co2 254  GLU254     -0.2457
     37  OE2      117.5880   42.5660  196.9700 O.co2 254  GLU254     -0.2457
     38  N        101.7050   45.3990  196.1240 N.3   325  PRO325     -0.2116
     39  CA       102.2320   44.8080  197.3670 C.3   325  PRO325      0.1372
     40  C        101.2020   44.2190  198.3210 C.2   325  PRO325      0.2244
     41  O        101.4140   43.1150  198.8270 O.2   325  PRO325     -0.2868
     42  CB       102.9520   45.9820  198.0320 C.3   325  PRO325      0.0268
     43  CG       103.3890   46.8220  196.8860 C.3   325  PRO325      0.0207
     44  CD       102.3090   46.7210  195.8600 C.3   325  PRO325      0.0892
     45  N        100.2750   40.7000  197.2680 N.3   328  VAL328     -0.1231
     46  CA       101.4290   39.8030  197.4260 C.3   328  VAL328      0.1692
     47  C        101.6870   39.4830  198.8960 C.2   328  VAL328      0.2592
     48  O        101.8520   38.3050  199.2500 O.2   328  VAL328     -0.2718
     49  CB       102.7130   40.3930  196.8010 C.3   328  VAL328      0.0266
     50  CG1      103.9220   39.5150  197.1130 C.3   328  VAL328      0.0020
     51  CG2      102.5560   40.5390  195.2940 C.3   328  VAL328      0.0020
     52  N        101.7280   40.5240  199.7350 N.am  329  ASN329     -0.1974
     53  CA       101.8920   40.3550  201.1880 C.3   329  ASN329      0.1688
     54  C        100.8240   39.4330  201.7840 C.2   329  ASN329      0.2292
     55  O        101.1410   38.5170  202.5470 O.2   329  ASN329     -0.2864
     56  CB       101.8970   41.7120  201.9240 C.3   329  ASN329      0.1181
     57  CG       103.1680   42.5300  201.6720 C.2   329  ASN329      0.2629
     58  OD1      104.2330   41.9880  201.3620 O.2   329  ASN329     -0.2716
     59  ND2      103.0540   43.8510  201.7990 N.am  329  ASN329     -0.0877
     60  N        101.2180   35.7240  200.6190 N.3   332  ILE332     -0.1245
     61  CA       102.3300   35.0400  201.3020 C.3   332  ILE332      0.1561
     62  C        102.0230   34.7820  202.7770 C.2   332  ILE332      0.2260
     63  O        102.4620   33.7740  203.3290 O.2   332  ILE332     -0.2867
     64  CB       103.6530   35.8320  201.1690 C.3   332  ILE332      0.0252
     65  CG1      104.0730   35.9180  199.6960 C.3   332  ILE332      0.0019
     66  CG2      104.7790   35.1940  201.9880 C.3   332  ILE332      0.0019
     67  CD1      104.9560   37.1060  199.3860 C.3   332  ILE332      0.0001
     68  N        102.1570   31.0120  204.8170 N.3   336  LYS336     -0.1245
     69  CA       102.8160   30.6520  206.0860 C.3   336  LYS336      0.1561
     70  C        101.8180   30.3500  207.2220 C.2   336  LYS336      0.2260
     71  O        102.0270   29.4020  207.9850 O.2   336  LYS336     -0.2867
     72  CB       103.8890   31.6800  206.5030 C.3   336  LYS336      0.0271
     73  CG       103.4100   33.0860  206.8420 C.3   336  LYS336      0.0035
     74  CD       104.5190   33.9220  207.4750 C.3   336  LYS336      0.0206
     75  CE       105.6340   34.2550  206.4890 C.3   336  LYS336      0.1093
     76  NZ       106.6370   35.2100  207.0470 N.3   336  LYS336     -0.1314
     77  N        111.8060   33.0980  205.0740 N.3   350  GLY350     -0.1210
     78  CA       111.5670   34.3330  204.3390 C.3   350  GLY350      0.1956
     79  C        111.0170   34.0630  202.9500 C.2   350  GLY350      0.2612
     80  O        111.1480   32.9570  202.4070 O.2   350  GLY350     -0.2717
     81  N        110.3930   35.0850  202.3820 N.am  351  PHE351     -0.1962
     82  CA       109.8880   35.0230  201.0300 C.3   351  PHE351      0.1771
     83  C        110.3790   36.2570  200.3160 C.2   351  PHE351      0.2619
     84  O        109.8130   37.3240  200.4840 O.2   351  PHE351     -0.2715
     85  CB       108.3630   34.9370  201.0400 C.3   351  PHE351      0.0574
     86  CG       107.8440   33.6270  201.5680 C.ar  351  PHE351     -0.0200
     87  CD1      107.7430   33.4040  202.9360 C.ar  351  PHE351     -0.0042
     88  CD2      107.4790   32.6070  200.7010 C.ar  351  PHE351     -0.0042
     89  CE1      107.2800   32.1920  203.4300 C.ar  351  PHE351     -0.0003
     90  CE2      107.0180   31.3940  201.1890 C.ar  351  PHE351     -0.0003
     91  CZ       106.9190   31.1860  202.5540 C.ar  351  PHE351     -0.0000
     92  N        111.4600   36.1090  199.5500 N.am  352  LYS352     -0.1963
     93  CA       112.0450   37.2320  198.8350 C.3   352  LYS352      0.1728
     94  C        111.3070   37.4750  197.5130 C.2   352  LYS352      0.2616
     95  O        111.2920   36.6200  196.6250 O.2   352  LYS352     -0.2715
     96  CB       113.5470   37.0190  198.6130 C.3   352  LYS352      0.0311
     97  CG       114.2160   38.2090  197.9330 C.3   352  LYS352      0.0038
     98  CD       115.5250   38.6690  198.5570 C.3   352  LYS352      0.0206
     99  CE       115.5810   40.1940  198.5650 C.3   352  LYS352      0.1093
    100  NZ       116.9390   40.7540  198.7460 N.3   352  LYS352     -0.1314
    101  N        110.7410   38.6740  197.3840 N.am  353  VAL353     -0.1977
    102  CA       109.7830   39.0140  196.3370 C.3   353  VAL353      0.1596
    103  C        110.2860   40.1440  195.4440 C.2   353  VAL353      0.2287
    104  O        110.8880   41.0890  195.9210 O.2   353  VAL353     -0.2864
    105  CB       108.4550   39.4350  196.9910 C.3   353  VAL353      0.0276
    106  CG1      107.5040   40.0870  195.9960 C.3   353  VAL353      0.0022
    107  CG2      107.8000   38.2250  197.6440 C.3   353  VAL353      0.0022
    108  N        108.7630   42.5180  191.8520 N.3   355  ILE355     -0.1245
    109  CA       107.6680   42.8490  190.9360 C.3   355  ILE355      0.1561
    110  C        108.2020   43.7210  189.7990 C.2   355  ILE355      0.2260
    111  O        108.8290   44.7430  190.0620 O.2   355  ILE355     -0.2867
    112  CB       106.5210   43.6300  191.6360 C.3   355  ILE355      0.0252
    113  CG1      105.9870   42.8670  192.8500 C.3   355  ILE355      0.0019
    114  CG2      105.3670   43.8830  190.6640 C.3   355  ILE355      0.0019
    115  CD1      104.9890   43.6370  193.6870 C.3   355  ILE355      0.0001
@<TRIPOS>BOND
     1    21    19   am
     2    20    19    2
     3    19    18    1
     4    18    15    1
     5   110   111    2
     6   110   109    1
     7   114   112    1
     8     1     2    1
     9   109   112    1
    10   109   108    1
    11    25    24    2
    12    15    14    1
    13    15    16    1
    14   112   113    1
    15    14     8   am
    16    24    23    1
    17    16    17    2
    18    16    22   am
    19    22    23    1
    20     2     5    1
    21     2     3    1
    22     6     3   am
    23     6     7    1
    24     8     9    2
    25     8     7    1
    26   113   115    1
    27    23    26    1
    28     3     4    2
    29     7    10    1
    30    10    11    1
    31    29    30    1
    32    26    27    1
    33    26    28    1
    34    12    11    1
    35    11    13    1
    36    30    33    1
    37    30    31    1
    38    51    49    1
    39    33    34    1
    40    31    32    2
    41   103   104    2
    42   103   102    1
    43    34    35    1
    44    44    38    1
    45    44    43    1
    46    36    35   ar
    47   106   105    1
    48    38    39    1
    49    35    37   ar
    50   102   105    1
    51   102   101    1
    52    95    94    2
    53    49    50    1
    54    49    46    1
    55    43    42    1
    56   105   107    1
    57    45    46    1
    58    39    42    1
    59    39    40    1
    60   101    94   am
    61    46    47    1
    62    94    93    1
    63    97    98    1
    64    97    96    1
    65    40    41    2
    66    98    99    1
    67    99   100    1
    68    96    93    1
    69    93    92    1
    70    47    48    2
    71    47    52   am
    72    67    65    1
    73    92    83   am
    74    65    64    1
    75    52    53    1
    76    83    84    2
    77    83    82    1
    78    60    61    1
    79    88    90   ar
    80    88    86   ar
    81    82    85    1
    82    82    81    1
    83    85    86    1
    84    64    61    1
    85    64    66    1
    86    53    54    1
    87    53    56    1
    88    90    91   ar
    89    61    62    1
    90    58    57    2
    91    86    87   ar
    92    57    59   am
    93    57    56    1
    94    54    55    2
    95    81    79   am
    96    80    79    2
    97    91    89   ar
    98    62    63    2
    99    87    89   ar
   100    79    78    1
   101    78    77    1
   102    68    69    1
   103    69    72    1
   104    69    70    1
   105    75    76    1
   106    75    74    1
   107    72    73    1
   108    73    74    1
   109    70    71    2
