@<TRIPOS>MOLECULE
tmp/5h75D00.pdb
 157 147 0 0 0
SMALL
GASTEIGER

@<TRIPOS>ATOM
      1  N         12.4330   29.9750   32.2470 N.3    20  CYS20      -0.1221
      2  CA        13.4790   28.9680   32.2760 C.3    20  CYS20       0.1808
      3  C         12.9670   27.6610   32.8760 C.2    20  CYS20       0.2602
      4  O         11.8560   27.5650   33.3980 O.2    20  CYS20      -0.2717
      5  CB        14.6950   29.4740   33.0540 C.3    20  CYS20       0.0970
      6  SG        15.5520   30.7700   32.1850 S.3    20  CYS20      -0.0800
      7  N         13.8130   26.6420   32.7970 N.am   21  GLY21      -0.1942
      8  CA        13.4380   25.3070   33.2060 C.3    21  GLY21       0.2014
      9  C         13.4130   25.0840   34.6990 C.2    21  GLY21       0.2640
     10  O         14.2840   24.4070   35.2480 O.2    21  GLY21      -0.2714
     11  N         12.4030   25.6280   35.3590 N.am   22  SER22      -0.1935
     12  CA        12.1710   25.4060   36.7770 C.3    22  SER22       0.2055
     13  C         10.7570   24.8780   36.9470 C.2    22  SER22       0.2642
     14  O          9.8620   25.2130   36.1660 O.2    22  SER22      -0.2714
     15  CB        12.3430   26.7000   37.5810 C.3    22  SER22       0.2130
     16  OG        11.8940   26.5400   38.9190 O.3    22  SER22      -0.2179
     17  N         10.5510   24.0560   37.9780 N.am   23  ILE23      -0.1977
     18  CA         9.2260   23.4670   38.1580 C.3    23  ILE23       0.1596
     19  C          8.1920   24.5500   38.4460 C.2    23  ILE23       0.2287
     20  O          7.0170   24.4090   38.0840 O.2    23  ILE23      -0.2864
     21  CB         9.2510   22.3860   39.2510 C.3    23  ILE23       0.0276
     22  CG1        7.9630   21.5780   39.1980 C.3    23  ILE23       0.0022
     23  CG2        9.4000   22.9990   40.6180 C.3    23  ILE23       0.0022
     24  CD1        7.7630   20.8790   37.8880 C.3    23  ILE23       0.0001
     25  N         12.7380   28.6640   27.2240 N.3    47  THR47      -0.1203
     26  CA        13.7810   27.6830   26.9550 C.3    47  THR47       0.1994
     27  C         13.1490   26.3260   26.6870 C.2    47  THR47       0.2618
     28  O         11.9750   26.0840   26.9900 O.2    47  THR47      -0.2717
     29  CB        14.7570   27.5490   28.1240 C.3    47  THR47       0.1784
     30  OG1       14.0950   26.9420   29.2410 O.3    47  THR47      -0.2211
     31  CG2       15.3220   28.8910   28.5310 C.3    47  THR47       0.0376
     32  N         13.9650   25.4180   26.1570 N.am   48  LYS48      -0.1965
     33  CA        13.4920   24.0700   25.8650 C.3    48  LYS48       0.1728
     34  C         13.0340   23.3380   27.1240 C.2    48  LYS48       0.2616
     35  O         12.0040   22.6540   27.1020 O.2    48  LYS48      -0.2715
     36  CB        14.5780   23.2780   25.1400 C.3    48  LYS48       0.0311
     37  CG        14.5810   23.5100   23.6290 C.3    48  LYS48       0.0038
     38  CD        13.1520   23.4880   23.0540 C.3    48  LYS48       0.0206
     39  CE        12.5260   22.0860   23.0770 C.3    48  LYS48       0.1093
     40  NZ        11.1110   22.0930   22.5950 N.3    48  LYS48      -0.1314
     41  N         13.7650   23.4780   28.2340 N.am   49  THR49      -0.1951
     42  CA        13.3570   22.7970   29.4620 C.3    49  THR49       0.1897
     43  C         12.0210   23.3300   29.9770 C.2    49  THR49       0.2313
     44  O         11.1800   22.5590   30.4550 O.2    49  THR49      -0.2863
     45  CB        14.4320   22.9440   30.5310 C.3    49  THR49       0.1794
     46  OG1       15.6790   22.5660   29.9730 O.3    49  THR49      -0.2208
     47  CG2       14.1370   22.0140   31.7040 C.3    49  THR49       0.0378
     48  N          8.5640   21.1680   30.6470 N.3    53  LEU53      -0.1245
     49  CA         7.7340   21.1880   31.8400 C.3    53  LEU53       0.1561
     50  C          6.3270   21.6490   31.5070 C.2    53  LEU53       0.2260
     51  O          5.3460   20.9990   31.8790 O.2    53  LEU53      -0.2867
     52  CB         8.3640   22.0890   32.9000 C.3    53  LEU53       0.0270
     53  CG         9.6740   21.5560   33.4590 C.3    53  LEU53       0.0019
     54  CD1       10.3100   22.5530   34.4120 C.3    53  LEU53       0.0001
     55  CD2        9.3860   20.2670   34.1600 C.3    53  LEU53       0.0001
     56  N         12.0400   28.2950   20.7790 N.3    69  GLU69      -0.1245
     57  CA        13.3160   28.2020   20.0940 C.3    69  GLU69       0.1567
     58  C         13.2480   27.3420   18.8350 C.2    69  GLU69       0.2260
     59  O         14.2860   26.9560   18.3010 O.2    69  GLU69      -0.2867
     60  CB        14.3750   27.6790   21.0670 C.3    69  GLU69       0.0388
     61  CG        15.7480   28.2350   20.8370 C.3    69  GLU69       0.1160
     62  CD        16.6580   28.0030   22.0130 C.2    69  GLU69       0.3649
     63  OE1       17.8080   27.5580   21.8010 O.co2  69  GLU69      -0.2457
     64  OE2       16.2200   28.2580   23.1530 O.co2  69  GLU69      -0.2457
     65  N         16.8150   30.2240   36.1670 N.3    87  THR87      -0.1203
     66  CA        17.5960   29.0990   36.6590 C.3    87  THR87       0.1994
     67  C         19.0200   29.5400   36.9520 C.2    87  THR87       0.2618
     68  O         19.4930   30.5630   36.4560 O.2    87  THR87      -0.2717
     69  CB        17.6570   27.9740   35.6180 C.3    87  THR87       0.1784
     70  OG1       18.2010   28.4980   34.4000 O.3    87  THR87      -0.2211
     71  CG2       16.2880   27.3630   35.3440 C.3    87  THR87       0.0376
     72  N         19.7280   28.7100   37.7200 N.am   88  ALA88      -0.1965
     73  CA        21.1520   28.9430   37.9300 C.3    88  ALA88       0.1728
     74  C         21.8950   29.0120   36.6050 C.2    88  ALA88       0.2616
     75  O         22.8210   29.8220   36.4520 O.2    88  ALA88      -0.2715
     76  CB        21.7490   27.8260   38.7840 C.3    88  ALA88       0.0334
     77  N         21.4740   28.1950   35.6330 N.am   89  ASN89      -0.1958
     78  CA        22.1110   28.1700   34.3210 C.3    89  ASN89       0.1819
     79  C         21.9600   29.5050   33.5950 C.2    89  ASN89       0.2621
     80  O         22.9320   30.0310   33.0440 O.2    89  ASN89      -0.2715
     81  CB        21.5290   27.0160   33.5020 C.3    89  ASN89       0.1195
     82  CG        21.9350   27.0560   32.0470 C.2    89  ASN89       0.2630
     83  OD1       21.0840   27.0160   31.1650 O.2    89  ASN89      -0.2716
     84  ND2       23.2320   27.1280   31.7870 N.am   89  ASN89      -0.0877
     85  N         20.7530   30.0840   33.5910 N.am   90  ILE90      -0.1977
     86  CA        20.5960   31.3510   32.8790 C.3    90  ILE90       0.1596
     87  C         21.4310   32.4380   33.5510 C.2    90  ILE90       0.2287
     88  O         21.9770   33.3220   32.8780 O.2    90  ILE90      -0.2864
     89  CB        19.1040   31.7430   32.7720 C.3    90  ILE90       0.0276
     90  CG1       18.8010   32.3550   31.4060 C.3    90  ILE90       0.0022
     91  CG2       18.6930   32.7300   33.8380 C.3    90  ILE90       0.0022
     92  CD1       19.0160   31.3600   30.2790 C.3    90  ILE90       0.0001
     93  N         25.0500   31.8600   32.2850 N.3    93  GLN93      -0.1245
     94  CA        25.2430   32.3340   30.9260 C.3    93  GLN93       0.1566
     95  C         25.2820   33.8480   30.8800 C.2    93  GLN93       0.2260
     96  O         26.2090   34.4370   30.3090 O.2    93  GLN93      -0.2867
     97  CB        24.1440   31.8160   30.0140 C.3    93  GLN93       0.0367
     98  CG        24.2170   30.3490   29.6910 C.3    93  GLN93       0.0905
     99  CD        23.1730   30.0020   28.6540 C.2    93  GLN93       0.2608
    100  OE1       23.3730   30.2230   27.4540 O.2    93  GLN93      -0.2717
    101  NE2       22.0310   29.5030   29.1070 N.am   93  GLN93      -0.0878
    102  N         23.4530   30.9350   24.5060 N.3   100  MET100     -0.1230
    103  CA        23.1620   29.7170   23.7660 C.3   100  MET100      0.1702
    104  C         21.6890   29.4410   23.5580 C.2   100  MET100      0.2592
    105  O         21.3520   28.6200   22.7040 O.2   100  MET100     -0.2718
    106  CB        23.7770   28.5060   24.4650 C.3   100  MET100      0.0401
    107  CG        25.2460   28.5070   24.3680 C.3   100  MET100      0.0596
    108  SD        25.5980   28.2410   22.6100 S.3   100  MET100     -0.1393
    109  CE        27.1120   27.3810   22.8320 C.3   100  MET100      0.0692
    110  N         20.8100   30.0980   24.2910 N.am  101  ASN101     -0.1974
    111  CA        19.3990   30.0060   23.9980 C.3   101  ASN101      0.1688
    112  C         18.8610   31.4130   23.7990 C.2   101  ASN101      0.2292
    113  O         19.5440   32.4060   24.0700 O.2   101  ASN101     -0.2864
    114  CB        18.6640   29.2530   25.1060 C.3   101  ASN101      0.1181
    115  CG        18.9230   29.8180   26.4680 C.2   101  ASN101      0.2629
    116  OD1       18.9900   31.0380   26.6500 O.2   101  ASN101     -0.2716
    117  ND2       19.0720   28.9280   27.4510 N.am  101  ASN101     -0.0877
    118  N         15.0750   31.2980   41.0020 N.3   119  ASN119     -0.1225
    119  CA        14.3120   30.2980   41.7320 C.3   119  ASN119      0.1785
    120  C         15.0670   28.9760   41.6860 C.2   119  ASN119      0.2597
    121  O         15.2770   28.4190   40.6060 O.2   119  ASN119     -0.2718
    122  CB        12.9130   30.1460   41.1320 C.3   119  ASN119      0.1169
    123  CG        12.0700   29.1280   41.8750 C.2   119  ASN119      0.2627
    124  OD1       11.4730   28.2380   41.2820 O.2   119  ASN119     -0.2716
    125  ND2       12.0400   29.2450   43.1760 N.am  119  ASN119     -0.0877
    126  N         15.4910   28.4770   42.8420 N.am  120  MET120     -0.1965
    127  CA        16.1800   27.1940   42.8980 C.3   120  MET120      0.1736
    128  C         16.0870   26.6820   44.3250 C.2   120  MET120      0.2616
    129  O         15.6600   27.4030   45.2300 O.2   120  MET120     -0.2715
    130  CB        17.6300   27.3200   42.4410 C.3   120  MET120      0.0427
    131  CG        18.4680   28.2120   43.3280 C.3   120  MET120      0.0599
    132  SD        20.0100   28.6750   42.5360 S.3   120  MET120     -0.1393
    133  CE        19.3860   29.7410   41.2430 C.3   120  MET120      0.0692
    134  N         16.4610   25.4210   44.5250 N.am  121  ASN121     -0.1972
    135  CA        16.4610   24.9410   45.8970 C.3   121  ASN121      0.1688
    136  C         17.6320   25.5550   46.6550 C.2   121  ASN121      0.2292
    137  O         18.5900   26.0600   46.0670 O.2   121  ASN121     -0.2864
    138  CB        16.4720   23.4070   45.9800 C.3   121  ASN121      0.1181
    139  CG        17.7000   22.7630   45.3710 C.2   121  ASN121      0.2629
    140  OD1       18.8030   23.2880   45.4330 O.2   121  ASN121     -0.2716
    141  ND2       17.5100   21.5850   44.8130 N.am  121  ASN121     -0.0877
    142  N         21.3750   24.5220   45.5920 N.3   124  MET124     -0.1245
    143  CA        22.0270   25.1990   44.4760 C.3   124  MET124      0.1570
    144  C         22.2980   26.6630   44.7880 C.2   124  MET124      0.2261
    145  O         23.3120   27.2120   44.3480 O.2   124  MET124     -0.2867
    146  CB        21.1810   25.0760   43.2090 C.3   124  MET124      0.0387
    147  CG        20.9510   23.6490   42.7290 C.3   124  MET124      0.0595
    148  SD        19.9150   23.5750   41.2540 S.3   124  MET124     -0.1393
    149  CE        20.9900   24.4120   40.1250 C.3   124  MET124      0.0692
    150  N         11.0740   17.9880   44.1950 N.3   155  ILE155     -0.1245
    151  CA        10.9400   17.0610   43.0770 C.3   155  ILE155      0.1561
    152  C         11.8990   15.8850   43.2030 C.2   155  ILE155      0.2260
    153  O         11.5390   14.7380   42.9100 O.2   155  ILE155     -0.2867
    154  CB        11.1900   17.8090   41.7590 C.3   155  ILE155      0.0252
    155  CG1        9.9630   18.5860   41.3440 C.3   155  ILE155      0.0019
    156  CG2       11.6200   16.8660   40.6520 C.3   155  ILE155      0.0019
    157  CD1       10.1640   19.1490   40.0040 C.3   155  ILE155      0.0001
@<TRIPOS>BOND
     1    59    58    2
     2    58    57    1
     3    57    56    1
     4    57    60    1
     5    61    60    1
     6    61    62    1
     7    63    62   ar
     8    62    64   ar
     9    40    39    1
    10   108   109    1
    11   108   107    1
    12   105   104    2
    13    38    39    1
    14    38    37    1
    15   104   103    1
    16   104   110   am
    17    37    36    1
    18   103   106    1
    19   103   102    1
    20   112   111    1
    21   112   113    2
    22   111   110    1
    23   111   114    1
    24   107   106    1
    25   114   115    1
    26    36    33    1
    27    33    32    1
    28    33    34    1
    29    32    27   am
    30   115   116    2
    31   115   117   am
    32    27    26    1
    33    27    28    2
    34    26    25    1
    35    26    29    1
    36    35    34    2
    37    34    41   am
    38   100    99    2
    39    29    31    1
    40    29    30    1
    41    41    42    1
    42    99   101   am
    43    99    98    1
    44    42    43    1
    45    42    45    1
    46    98    97    1
    47    46    45    1
    48    43    44    2
    49    97    94    1
    50    92    90    1
    51    96    95    2
    52    45    47    1
    53    48    49    1
    54    95    94    1
    55    94    93    1
    56    83    82    2
    57    90    89    1
    58    50    49    1
    59    50    51    2
    60    84    82   am
    61    49    52    1
    62    82    81    1
    63     6     5    1
    64     1     2    1
    65     2     3    1
    66     2     5    1
    67    89    86    1
    68    89    91    1
    69     7     3   am
    70     7     8    1
    71     3     4    2
    72    88    87    2
    73    86    87    1
    74    86    85    1
    75    52    53    1
    76    80    79    2
    77     8     9    1
    78    53    55    1
    79    53    54    1
    80    81    78    1
    81    85    79   am
    82    79    78    1
    83    78    77    1
    84    70    69    1
    85     9    10    2
    86     9    11   am
    87    71    69    1
    88    11    12    1
    89    69    66    1
    90    77    74   am
    91    14    13    2
    92    65    66    1
    93    75    74    2
    94    68    67    2
    95    74    73    1
    96    66    67    1
    97    12    13    1
    98    12    15    1
    99    13    17   am
   100    67    72   am
   101    15    16    1
   102    72    73    1
   103    24    22    1
   104    73    76    1
   105    17    18    1
   106    20    19    2
   107    18    19    1
   108    18    21    1
   109    22    21    1
   110    21    23    1
   111   157   155    1
   112   149   148    1
   113   121   120    2
   114   156   154    1
   115   118   119    1
   116   122   119    1
   117   122   123    1
   118   133   132    1
   119   148   147    1
   120   124   123    2
   121   155   154    1
   122   120   119    1
   123   120   126   am
   124   154   151    1
   125   123   125   am
   126   130   127    1
   127   130   131    1
   128   132   131    1
   129   147   146    1
   130   126   127    1
   131   127   128    1
   132   153   152    2
   133   151   152    1
   134   151   150    1
   135   146   143    1
   136   128   134   am
   137   128   129    2
   138   145   144    2
   139   143   144    1
   140   143   142    1
   141   134   135    1
   142   141   139   am
   143   139   140    2
   144   139   138    1
   145   135   138    1
   146   135   136    1
   147   137   136    2
