@<TRIPOS>MOLECULE
tmp/5h7hA01.pdb
 80 74 0 0 0
SMALL
GASTEIGER

@<TRIPOS>ATOM
      1  N         22.8190  -15.6310   -2.9400 N.3    36  VAL36      -0.1245
      2  CA        23.2430  -15.7860   -1.5610 C.3    36  VAL36       0.1561
      3  C         22.8080  -17.1680   -1.0810 C.2    36  VAL36       0.2260
      4  O         21.6290  -17.5190   -1.1940 O.2    36  VAL36      -0.2867
      5  CB        22.6340  -14.7070   -0.6520 C.3    36  VAL36       0.0252
      6  CG1       23.1930  -14.8340    0.7680 C.3    36  VAL36       0.0019
      7  CG2       22.9190  -13.3310   -1.2200 C.3    36  VAL36       0.0019
      8  N         22.2720  -19.4120    2.1360 N.3    38  VAL38      -0.1245
      9  CA        22.0550  -19.2660    3.5600 C.3    38  VAL38       0.1561
     10  C         22.1750  -20.6350    4.2560 C.2    38  VAL38       0.2260
     11  O         21.4820  -21.6020    3.8970 O.2    38  VAL38      -0.2867
     12  CB        20.6890  -18.6040    3.8610 C.3    38  VAL38       0.0252
     13  CG1       20.5020  -18.3660    5.3570 C.3    38  VAL38       0.0019
     14  CG2       20.5570  -17.2880    3.1020 C.3    38  VAL38       0.0019
     15  N         25.3640  -16.1890    5.7680 N.3    43  GLN43      -0.1245
     16  CA        25.1200  -15.8990    4.3680 C.3    43  GLN43       0.1566
     17  C         26.4310  -16.0150    3.5990 C.2    43  GLN43       0.2260
     18  O         27.4760  -15.5830    4.0880 O.2    43  GLN43      -0.2867
     19  CB        24.5840  -14.4780    4.2150 C.3    43  GLN43       0.0367
     20  CG        23.2390  -14.2470    4.8830 C.3    43  GLN43       0.0905
     21  CD        22.6490  -12.8760    4.5840 C.2    43  GLN43       0.2608
     22  OE1       23.0670  -12.1860    3.6590 O.2    43  GLN43      -0.2717
     23  NE2       21.6700  -12.4770    5.3740 N.am   43  GLN43      -0.0878
     24  N         27.8690  -15.1950   -0.3600 N.3    45  ARG45      -0.1245
     25  CA        27.5850  -14.6930   -1.7020 C.3    45  ARG45       0.1563
     26  C         28.4240  -15.4920   -2.7110 C.2    45  ARG45       0.2260
     27  O         29.5550  -15.8750   -2.4240 O.2    45  ARG45      -0.2867
     28  CB        27.8180  -13.1770   -1.7840 C.3    45  ARG45       0.0307
     29  CG        26.8890  -12.3480   -0.8580 C.3    45  ARG45       0.0489
     30  CD        26.6160  -10.9180   -1.3490 C.3    45  ARG45       0.2205
     31  NE        26.1340  -10.9610   -2.7430 N.pl3  45  ARG45      -0.0865
     32  CZ        24.8640  -10.9140   -3.1630 C.cat  45  ARG45       0.5346
     33  NH1       23.8510  -10.7070   -2.3240 N.pl3  45  ARG45       0.1354
     34  NH2       24.6050  -11.0270   -4.4680 N.pl3  45  ARG45       0.1354
     35  N         13.4310  -22.8910   -9.6590 N.3    67  LYS67      -0.1245
     36  CA        14.4430  -22.4080   -8.7330 C.3    67  LYS67       0.1561
     37  C         15.5860  -21.6430   -9.4080 C.2    67  LYS67       0.2260
     38  O         16.3320  -20.9740   -8.7190 O.2    67  LYS67      -0.2867
     39  CB        15.0220  -23.5730   -7.9360 C.3    67  LYS67       0.0271
     40  CG        14.0150  -24.1850   -6.9780 C.3    67  LYS67       0.0035
     41  CD        14.3840  -25.5830   -6.5250 C.3    67  LYS67       0.0206
     42  CE        13.1600  -26.2040   -5.8590 C.3    67  LYS67       0.1093
     43  NZ        13.4170  -27.5800   -5.4030 N.3    67  LYS67      -0.1314
     44  N         16.0160  -17.8590   -8.5560 N.3    70  LEU70      -0.1231
     45  CA        16.0170  -17.4180   -7.1650 C.3    70  LEU70       0.1693
     46  C         17.3630  -16.7730   -6.8610 C.2    70  LEU70       0.2593
     47  O         18.3900  -17.2790   -7.3030 O.2    70  LEU70      -0.2718
     48  CB        15.8000  -18.5910   -6.2260 C.3    70  LEU70       0.0284
     49  CG        14.4930  -19.3570   -6.3610 C.3    70  LEU70       0.0019
     50  CD1       14.4720  -20.5170   -5.3900 C.3    70  LEU70       0.0001
     51  CD2       13.3030  -18.4390   -6.1210 C.3    70  LEU70       0.0001
     52  N         17.3490  -15.6640   -6.1240 N.am   71  SER71      -0.1938
     53  CA        18.5970  -14.9980   -5.6960 C.3    71  SER71       0.2055
     54  C         19.0580  -15.3800   -4.2760 C.2    71  SER71       0.2643
     55  O         20.0960  -14.9180   -3.8160 O.2    71  SER71      -0.2714
     56  CB        18.4560  -13.4770   -5.8490 C.3    71  SER71       0.2130
     57  OG        17.3590  -13.0290   -5.1060 O.3    71  SER71      -0.2179
     58  N         18.2860  -16.2240   -3.5970 N.am   72  VAL72      -0.1963
     59  CA        18.5880  -16.7180   -2.2630 C.3    72  VAL72       0.1727
     60  C         18.1990  -18.2040   -2.2190 C.2    72  VAL72       0.2616
     61  O         17.0880  -18.5920   -2.6290 O.2    72  VAL72      -0.2715
     62  CB        17.8160  -15.9570   -1.1540 C.3    72  VAL72       0.0290
     63  CG1       18.2550  -16.4230    0.2400 C.3    72  VAL72       0.0023
     64  CG2       18.0160  -14.4520   -1.2920 C.3    72  VAL72       0.0023
     65  N         19.1260  -19.0280   -1.7470 N.am   73  ILE73      -0.1963
     66  CA        18.8850  -20.4480   -1.5570 C.3    73  ILE73       0.1727
     67  C         19.1830  -20.7640   -0.1090 C.2    73  ILE73       0.2616
     68  O         20.2880  -20.4580    0.4000 O.2    73  ILE73      -0.2715
     69  CB        19.7650  -21.3320   -2.4740 C.3    73  ILE73       0.0290
     70  CG1       19.5130  -21.0400   -3.9510 C.3    73  ILE73       0.0022
     71  CG2       19.5270  -22.8070   -2.1760 C.3    73  ILE73       0.0023
     72  CD1       18.1130  -21.3330   -4.4860 C.3    73  ILE73       0.0001
     73  N         18.2080  -21.4020    0.5450 N.am   74  ASN74      -0.1972
     74  CA        18.3580  -21.8250    1.9310 C.3    74  ASN74       0.1688
     75  C         18.7140  -23.2800    1.9950 C.2    74  ASN74       0.2292
     76  O         17.9740  -24.1030    1.4950 O.2    74  ASN74      -0.2864
     77  CB        17.0930  -21.5590    2.7360 C.3    74  ASN74       0.1181
     78  CG        17.3070  -20.4910    3.7480 C.2    74  ASN74       0.2629
     79  OD1       17.9280  -20.7320    4.8010 O.2    74  ASN74      -0.2716
     80  ND2       16.8600  -19.2760    3.4260 N.am   74  ASN74      -0.0877
@<TRIPOS>BOND
     1    35    36    1
     2    37    36    1
     3    37    38    2
     4    36    39    1
     5    44    45    1
     6    39    40    1
     7    47    46    2
     8    45    46    1
     9    45    48    1
    10    40    41    1
    11    46    52   am
    12    41    42    1
    13    49    48    1
    14    49    51    1
    15    49    50    1
    16    52    53    1
    17    42    43    1
    18    56    53    1
    19    56    57    1
    20    53    54    1
    21    72    70    1
    22    34    32    1
    23    54    55    2
    24    54    58   am
    25    70    69    1
    26    58    59    1
    27    32    31    2
    28    32    33    1
    29     1     2    1
    30    31    30    1
    31    26    27    2
    32    26    25    1
    33    61    60    2
    34    69    71    1
    35    69    66    1
    36    59    60    1
    37    59    62    1
    38    60    65   am
    39    28    25    1
    40    28    29    1
    41    65    66    1
    42    25    24    1
    43     2     3    1
    44     2     5    1
    45    66    67    1
    46    30    29    1
    47    64    62    1
    48     7     5    1
    49     4     3    2
    50    62    63    1
    51     5     6    1
    52    67    68    2
    53    67    73   am
    54    73    74    1
    55    76    75    2
    56    74    75    1
    57    74    77    1
    58     8     9    1
    59    77    78    1
    60    14    12    1
    61    80    78   am
    62     9    12    1
    63     9    10    1
    64    17    18    2
    65    17    16    1
    66    22    21    2
    67    78    79    2
    68    12    13    1
    69    11    10    2
    70    19    16    1
    71    19    20    1
    72    16    15    1
    73    21    20    1
    74    21    23   am
