@<TRIPOS>MOLECULE
tmp/5h7kA00.pdb
 160 159 0 0 0
SMALL
GASTEIGER

@<TRIPOS>ATOM
      1  N        -30.7350   16.8630  -16.7170 N.3    26  ALA26      -0.1231
      2  CA       -32.1140   16.4280  -16.9360 C.3    26  ALA26       0.1694
      3  C        -33.1260   17.3410  -16.2580 C.2    26  ALA26       0.2592
      4  O        -32.8390   17.9600  -15.2280 O.2    26  ALA26      -0.2718
      5  CB       -32.2930   15.0200  -16.4170 C.3    26  ALA26       0.0304
      6  N        -34.3190   17.4000  -16.8330 N.am   27  HIS27      -0.1962
      7  CA       -35.4870   17.9110  -16.1290 C.3    27  HIS27       0.1787
      8  C        -35.6820   17.1060  -14.8370 C.2    27  HIS27       0.2620
      9  O        -35.3480   15.9210  -14.7810 O.2    27  HIS27      -0.2715
     10  CB       -36.7090   17.7990  -17.0460 C.3    27  HIS27       0.0785
     11  CG       -37.9900   18.3010  -16.4530 C.ar   27  HIS27       0.0821
     12  ND1      -38.4620   19.5790  -16.6760 N.ar   27  HIS27      -0.2267
     13  CD2      -38.9330   17.6790  -15.7070 C.ar   27  HIS27       0.1154
     14  CE1      -39.6260   19.7300  -16.0700 C.ar   27  HIS27       0.1986
     15  NE2      -39.9400   18.5920  -15.4810 N.ar   27  HIS27      -0.2212
     16  N        -36.2260   17.7360  -13.7980 N.am   28  ILE28      -0.1963
     17  CA       -36.4070   17.0600  -12.5170 C.3    28  ILE28       0.1727
     18  C        -37.1580   15.7200  -12.6720 C.2    28  ILE28       0.2616
     19  O        -38.1260   15.6090  -13.4420 O.2    28  ILE28      -0.2715
     20  CB       -37.1460   17.9880  -11.5020 C.3    28  ILE28       0.0290
     21  CG1      -37.1950   17.3490  -10.1120 C.3    28  ILE28       0.0022
     22  CG2      -38.5370   18.3560  -12.0150 C.3    28  ILE28       0.0023
     23  CD1      -37.4010   18.3660   -8.9710 C.3    28  ILE28       0.0001
     24  N        -36.6390   14.7110  -11.9700 N.am   29  ASP29      -0.1957
     25  CA       -37.1840   13.3510  -11.9130 C.3    29  ASP29       0.1840
     26  C        -37.0060   12.5360  -13.1890 C.2    29  ASP29       0.2622
     27  O        -37.4600   11.3960  -13.2550 O.2    29  ASP29      -0.2715
     28  CB       -38.6770   13.3780  -11.5470 C.3    29  ASP29       0.1450
     29  CG       -38.9190   13.8170  -10.1160 C.2    29  ASP29       0.3671
     30  OD1      -38.0360   13.5900   -9.2620 O.co2  29  ASP29      -0.2456
     31  OD2      -39.9900   14.3940   -9.8430 O.co2  29  ASP29      -0.2456
     32  N        -36.3270   13.0740  -14.1920 N.am   30  HIS30      -0.1959
     33  CA       -36.1710   12.2990  -15.4180 C.3    30  HIS30       0.1787
     34  C        -35.1090   11.2020  -15.3140 C.2    30  HIS30       0.2621
     35  O        -35.1500   10.2440  -16.0870 O.2    30  HIS30      -0.2715
     36  CB       -35.8750   13.2230  -16.5980 C.3    30  HIS30       0.0785
     37  CG       -37.1100   13.8690  -17.1490 C.ar   30  HIS30       0.0821
     38  ND1      -37.2060   14.3160  -18.4450 N.ar   30  HIS30      -0.2267
     39  CD2      -38.3160   14.1010  -16.5740 C.ar   30  HIS30       0.1154
     40  CE1      -38.4140   14.8190  -18.6460 C.ar   30  HIS30       0.1986
     41  NE2      -39.1060   14.6990  -17.5260 N.ar   30  HIS30      -0.2212
     42  N        -34.1810   11.3190  -14.3650 N.am   31  GLY31      -0.1940
     43  CA       -33.2750   10.2150  -14.0840 C.3    31  GLY31       0.2014
     44  C        -31.7860   10.5140  -14.0140 C.2    31  GLY31       0.2639
     45  O        -30.9780    9.5980  -14.1700 O.2    31  GLY31      -0.2714
     46  N        -31.4160   11.7710  -13.7850 N.am   32  LYS32      -0.1963
     47  CA       -30.0050   12.1400  -13.6700 C.3    32  LYS32       0.1728
     48  C        -29.2800   11.3410  -12.5970 C.2    32  LYS32       0.2617
     49  O        -28.2210   10.7630  -12.8610 O.2    32  LYS32      -0.2715
     50  CB       -29.8670   13.6440  -13.3780 C.3    32  LYS32       0.0311
     51  CG       -28.4480   14.1030  -12.9690 C.3    32  LYS32       0.0038
     52  CD       -28.4580   15.5980  -12.6920 C.3    32  LYS32       0.0206
     53  CE       -27.3450   16.0170  -11.7430 C.3    32  LYS32       0.1093
     54  NZ       -26.0400   15.8440  -12.3820 N.3    32  LYS32      -0.1314
     55  N        -29.8380   11.2830  -11.3940 N.am   33  THR33      -0.1937
     56  CA       -29.1350   10.6260  -10.3020 C.3    33  THR33       0.2028
     57  C        -29.0970    9.1050  -10.4600 C.2    33  THR33       0.2642
     58  O        -28.0610    8.4730  -10.2130 O.2    33  THR33      -0.2714
     59  CB       -29.7620   11.0030   -8.9510 C.3    33  THR33       0.1808
     60  OG1      -29.5320   12.3940   -8.7200 O.3    33  THR33      -0.2208
     61  CG2      -29.1200   10.2200   -7.8240 C.3    33  THR33       0.0379
     62  N        -30.2160    8.5200  -10.8840 N.am   34  THR34      -0.1950
     63  CA       -30.2720    7.0730  -11.0700 C.3    34  THR34       0.1897
     64  C        -29.2970    6.6440  -12.1590 C.2    34  THR34       0.2313
     65  O        -28.5660    5.6570  -11.9910 O.2    34  THR34      -0.2863
     66  CB       -31.6860    6.5840  -11.4280 C.3    34  THR34       0.1794
     67  OG1      -32.6110    7.0140  -10.4210 O.3    34  THR34      -0.2208
     68  CG2      -31.7270    5.0510  -11.4990 C.3    34  THR34       0.0378
     69  N        -27.1040    3.9430   -4.1950 N.3    52  ARG52      -0.1245
     70  CA       -28.0390    5.0600   -4.3250 C.3    52  ARG52       0.1563
     71  C        -27.5320    6.3030   -3.6040 C.2    52  ARG52       0.2260
     72  O        -27.2500    6.2750   -2.4020 O.2    52  ARG52      -0.2867
     73  CB       -29.4250    4.7000   -3.7890 C.3    52  ARG52       0.0307
     74  CG       -30.3800    5.8990   -3.7540 C.3    52  ARG52       0.0489
     75  CD       -31.0930    6.1100   -5.0810 C.3    52  ARG52       0.2205
     76  NE       -31.6350    7.4600   -5.2420 N.pl3  52  ARG52      -0.0865
     77  CZ       -32.1500    7.9220   -6.3800 C.cat  52  ARG52       0.5346
     78  NH1      -32.1850    7.1440   -7.4560 N.pl3  52  ARG52       0.1354
     79  NH2      -32.6250    9.1590   -6.4510 N.pl3  52  ARG52       0.1354
     80  N        -31.6680   20.0700  -10.3750 N.3    82  HIS82      -0.1241
     81  CA       -32.9420   20.6140   -9.8880 C.3    82  HIS82       0.1621
     82  C        -32.9310   22.1260   -9.6730 C.2    82  HIS82       0.2264
     83  O        -33.6950   22.6450   -8.8600 O.2    82  HIS82      -0.2867
     84  CB       -33.3540   19.9290   -8.5840 C.3    82  HIS82       0.0745
     85  CG       -33.5830   18.4570   -8.7160 C.ar   82  HIS82       0.0817
     86  ND1      -33.9700   17.6700   -7.6530 N.ar   82  HIS82      -0.2268
     87  CD2      -33.4770   17.6260   -9.7820 C.ar   82  HIS82       0.1154
     88  CE1      -34.0940   16.4180   -8.0580 C.ar   82  HIS82       0.1986
     89  NE2      -33.7960   16.3640   -9.3450 N.ar   82  HIS82      -0.2212
     90  N        -34.7970    7.7170  -21.0530 N.3   132  ASN132     -0.1225
     91  CA       -34.9450    6.9110  -19.8460 C.3   132  ASN132      0.1785
     92  C        -36.3860    6.4270  -19.5930 C.2   132  ASN132      0.2597
     93  O        -37.3280    6.8850  -20.2350 O.2   132  ASN132     -0.2718
     94  CB       -34.4510    7.7310  -18.6390 C.3   132  ASN132      0.1169
     95  CG       -34.1790    6.8750  -17.4180 C.2   132  ASN132      0.2627
     96  OD1      -33.8140    5.6990  -17.5300 O.2   132  ASN132     -0.2716
     97  ND2      -34.3360    7.4700  -16.2340 N.am  132  ASN132     -0.0877
     98  N        -36.5280    5.4940  -18.6520 N.am  133  LYS133     -0.1980
     99  CA       -37.8230    4.9970  -18.1720 C.3   133  LYS133      0.1596
    100  C        -38.6040    4.2580  -19.2520 C.2   133  LYS133      0.2287
    101  O        -39.8420    4.2560  -19.2470 O.2   133  LYS133     -0.2864
    102  CB       -38.6730    6.1470  -17.5980 C.3   133  LYS133      0.0298
    103  CG       -37.9300    6.9800  -16.5460 C.3   133  LYS133      0.0038
    104  CD       -38.9080    7.7480  -15.6720 C.3   133  LYS133      0.0206
    105  CE       -38.1960    8.6120  -14.6370 C.3   133  LYS133      0.1093
    106  NZ       -39.1710    9.2330  -13.6670 N.3   133  LYS133     -0.1314
    107  N        -38.9830    1.2430  -19.4650 N.3   135  ASP135     -0.1225
    108  CA       -39.7500    0.2260  -18.7430 C.3   135  ASP135      0.1805
    109  C        -41.1940    0.6810  -18.5440 C.2   135  ASP135      0.2597
    110  O        -42.1090   -0.1360  -18.5870 O.2   135  ASP135     -0.2718
    111  CB       -39.1060   -0.0930  -17.3960 C.3   135  ASP135      0.1424
    112  CG       -39.0420    1.1100  -16.4880 C.2   135  ASP135      0.3668
    113  OD1      -38.2660    2.0400  -16.8020 O.co2 135  ASP135     -0.2456
    114  OD2      -39.7720    1.1310  -15.4780 O.co2 135  ASP135     -0.2456
    115  N        -41.3970    1.9800  -18.3330 N.am  136  ARG136     -0.1979
    116  CA       -42.7640    2.4870  -18.1540 C.3   136  ARG136      0.1597
    117  C        -43.5780    2.4610  -19.4460 C.2   136  ARG136      0.2287
    118  O        -44.7950    2.2600  -19.4090 O.2   136  ARG136     -0.2864
    119  CB       -42.7420    3.9040  -17.5830 C.3   136  ARG136      0.0334
    120  CG       -42.1150    3.9440  -16.2080 C.3   136  ARG136      0.0492
    121  CD       -42.2240    5.3110  -15.5750 C.3   136  ARG136      0.2205
    122  NE       -43.6110    5.7560  -15.4900 N.pl3 136  ARG136     -0.0865
    123  CZ       -43.9630    7.0020  -15.2120 C.cat 136  ARG136      0.5346
    124  NH1      -43.0320    7.9190  -14.9760 N.pl3 136  ARG136      0.1354
    125  NH2      -45.2440    7.3300  -15.1660 N.pl3 136  ARG136      0.1354
    126  N        -33.6060    1.9130  -19.4160 N.3   188  SER188     -0.1202
    127  CA       -34.0680    2.1570  -18.0690 C.3   188  SER188      0.2020
    128  C        -32.8740    2.2010  -17.1300 C.2   188  SER188      0.2619
    129  O        -32.2290    1.1820  -16.8810 O.2   188  SER188     -0.2717
    130  CB       -35.0490    1.0690  -17.6260 C.3   188  SER188      0.2103
    131  OG       -35.2800    1.1510  -16.2310 O.3   188  SER188     -0.2182
    132  N        -32.5720    3.3830  -16.6170 N.am  189  ALA189     -0.1965
    133  CA       -31.5110    3.4960  -15.6290 C.3   189  ALA189      0.1728
    134  C        -31.8330    2.6490  -14.4000 C.2   189  ALA189      0.2616
    135  O        -30.9540    1.9840  -13.8540 O.2   189  ALA189     -0.2715
    136  CB       -31.3010    4.9620  -15.2400 C.3   189  ALA189      0.0334
    137  N        -33.1010    2.6480  -13.9890 N.am  190  TYR190     -0.1960
    138  CA       -33.4970    1.9300  -12.7760 C.3   190  TYR190      0.1771
    139  C        -33.2920    0.4200  -12.9050 C.2   190  TYR190      0.2619
    140  O        -32.8660   -0.2450  -11.9600 O.2   190  TYR190     -0.2715
    141  CB       -34.9620    2.2200  -12.4220 C.3   190  TYR190      0.0574
    142  CG       -35.3490    1.6420  -11.0800 C.ar  190  TYR190     -0.0198
    143  CD1      -35.1000    2.3370   -9.9070 C.ar  190  TYR190     -0.0009
    144  CD2      -35.9420    0.3900  -10.9900 C.ar  190  TYR190     -0.0009
    145  CE1      -35.4440    1.8010   -8.6760 C.ar  190  TYR190      0.0417
    146  CE2      -36.2850   -0.1500   -9.7710 C.ar  190  TYR190      0.0417
    147  CZ       -36.0390    0.5610   -8.6200 C.ar  190  TYR190      0.1957
    148  OH       -36.3860    0.0110   -7.4050 O.3   190  TYR190     -0.2866
    149  N        -33.5940   -0.1100  -14.0800 N.am  191  TYR191     -0.1974
    150  CA       -33.4800   -1.5440  -14.3070 C.3   191  TYR191      0.1639
    151  C        -32.1990   -1.8980  -15.0550 C.2   191  TYR191      0.2290
    152  O        -32.0490   -3.0180  -15.5630 O.2   191  TYR191     -0.2864
    153  CB       -34.7190   -2.0610  -15.0560 C.3   191  TYR191      0.0560
    154  CG       -35.9570   -2.0610  -14.1850 C.ar  191  TYR191     -0.0198
    155  CD1      -36.1030   -3.0040  -13.1740 C.ar  191  TYR191     -0.0009
    156  CD2      -36.9540   -1.1100  -14.3520 C.ar  191  TYR191     -0.0009
    157  CE1      -37.2260   -3.0080  -12.3550 C.ar  191  TYR191      0.0417
    158  CE2      -38.0890   -1.1090  -13.5370 C.ar  191  TYR191      0.0417
    159  CZ       -38.2070   -2.0610  -12.5450 C.ar  191  TYR191      0.1957
    160  OH       -39.3180   -2.0750  -11.7250 O.3   191  TYR191     -0.2866
@<TRIPOS>BOND
     1    90    91    1
     2    93    92    2
     3    91    92    1
     4    91    94    1
     5    92    98   am
     6   107   108    1
     7   117   118    2
     8   117   116    1
     9   126   127    1
    10   100   101    2
    11   100    99    1
    12   108   109    1
    13   108   111    1
    14    98    99    1
    15    40    38   ar
    16    40    41   ar
    17    94    95    1
    18   110   109    2
    19   109   115   am
    20    38    37   ar
    21   115   116    1
    22    99   102    1
    23   116   119    1
    24   127   130    1
    25   127   128    1
    26   130   131    1
    27   102   103    1
    28   119   120    1
    29    96    95    2
    30    41    39   ar
    31    95    97   am
    32   111   112    1
    33    37    36    1
    34    37    39   ar
    35   128   129    2
    36   128   132   am
    37    10    11    1
    38    10     7    1
    39     2     1    1
    40     2     5    1
    41     2     3    1
    42     6     3   am
    43     6     7    1
    44   113   112   ar
    45    12    11   ar
    46    12    14   ar
    47   132   133    1
    48    36    33    1
    49   103   104    1
    50   112   114   ar
    51    11    13   ar
    52     3     4    2
    53   120   121    1
    54     7     8    1
    55    35    34    2
    56    14    15   ar
    57    13    15   ar
    58   104   105    1
    59   133   136    1
    60   133   134    1
    61   121   122    1
    62   152   151    2
    63   122   123    2
    64    33    34    1
    65    33    32    1
    66    34    42   am
    67   123   125    1
    68   123   124    1
    69   153   150    1
    70   153   154    1
    71   151   150    1
    72     8     9    2
    73     8    16   am
    74   105   106    1
    75   134   137   am
    76   134   135    2
    77    42    43    1
    78   156   154   ar
    79   156   158   ar
    80   150   149    1
    81    32    26   am
    82   154   155   ar
    83    45    44    2
    84    43    44    1
    85   149   139   am
    86    44    46   am
    87   137   138    1
    88    16    17    1
    89    46    47    1
    90    47    50    1
    91    47    48    1
    92   158   159   ar
    93    19    18    2
    94    50    51    1
    95    27    26    2
    96    26    25    1
    97   155   157   ar
    98    51    52    1
    99   139   138    1
   100   139   140    2
   101    49    48    2
   102   138   141    1
   103    52    53    1
   104    18    17    1
   105    18    24   am
   106    48    55   am
   107   159   157   ar
   108   159   160    1
   109    17    20    1
   110   141   142    1
   111    54    53    1
   112    64    65    2
   113    64    63    1
   114    22    20    1
   115    24    25    1
   116    25    28    1
   117    28    29    1
   118    20    21    1
   119    68    66    1
   120    66    63    1
   121    66    67    1
   122    55    56    1
   123   142   144   ar
   124   142   143   ar
   125    63    62    1
   126   144   146   ar
   127    62    57   am
   128    57    56    1
   129    57    58    2
   130    80    81    1
   131    56    59    1
   132    29    31   ar
   133    29    30   ar
   134    21    23    1
   135   143   145   ar
   136    81    82    1
   137    81    84    1
   138    87    89   ar
   139    87    85   ar
   140   146   147   ar
   141    82    83    2
   142    89    88   ar
   143    59    60    1
   144    59    61    1
   145    85    84    1
   146    85    86   ar
   147   145   147   ar
   148   147   148    1
   149    88    86   ar
   150    78    77    1
   151    79    77    1
   152    77    76    2
   153    76    75    1
   154    75    74    1
   155    70    69    1
   156    70    73    1
   157    70    71    1
   158    73    74    1
   159    71    72    2
