@<TRIPOS>MOLECULE
tmp/5h7lA01.pdb
 144 141 0 0 0
SMALL
GASTEIGER

@<TRIPOS>ATOM
      1  N         -2.5400  -25.2240   15.1210 N.3    21  HIS21      -0.1226
      2  CA        -3.6690  -24.3210   14.9330 C.3    21  HIS21       0.1752
      3  C         -4.3590  -24.2520   16.3090 C.2    21  HIS21       0.2596
      4  O         -3.8510  -24.8270   17.2520 O.2    21  HIS21      -0.2718
      5  CB        -4.5050  -24.8590   13.7730 C.3    21  HIS21       0.0759
      6  CG        -5.7040  -24.0430   13.4140 C.ar   21  HIS21       0.0818
      7  ND1       -6.6970  -23.7120   14.3050 N.ar   21  HIS21      -0.2268
      8  CD2       -6.0790  -23.5200   12.2170 C.ar   21  HIS21       0.1154
      9  CE1       -7.6240  -23.0030   13.6920 C.ar   21  HIS21       0.1986
     10  NE2       -7.2750  -22.8660   12.4270 N.ar   21  HIS21      -0.2212
     11  N         -5.4240  -23.4950   16.4960 N.am   22  ILE22      -0.1966
     12  CA        -6.0040  -23.4000   17.8410 C.3    22  ILE22       0.1727
     13  C         -7.2220  -24.3250   17.9980 C.2    22  ILE22       0.2616
     14  O         -7.9770  -24.5340   17.0480 O.2    22  ILE22      -0.2715
     15  CB        -6.3610  -21.8950   18.2070 C.3    22  ILE22       0.0290
     16  CG1       -7.4200  -21.8060   19.3260 C.3    22  ILE22       0.0022
     17  CG2       -6.7450  -21.0690   16.9690 C.3    22  ILE22       0.0023
     18  CD1       -7.4650  -20.4870   20.0360 C.3    22  ILE22       0.0001
     19  N         -7.3870  -24.8530   19.2150 N.am   23  ASP23      -0.1971
     20  CA        -8.3090  -25.9480   19.5420 C.3    23  ASP23       0.1709
     21  C         -7.8550  -27.2980   18.9740 C.2    23  ASP23       0.2293
     22  O         -8.4280  -28.3410   19.3110 O.2    23  ASP23      -0.2864
     23  CB        -9.7210  -25.6500   19.0670 C.3    23  ASP23       0.1436
     24  CG       -10.2250  -24.3510   19.5800 C.2    23  ASP23       0.3671
     25  OD1      -10.6380  -24.2900   20.7640 O.co2  23  ASP23      -0.2456
     26  OD2      -10.1920  -23.3840   18.7940 O.co2  23  ASP23      -0.2456
     27  N         -5.3720  -28.9920   19.6990 N.3    25  GLY25      -0.1210
     28  CA        -5.0120  -29.9320   20.7420 C.3    25  GLY25       0.1956
     29  C         -3.7030  -29.7290   21.4560 C.2    25  GLY25       0.2612
     30  O         -3.3180  -30.5570   22.2820 O.2    25  GLY25      -0.2717
     31  N         -3.0290  -28.6200   21.1620 N.am   26  LYS26      -0.1965
     32  CA        -1.6270  -28.4460   21.5390 C.3    26  LYS26       0.1728
     33  C         -1.3820  -28.3230   23.0490 C.2    26  LYS26       0.2617
     34  O         -0.4590  -28.9680   23.5790 O.2    26  LYS26      -0.2715
     35  CB        -1.0600  -27.2380   20.8160 C.3    26  LYS26       0.0311
     36  CG        -0.0180  -26.4850   21.5960 C.3    26  LYS26       0.0038
     37  CD         0.7450  -25.5510   20.6850 C.3    26  LYS26       0.0206
     38  CE         1.1840  -24.3110   21.4140 C.3    26  LYS26       0.1093
     39  NZ         1.9990  -23.4530   20.5090 N.3    26  LYS26      -0.1314
     40  N         -2.2170  -27.5640   23.7530 N.am   27  THR27      -0.1937
     41  CA        -2.0460  -27.4900   25.1970 C.3    27  THR27       0.2028
     42  C         -2.2590  -28.8840   25.7920 C.2    27  THR27       0.2642
     43  O         -1.3770  -29.4050   26.4750 O.2    27  THR27      -0.2714
     44  CB        -3.0050  -26.4630   25.8770 C.3    27  THR27       0.1808
     45  OG1       -4.3420  -26.6290   25.3900 O.3    27  THR27      -0.2208
     46  CG2       -2.5540  -25.0280   25.6170 C.3    27  THR27       0.0379
     47  N         -3.3940  -29.5050   25.4600 N.am   28  THR28      -0.1950
     48  CA        -3.7420  -30.8660   25.9060 C.3    28  THR28       0.1897
     49  C         -2.6450  -31.8610   25.6000 C.2    28  THR28       0.2313
     50  O         -2.2460  -32.6420   26.4720 O.2    28  THR28      -0.2863
     51  CB        -5.0220  -31.3850   25.2480 C.3    28  THR28       0.1794
     52  OG1       -6.0910  -30.4480   25.4570 O.3    28  THR28      -0.2208
     53  CG2       -5.3930  -32.7460   25.8430 C.3    28  THR28       0.0378
     54  N         -3.7880  -35.4780   15.2070 N.3   115  ASN115     -0.1225
     55  CA        -4.4270  -35.6290   16.4810 C.3   115  ASN115      0.1785
     56  C         -5.9370  -35.7070   16.3140 C.2   115  ASN115      0.2597
     57  O         -6.4660  -35.4630   15.2170 O.2   115  ASN115     -0.2718
     58  CB        -4.0310  -34.4920   17.4130 C.3   115  ASN115      0.1169
     59  CG        -4.6380  -34.6430   18.7820 C.2   115  ASN115      0.2627
     60  OD1       -5.0160  -35.7470   19.1620 O.2   115  ASN115     -0.2716
     61  ND2       -4.7330  -33.5560   19.5350 N.am  115  ASN115     -0.0877
     62  N         -6.6150  -36.0520   17.4080 N.am  116  LYS116     -0.1980
     63  CA        -8.0570  -36.1660   17.4340 C.3   116  LYS116      0.1596
     64  C         -8.5600  -37.3560   16.5750 C.2   116  LYS116      0.2287
     65  O         -9.6320  -37.2750   15.9790 O.2   116  LYS116     -0.2864
     66  CB        -8.7040  -34.8380   17.0040 C.3   116  LYS116      0.0298
     67  CG        -8.7230  -33.7840   18.0990 C.3   116  LYS116      0.0038
     68  CD        -9.2450  -32.4690   17.5890 C.3   116  LYS116      0.0206
     69  CE        -9.4740  -31.4500   18.6940 C.3   116  LYS116      0.1093
     70  NZ       -10.1910  -30.2590   18.1790 N.3   116  LYS116     -0.1314
     71  N         -9.6250  -40.2330   17.5500 N.3   118  ASP118     -0.1225
     72  CA       -10.8200  -40.7450   18.2030 C.3   118  ASP118      0.1805
     73  C        -12.0580  -40.0760   17.5830 C.2   118  ASP118      0.2597
     74  O        -13.1290  -40.6720   17.4830 O.2   118  ASP118     -0.2718
     75  CB       -10.7970  -40.4400   19.6810 C.3   118  ASP118      0.1424
     76  CG       -10.6730  -38.9480   19.9370 C.2   118  ASP118      0.3668
     77  OD1      -11.3100  -38.4140   20.8730 O.co2 118  ASP118     -0.2456
     78  OD2       -9.9650  -38.2980   19.1400 O.co2 118  ASP118     -0.2456
     79  N        -11.9170  -38.8110   17.1960 N.am  119  ARG119     -0.1979
     80  CA       -13.0480  -38.0650   16.6430 C.3   119  ARG119      0.1597
     81  C        -13.4070  -38.6660   15.2860 C.2   119  ARG119      0.2287
     82  O        -14.5830  -38.7620   14.9490 O.2   119  ARG119     -0.2864
     83  CB       -12.7190  -36.5480   16.5040 C.3   119  ARG119      0.0334
     84  CG       -13.4530  -35.6060   17.5070 C.3   119  ARG119      0.0492
     85  CD       -13.4730  -34.1330   17.0630 C.3   119  ARG119      0.2205
     86  NE       -14.4300  -33.3030   17.8200 N.pl3 119  ARG119     -0.0865
     87  CZ       -14.1770  -32.0780   18.3020 C.cat 119  ARG119      0.5346
     88  NH1      -12.9900  -31.5000   18.1120 N.pl3 119  ARG119      0.1354
     89  NH2      -15.1170  -31.4200   18.9790 N.pl3 119  ARG119      0.1354
     90  N        -15.2300  -42.4410   16.4910 N.3   122  ARG122     -0.1231
     91  CA       -16.5100  -42.4460   17.2030 C.3   122  ARG122      0.1694
     92  C        -17.5580  -41.5600   16.5520 C.2   122  ARG122      0.2591
     93  O        -18.6850  -42.0020   16.2850 O.2   122  ARG122     -0.2718
     94  CB       -16.3130  -42.0070   18.6560 C.3   122  ARG122      0.0321
     95  CG       -15.0100  -42.4940   19.2630 C.3   122  ARG122      0.0489
     96  CD       -14.9430  -42.3470   20.7760 C.3   122  ARG122      0.2205
     97  NE       -15.0530  -40.9330   21.1450 N.pl3 122  ARG122     -0.0865
     98  CZ       -15.3750  -40.4870   22.3530 C.cat 122  ARG122      0.5346
     99  NH1      -15.4470  -39.1780   22.5800 N.pl3 122  ARG122      0.1354
    100  NH2      -15.5930  -41.3480   23.3360 N.pl3 122  ARG122      0.1354
    101  N        -17.1350  -40.3210   16.2840 N.am  123  GLU123     -0.1979
    102  CA       -17.9710  -39.1680   15.9520 C.3   123  GLU123      0.1602
    103  C        -18.2530  -39.0000   14.4620 C.2   123  GLU123      0.2287
    104  O        -19.3570  -38.6760   14.0470 O.2   123  GLU123     -0.2864
    105  CB       -17.2470  -37.8990   16.4250 C.3   123  GLU123      0.0415
    106  CG       -17.4390  -37.4000   17.8580 C.3   123  GLU123      0.1163
    107  CD       -17.0890  -35.8990   17.9850 C.2   123  GLU123      0.3649
    108  OE1      -17.3090  -35.1260   17.0120 O.co2 123  GLU123     -0.2457
    109  OE2      -16.5580  -35.4880   19.0490 O.co2 123  GLU123     -0.2457
    110  N         -4.6410  -39.6340   19.5990 N.3   171  SER171     -0.1202
    111  CA        -5.5750  -38.8710   20.3890 C.3   171  SER171      0.2020
    112  C         -4.8600  -38.4210   21.6230 C.2   171  SER171      0.2619
    113  O         -4.3260  -39.2420   22.3800 O.2   171  SER171     -0.2717
    114  CB        -6.7850  -39.7220   20.7450 C.3   171  SER171      0.2103
    115  OG        -7.6380  -39.1040   21.6840 O.3   171  SER171     -0.2182
    116  N         -4.8860  -37.1150   21.8520 N.am  172  ALA172     -0.1965
    117  CA        -4.1220  -36.5240   22.9370 C.3   172  ALA172      0.1728
    118  C         -4.9450  -36.5170   24.2000 C.2   172  ALA172      0.2616
    119  O         -4.4050  -36.5050   25.3050 O.2   172  ALA172     -0.2715
    120  CB        -3.6870  -35.1210   22.5690 C.3   172  ALA172      0.0334
    121  N         -6.2600  -36.5290   24.0280 N.am  173  TYR173     -0.1960
    122  CA        -7.1330  -36.5120   25.1790 C.3   173  TYR173      0.1771
    123  C         -7.2420  -37.9020   25.7970 C.2   173  TYR173      0.2619
    124  O         -7.4370  -38.0520   27.0050 O.2   173  TYR173     -0.2715
    125  CB        -8.5200  -35.9820   24.8050 C.3   173  TYR173      0.0574
    126  CG        -9.3870  -35.8290   26.0180 C.ar  173  TYR173     -0.0198
    127  CD1       -8.8520  -35.3290   27.1990 C.ar  173  TYR173     -0.0009
    128  CD2      -10.7200  -36.2030   26.0050 C.ar  173  TYR173     -0.0009
    129  CE1       -9.6240  -35.1960   28.3280 C.ar  173  TYR173      0.0417
    130  CE2      -11.5020  -36.0690   27.1310 C.ar  173  TYR173      0.0417
    131  CZ       -10.9460  -35.5680   28.2870 C.ar  173  TYR173      0.1957
    132  OH       -11.6930  -35.4290   29.4180 O.3   173  TYR173     -0.2866
    133  N         -7.0910  -38.9180   24.9600 N.am  174  TYR174     -0.1974
    134  CA        -7.2160  -40.2910   25.4160 C.3   174  TYR174      0.1639
    135  C         -5.8470  -40.9750   25.4830 C.2   174  TYR174      0.2290
    136  O         -5.7390  -42.2110   25.3740 O.2   174  TYR174     -0.2864
    137  CB        -8.1880  -41.0380   24.5100 C.3   174  TYR174      0.0560
    138  CG        -9.6110  -40.5140   24.6210 C.ar  174  TYR174     -0.0198
    139  CD1      -10.1130  -39.5960   23.7050 C.ar  174  TYR174     -0.0009
    140  CD2      -10.4420  -40.9210   25.6530 C.ar  174  TYR174     -0.0009
    141  CE1      -11.4060  -39.1330   23.8000 C.ar  174  TYR174      0.0417
    142  CE2      -11.7380  -40.4490   25.7590 C.ar  174  TYR174      0.0417
    143  CZ       -12.2120  -39.5610   24.8300 C.ar  174  TYR174      0.1957
    144  OH       -13.5020  -39.0950   24.9420 O.3   174  TYR174     -0.2866
@<TRIPOS>BOND
     1     8    10   ar
     2     8     6   ar
     3    10     9   ar
     4     6     5    1
     5     6     7   ar
     6     9     7   ar
     7     5     2    1
     8   104   103    2
     9   103   102    1
    10     2     1    1
    11     2     3    1
    12    82    81    2
    13    54    55    1
    14    57    56    2
    15    81    80    1
    16   102   101    1
    17   102   105    1
    18    65    64    2
    19   101    92   am
    20    93    92    2
    21     3    11   am
    22     3     4    2
    23    56    55    1
    24    56    62   am
    25   105   106    1
    26    55    58    1
    27    90    91    1
    28    11    12    1
    29    83    80    1
    30    83    84    1
    31    92    91    1
    32    64    63    1
    33    80    79    1
    34    17    15    1
    35    66    63    1
    36    66    67    1
    37   108   107   ar
    38    14    13    2
    39    85    84    1
    40    85    86    1
    41    79    73   am
    42    91    94    1
    43    62    63    1
    44    58    59    1
    45    74    73    2
    46    71    72    1
    47    73    72    1
    48    68    67    1
    49    68    69    1
    50    86    87    2
    51    12    13    1
    52    12    15    1
    53   106   107    1
    54   107   109   ar
    55    13    19   am
    56    88    87    1
    57    70    69    1
    58    72    75    1
    59    15    16    1
    60    87    89    1
    61    94    95    1
    62    59    60    2
    63    59    61   am
    64    26    24   ar
    65    21    22    2
    66    21    20    1
    67    23    20    1
    68    23    24    1
    69    78    76   ar
    70    19    20    1
    71    95    96    1
    72    16    18    1
    73    24    25   ar
    74   110   111    1
    75    75    76    1
    76    27    28    1
    77    76    77   ar
    78   111   114    1
    79   111   112    1
    80    39    38    1
    81    37    38    1
    82    37    36    1
    83    28    29    1
    84   114   115    1
    85    96    97    1
    86    35    32    1
    87    35    36    1
    88    97    98    2
    89    31    29   am
    90    31    32    1
    91    29    30    2
    92    32    33    1
    93   112   116   am
    94   112   113    2
    95   116   117    1
    96    98    99    1
    97    98   100    1
    98   120   117    1
    99   117   118    1
   100    33    34    2
   101    33    40   am
   102   139   141   ar
   103   139   138   ar
   104    40    41    1
   105   141   143   ar
   106   121   118   am
   107   121   122    1
   108   118   119    2
   109   137   138    1
   110   137   134    1
   111   138   140   ar
   112   125   122    1
   113   125   126    1
   114   143   144    1
   115   143   142   ar
   116   133   134    1
   117   133   123   am
   118   122   123    1
   119    41    42    1
   120    41    44    1
   121    51    52    1
   122    51    53    1
   123    51    48    1
   124   136   135    2
   125    45    44    1
   126   134   135    1
   127    47    42   am
   128    47    48    1
   129    49    48    1
   130    49    50    2
   131    46    44    1
   132   140   142   ar
   133    42    43    2
   134   123   124    2
   135   128   126   ar
   136   128   130   ar
   137   126   127   ar
   138   130   131   ar
   139   127   129   ar
   140   131   129   ar
   141   131   132    1
