@<TRIPOS>MOLECULE
tmp/5h7nA00.pdb
 243 237 0 0 0
SMALL
GASTEIGER

@<TRIPOS>ATOM
      1  N        -13.6690 -110.5040  353.5640 N.3    12  ASN12      -0.1240
      2  CA       -14.9610 -110.6100  352.8920 C.3    12  ASN12       0.1653
      3  C        -15.6150 -111.9760  353.1010 C.2    12  ASN12       0.2266
      4  O        -14.9410 -112.9920  353.2210 O.2    12  ASN12      -0.2867
      5  CB       -14.7980 -110.3870  351.3840 C.3    12  ASN12       0.1155
      6  CG       -16.0820 -109.9130  350.7350 C.2    12  ASN12       0.2627
      7  OD1      -16.8470 -109.1140  351.3260 O.2    12  ASN12      -0.2716
      8  ND2      -16.3300 -110.3810  349.5160 N.am   12  ASN12      -0.0877
      9  N        -17.0370 -114.0390  351.1310 N.3    14  ASP14      -0.1225
     10  CA       -16.8740 -115.1100  350.1330 C.3    14  ASP14       0.1805
     11  C        -15.5250 -115.7930  350.2600 C.2    14  ASP14       0.2597
     12  O        -15.2400 -116.7180  349.5020 O.2    14  ASP14      -0.2718
     13  CB       -17.1070 -114.5880  348.6850 C.3    14  ASP14       0.1424
     14  CG       -16.1770 -113.4330  348.2700 C.2    14  ASP14       0.3668
     15  OD1      -15.2540 -113.1120  349.0430 O.co2  14  ASP14      -0.2456
     16  OD2      -16.3750 -112.8400  347.1680 O.co2  14  ASP14      -0.2456
     17  N        -14.6940 -115.3870  351.2190 N.am   15  LYS15      -0.1979
     18  CA       -13.3590 -115.9460  351.4100 C.3    15  LYS15       0.1596
     19  C        -13.4080 -117.0220  352.4880 C.2    15  LYS15       0.2287
     20  O        -14.4370 -117.2370  353.1230 O.2    15  LYS15      -0.2864
     21  CB       -12.3490 -114.8350  351.7970 C.3    15  LYS15       0.0298
     22  CG       -12.1630 -113.7470  350.7170 C.3    15  LYS15       0.0038
     23  CD       -11.9720 -114.4090  349.3480 C.3    15  LYS15       0.0206
     24  CE       -11.5200 -113.4680  348.2460 C.3    15  LYS15       0.1093
     25  NZ       -12.5160 -112.4310  348.0270 N.3    15  LYS15      -0.1314
     26  N        -20.5890 -107.0650  356.1180 N.3    41  ASP41      -0.1225
     27  CA       -20.9680 -106.6060  354.7970 C.3    41  ASP41       0.1805
     28  C        -20.3860 -105.2130  354.5070 C.2    41  ASP41       0.2597
     29  O        -20.2490 -104.3550  355.4000 O.2    41  ASP41      -0.2718
     30  CB       -22.4930 -106.6120  354.6370 C.3    41  ASP41       0.1424
     31  CG       -22.9220 -106.6200  353.1520 C.2    41  ASP41       0.3668
     32  OD1      -22.2000 -107.2030  352.2860 O.co2  41  ASP41      -0.2456
     33  OD2      -23.9850 -106.0500  352.8500 O.co2  41  ASP41      -0.2456
     34  N        -20.0350 -105.0000  353.2430 N.am   42  LYS42      -0.1979
     35  CA       -19.4550 -103.7450  352.7790 C.3    42  LYS42       0.1596
     36  C        -18.2380 -103.3580  353.6220 C.2    42  LYS42       0.2287
     37  O        -17.9790 -102.1850  353.8620 O.2    42  LYS42      -0.2864
     38  CB       -20.4920 -102.6170  352.7770 C.3    42  LYS42       0.0298
     39  CG       -21.8060 -102.9170  352.0160 C.3    42  LYS42       0.0038
     40  CD       -22.8240 -101.7760  352.2270 C.3    42  LYS42       0.0206
     41  CE       -24.2290 -102.1600  351.7500 C.3    42  LYS42       0.1093
     42  NZ       -24.2930 -102.2390  350.2760 N.3    42  LYS42      -0.1314
     43  N        -15.3430 -103.0810  352.9310 N.3    44  GLU44      -0.1231
     44  CA       -14.3830 -102.2440  352.2520 C.3    44  GLU44       0.1699
     45  C        -14.8330 -100.7920  352.2120 C.2    44  GLU44       0.2592
     46  O        -14.0060  -99.9150  351.9670 O.2    44  GLU44      -0.2718
     47  CB       -14.1240 -102.7970  350.8350 C.3    44  GLU44       0.0402
     48  CG       -15.1360 -102.4090  349.7940 C.3    44  GLU44       0.1161
     49  CD       -16.4790 -103.0660  350.0030 C.2    44  GLU44       0.3649
     50  OE1      -16.6310 -103.9440  350.8930 O.co2  44  GLU44      -0.2457
     51  OE2      -17.3890 -102.6950  349.2530 O.co2  44  GLU44      -0.2457
     52  N        -16.1210 -100.5220  352.4520 N.am   45  GLU45      -0.1979
     53  CA       -16.5900  -99.1370  352.5930 C.3    45  GLU45       0.1602
     54  C        -16.6320  -98.7020  354.0480 C.2    45  GLU45       0.2287
     55  O        -16.4460  -97.5180  354.3450 O.2    45  GLU45      -0.2864
     56  CB       -17.9880  -98.9650  351.9900 C.3    45  GLU45       0.0415
     57  CG       -18.0320  -99.2530  350.5120 C.3    45  GLU45       0.1163
     58  CD       -19.4070  -99.0190  349.9140 C.2    45  GLU45       0.3649
     59  OE1      -20.3950  -99.1040  350.6650 O.co2  45  GLU45      -0.2457
     60  OE2      -19.4930  -98.7520  348.6910 O.co2  45  GLU45      -0.2457
     61  N         -8.5860 -107.3320  351.6150 N.3    62  TRP62      -0.1227
     62  CA        -9.3670 -107.0380  350.4200 C.3    62  TRP62       0.1737
     63  C         -8.4080 -107.2170  349.2540 C.2    62  TRP62       0.2595
     64  O         -7.1870 -107.1940  349.4420 O.2    62  TRP62      -0.2718
     65  CB        -9.9160 -105.5920  350.4270 C.3    62  TRP62       0.0564
     66  CG       -10.9850 -105.3680  349.4270 C.ar   62  TRP62       0.0003
     67  CD1      -10.8860 -104.7220  348.2040 C.ar   62  TRP62       0.0946
     68  CD2      -12.3350 -105.8070  349.5470 C.ar   62  TRP62       0.0152
     69  NE1      -12.1250 -104.7380  347.5890 N.ar   62  TRP62      -0.2442
     70  CE2      -13.0060 -105.4200  348.3810 C.ar   62  TRP62       0.0810
     71  CE3      -13.0380 -106.5050  350.5510 C.ar   62  TRP62       0.0012
     72  CZ2      -14.3560 -105.6840  348.1760 C.ar   62  TRP62       0.0191
     73  CZ3      -14.3700 -106.7940  350.3350 C.ar   62  TRP62       0.0001
     74  CH2      -15.0220 -106.3620  349.1640 C.ar   62  TRP62       0.0015
     75  N         -8.9470 -107.2720  348.0550 N.am   63  ALA63      -0.1980
     76  CA        -8.0630 -107.1150  346.8920 C.3    63  ALA63       0.1597
     77  C         -7.3140 -105.7900  346.9450 C.2    63  ALA63       0.2287
     78  O         -7.8050 -104.7890  347.4960 O.2    63  ALA63      -0.2864
     79  CB        -8.8630 -107.1840  345.6070 C.3    63  ALA63       0.0319
     80  N         -6.7540 -103.3890  344.9790 N.3    65  ASP65      -0.1225
     81  CA        -7.1500 -102.1320  344.3390 C.3    65  ASP65       0.1805
     82  C         -7.6910 -101.0800  345.3370 C.2    65  ASP65       0.2597
     83  O         -7.6420  -99.8780  345.0230 O.2    65  ASP65      -0.2718
     84  CB        -8.1940 -102.3600  343.2500 C.3    65  ASP65       0.1424
     85  CG        -9.4740 -102.9790  343.7700 C.2    65  ASP65       0.3668
     86  OD1       -9.3660 -104.0440  344.4190 O.co2  65  ASP65      -0.2456
     87  OD2      -10.6070 -102.4430  343.5110 O.co2  65  ASP65      -0.2456
     88  N         -8.2410 -101.5080  346.4800 N.am   66  ARG66      -0.1979
     89  CA        -8.7890 -100.5800  347.5030 C.3    66  ARG66       0.1597
     90  C         -7.6970  -99.9020  348.3220 C.2    66  ARG66       0.2287
     91  O         -7.9510  -98.8880  348.9910 O.2    66  ARG66      -0.2864
     92  CB        -9.7090 -101.3400  348.4680 C.3    66  ARG66       0.0334
     93  CG       -11.2170 -101.3450  348.0880 C.3    66  ARG66       0.0492
     94  CD       -11.7320  -99.9120  348.1090 C.3    66  ARG66       0.2205
     95  NE       -13.1890  -99.7640  347.9740 N.pl3  66  ARG66      -0.0865
     96  CZ       -13.8470  -98.6610  348.3690 C.cat  66  ARG66       0.5346
     97  NH1      -13.1990  -97.6460  348.9400 N.pl3  66  ARG66       0.1354
     98  NH2      -15.1440  -98.5600  348.1840 N.pl3  66  ARG66       0.1354
     99  N         -5.7940 -113.5460  342.3290 N.3   111  GLU111     -0.1245
    100  CA        -7.1300 -113.9930  341.9490 C.3   111  GLU111      0.1567
    101  C         -7.3670 -113.5850  340.5040 C.2   111  GLU111      0.2260
    102  O         -7.1910 -112.4170  340.1580 O.2   111  GLU111     -0.2867
    103  CB        -8.2110 -113.3400  342.8190 C.3   111  GLU111      0.0388
    104  CG        -8.0180 -113.5280  344.3410 C.3   111  GLU111      0.1160
    105  CD        -8.9620 -112.6890  345.1690 C.2   111  GLU111      0.3649
    106  OE1       -9.5720 -111.7490  344.6150 O.co2 111  GLU111     -0.2457
    107  OE2       -9.0660 -112.9710  346.3870 O.co2 111  GLU111     -0.2457
    108  N        -22.7120 -113.5140  337.7510 N.3   150  ASN150     -0.1240
    109  CA       -23.1070 -112.2600  338.4080 C.3   150  ASN150      0.1653
    110  C        -23.0770 -111.0530  337.4910 C.2   150  ASN150      0.2266
    111  O        -22.0120 -110.5370  337.1430 O.2   150  ASN150     -0.2867
    112  CB       -22.2000 -112.0760  339.6360 C.3   150  ASN150      0.1155
    113  CG       -22.6240 -110.8940  340.5240 C.2   150  ASN150      0.2627
    114  OD1      -23.6590 -110.2770  340.2860 O.2   150  ASN150     -0.2716
    115  ND2      -21.8150 -110.5990  341.5520 N.am  150  ASN150     -0.0877
    116  N        -22.1220 -107.0340  339.6190 N.3   153  GLU153     -0.1231
    117  CA       -20.8290 -106.4630  340.0250 C.3   153  GLU153      0.1684
    118  C        -19.9410 -106.3420  338.7960 C.2   153  GLU153      0.2434
    119  O        -19.7290 -107.3410  338.1020 O.2   153  GLU153     -0.2733
    120  CB       -20.1340 -107.3500  341.0940 C.3   153  GLU153      0.0402
    121  CG       -20.6750 -107.2280  342.5030 C.3   153  GLU153      0.1161
    122  CD       -20.2900 -105.8550  343.1000 C.2   153  GLU153      0.3649
    123  OE1      -19.3540 -105.1980  342.5700 O.co2 153  GLU153     -0.2457
    124  OE2      -20.9190 -105.4430  344.1000 O.co2 153  GLU153     -0.2457
    125  N        -19.4210 -105.1550  338.4870 N.am  154  PRO154     -0.2718
    126  CA       -18.7230 -104.9800  337.2150 C.3   154  PRO154      0.1535
    127  C        -17.4520 -105.8120  337.1010 C.2   154  PRO154      0.2599
    128  O        -16.9250 -105.9470  335.9810 O.2   154  PRO154     -0.2715
    129  CB       -18.4120 -103.4720  337.1900 C.3   154  PRO154      0.0310
    130  CG       -18.4210 -103.0370  338.6300 C.3   154  PRO154      0.0237
    131  CD       -19.4710 -103.9010  339.2940 C.3   154  PRO154      0.0939
    132  N        -16.9370 -106.3240  338.2290 N.am  155  TYR155     -0.1960
    133  CA       -15.7670 -107.2100  338.2140 C.3   155  TYR155      0.1771
    134  C        -15.9780 -108.3900  337.2690 C.2   155  TYR155      0.2619
    135  O        -15.0480 -108.8250  336.6130 O.2   155  TYR155     -0.2715
    136  CB       -15.5110 -107.7350  339.6200 C.3   155  TYR155      0.0574
    137  CG       -14.3390 -108.6990  339.8040 C.ar  155  TYR155     -0.0198
    138  CD1      -13.0140 -108.2480  339.7420 C.ar  155  TYR155     -0.0009
    139  CD2      -14.5710 -110.0440  340.1020 C.ar  155  TYR155     -0.0009
    140  CE1      -11.9800 -109.1160  339.9690 C.ar  155  TYR155      0.0417
    141  CE2      -13.5600 -110.9010  340.3030 C.ar  155  TYR155      0.0417
    142  CZ       -12.2570 -110.4250  340.2250 C.ar  155  TYR155      0.1957
    143  OH       -11.2530 -111.3110  340.5090 O.3   155  TYR155     -0.2866
    144  N        -17.1880 -108.9310  337.2240 N.am  156  PHE156     -0.1974
    145  CA       -17.5250 -110.0990  336.4160 C.3   156  PHE156      0.1639
    146  C        -17.7990 -109.7550  334.9370 C.2   156  PHE156      0.2290
    147  O        -17.5560 -110.5900  334.0700 O.2   156  PHE156     -0.2864
    148  CB       -18.7250 -110.8220  337.0250 C.3   156  PHE156      0.0560
    149  CG       -18.4750 -111.3620  338.4280 C.ar  156  PHE156     -0.0200
    150  CD1      -18.5550 -110.5360  339.5250 C.ar  156  PHE156     -0.0042
    151  CD2      -18.1290 -112.6840  338.6390 C.ar  156  PHE156     -0.0042
    152  CE1      -18.3050 -111.0190  340.7840 C.ar  156  PHE156     -0.0003
    153  CE2      -17.9090 -113.1660  339.8830 C.ar  156  PHE156     -0.0003
    154  CZ       -17.9910 -112.3380  340.9760 C.ar  156  PHE156     -0.0000
    155  N        -24.7930 -112.9910  342.2730 N.3   210  TYR210     -0.1241
    156  CA       -23.8530 -114.0390  342.6700 C.3   210  TYR210      0.1605
    157  C        -24.5620 -115.3090  343.1450 C.2   210  TYR210      0.2264
    158  O        -24.1840 -116.4260  342.7610 O.2   210  TYR210     -0.2867
    159  CB       -22.9200 -113.5340  343.7610 C.3   210  TYR210      0.0534
    160  CG       -21.7440 -114.4620  343.9930 C.ar  210  TYR210     -0.0201
    161  CD1      -21.8270 -115.5160  344.8680 C.ar  210  TYR210     -0.0009
    162  CD2      -20.5340 -114.2690  343.3090 C.ar  210  TYR210     -0.0009
    163  CE1      -20.7650 -116.3530  345.0950 C.ar  210  TYR210      0.0417
    164  CE2      -19.4330 -115.1220  343.5260 C.ar  210  TYR210      0.0417
    165  CZ       -19.5620 -116.1600  344.4050 C.ar  210  TYR210      0.1957
    166  OH       -18.5150 -117.0220  344.6580 O.3   210  TYR210     -0.2866
    167  N        -12.2540 -118.8420  344.8850 N.3   230  TRP230     -0.1241
    168  CA       -13.0150 -119.0260  346.1200 C.3   230  TRP230      0.1605
    169  C        -14.2550 -119.8730  345.9140 C.2   230  TRP230      0.2264
    170  O        -14.7810 -120.4330  346.8850 O.2   230  TRP230     -0.2867
    171  CB       -13.4790 -117.6530  346.6990 C.3   230  TRP230      0.0550
    172  CG       -14.1480 -116.8040  345.6910 C.ar  230  TRP230      0.0003
    173  CD1      -15.4910 -116.7690  345.3900 C.ar  230  TRP230      0.0946
    174  CD2      -13.5260 -115.8680  344.8270 C.ar  230  TRP230      0.0152
    175  NE1      -15.7190 -115.8820  344.3960 N.ar  230  TRP230     -0.2442
    176  CE2      -14.5250 -115.2980  344.0420 C.ar  230  TRP230      0.0810
    177  CE3      -12.1950 -115.4500  344.6490 C.ar  230  TRP230      0.0012
    178  CZ2      -14.2590 -114.3390  343.0430 C.ar  230  TRP230      0.0191
    179  CZ3      -11.9300 -114.4950  343.6910 C.ar  230  TRP230      0.0001
    180  CH2      -12.9590 -113.9410  342.8950 C.ar  230  TRP230      0.0015
    181  N         -6.9170 -109.3200  340.8350 N.3   260  GLY260     -0.1225
    182  CA        -6.7860 -108.8300  342.2130 C.3   260  GLY260      0.1811
    183  C         -5.7270 -109.6160  342.9760 C.2   260  GLY260      0.2280
    184  O         -5.6380 -110.8380  342.8520 O.2   260  GLY260     -0.2866
    185  N         -5.3230 -110.4900  346.6900 N.3   262  LEU262     -0.1245
    186  CA        -5.8420 -110.4580  348.0780 C.3   262  LEU262      0.1561
    187  C         -4.7080 -110.0690  348.9980 C.2   262  LEU262      0.2260
    188  O         -3.6560 -110.6940  348.9370 O.2   262  LEU262     -0.2867
    189  CB        -6.3710 -111.8130  348.4960 C.3   262  LEU262      0.0270
    190  CG        -6.8890 -111.9920  349.9430 C.3   262  LEU262      0.0019
    191  CD1       -8.0650 -111.0400  350.1270 C.3   262  LEU262      0.0001
    192  CD2       -7.3610 -113.4290  350.2000 C.3   262  LEU262      0.0001
    193  N         -5.0090 -104.9100  338.6400 N.3   330  MET330     -0.1245
    194  CA        -5.7060 -103.6640  338.9140 C.3   330  MET330      0.1570
    195  C         -4.7220 -102.5730  339.3300 C.2   330  MET330      0.2261
    196  O         -3.7610 -102.8580  340.0640 O.2   330  MET330     -0.2867
    197  CB        -6.7180 -103.8770  340.0360 C.3   330  MET330      0.0387
    198  CG        -7.9250 -104.5100  339.4660 C.3   330  MET330      0.0595
    199  SD        -9.2490 -104.7450  340.6510 S.3   330  MET330     -0.1393
    200  CE        -8.6250 -105.9020  341.6980 C.3   330  MET330      0.0692
    201  N        -11.9840  -96.6910  343.0760 N.3   337  SER337     -0.1217
    202  CA       -13.3920  -96.8190  343.4730 C.3   337  SER337      0.1889
    203  C        -14.3220  -95.9740  342.5720 C.2   337  SER337      0.2288
    204  O        -15.4250  -96.4170  342.2490 O.2   337  SER337     -0.2866
    205  CB       -13.5750  -96.4900  344.9650 C.3   337  SER337      0.2089
    206  OG       -13.2300  -95.1540  345.2260 O.3   337  SER337     -0.2183
    207  N        -14.9920  -98.0020  339.5610 N.3   340  TRP340     -0.1227
    208  CA       -15.8490  -99.1650  339.7330 C.3   340  TRP340      0.1737
    209  C        -17.3080  -98.7730  339.9550 C.2   340  TRP340      0.2595
    210  O        -18.2190  -99.4670  339.4820 O.2   340  TRP340     -0.2718
    211  CB       -15.3890 -100.0020  340.9170 C.3   340  TRP340      0.0564
    212  CG       -14.1920 -100.9240  340.7070 C.ar  340  TRP340      0.0003
    213  CD1      -13.0400 -100.9370  341.4730 C.ar  340  TRP340      0.0946
    214  CD2      -14.0630 -102.0020  339.7510 C.ar  340  TRP340      0.0152
    215  NE1      -12.2140 -101.9560  341.0450 N.ar  340  TRP340     -0.2442
    216  CE2      -12.8010 -102.6100  339.9860 C.ar  340  TRP340      0.0810
    217  CE3      -14.8650 -102.4740  338.6780 C.ar  340  TRP340      0.0012
    218  CZ2      -12.3220 -103.6840  339.2070 C.ar  340  TRP340      0.0191
    219  CZ3      -14.4110 -103.5660  337.9230 C.ar  340  TRP340      0.0001
    220  CH2      -13.1340 -104.1560  338.1890 C.ar  340  TRP340      0.0015
    221  N        -17.5580  -97.7190  340.7340 N.am  341  TYR341     -0.1976
    222  CA       -18.9300  -97.2770  340.9660 C.3   341  TYR341      0.1639
    223  C        -19.5840  -96.8660  339.6610 C.2   341  TYR341      0.2290
    224  O        -20.7360  -97.2350  339.4070 O.2   341  TYR341     -0.2864
    225  CB       -18.9700  -96.0800  341.9530 C.3   341  TYR341      0.0560
    226  CG       -18.7420  -96.4850  343.3930 C.ar  341  TYR341     -0.0198
    227  CD1      -19.5450  -97.4200  344.0110 C.ar  341  TYR341     -0.0009
    228  CD2      -17.7360  -95.8840  344.1520 C.ar  341  TYR341     -0.0009
    229  CE1      -19.3410  -97.7680  345.3720 C.ar  341  TYR341      0.0417
    230  CE2      -17.5310  -96.2200  345.5040 C.ar  341  TYR341      0.0417
    231  CZ       -18.3210  -97.1670  346.0940 C.ar  341  TYR341      0.1957
    232  OH       -18.0820  -97.4900  347.4220 O.3   341  TYR341     -0.2866
    233  N        -20.3100  -99.9320  337.4600 N.3   344  ARG344     -0.1245
    234  CA       -21.3890 -100.7170  338.0080 C.3   344  ARG344      0.1563
    235  C        -22.7410 -100.1620  337.5780 C.2   344  ARG344      0.2260
    236  O        -23.6350 -100.9110  337.1850 O.2   344  ARG344     -0.2867
    237  CB       -21.2710 -100.7360  339.5300 C.3   344  ARG344      0.0307
    238  CG       -22.4870 -101.2870  340.2340 C.3   344  ARG344      0.0489
    239  CD       -22.3940 -101.2880  341.7570 C.3   344  ARG344      0.2205
    240  NE       -22.9960 -102.5440  342.1590 N.pl3 344  ARG344     -0.0865
    241  CZ       -24.2930 -102.7110  342.3780 C.cat 344  ARG344      0.5346
    242  NH1      -25.1170 -101.6520  342.3490 N.pl3 344  ARG344      0.1354
    243  NH2      -24.7500 -103.9300  342.6690 N.pl3 344  ARG344      0.1354
@<TRIPOS>BOND
     1   147   146    2
     2   146   145    1
     3   128   127    2
     4   145   148    1
     5   145   144    1
     6   135   134    2
     7   148   149    1
     8   127   126    1
     9   127   132   am
    10   111   110    2
    11   236   235    2
    12   129   126    1
    13   129   130    1
    14   126   125    1
    15   144   134   am
    16   134   133    1
    17   233   234    1
    18   110   109    1
    19   235   234    1
    20   108   109    1
    21   219   220   ar
    22   219   217   ar
    23   234   237    1
    24   119   118    2
    25   220   218   ar
    26   133   132    1
    27   133   136    1
    28   109   112    1
    29   149   151   ar
    30   149   150   ar
    31   125   118   am
    32   125   131    1
    33   130   131    1
    34   151   153   ar
    35   193   194    1
    36   217   214   ar
    37   118   117    1
    38   194   195    1
    39   194   197    1
    40   218   216   ar
    41   195   196    2
    42   224   223    2
    43   198   197    1
    44   198   199    1
    45   210   209    2
    46   150   152   ar
    47   237   238    1
    48   207   208    1
    49   116   117    1
    50   136   137    1
    51   112   113    1
    52   223   222    1
    53   208   209    1
    54   208   211    1
    55   138   137   ar
    56   138   140   ar
    57   214   216   ar
    58   214   212   ar
    59   137   139   ar
    60   153   154   ar
    61   209   221   am
    62   140   142   ar
    63   216   215   ar
    64   117   120    1
    65   139   141   ar
    66   102   101    2
    67   142   141   ar
    68   142   143    1
    69   238   239    1
    70   114   113    2
    71   101   100    1
    72   113   115   am
    73   199   200    1
    74   212   211    1
    75   212   213   ar
    76   221   222    1
    77   152   154   ar
    78   181   182    1
    79   222   225    1
    80   215   213   ar
    81   120   121    1
    82   239   240    1
    83   100    99    1
    84   100   103    1
    85   225   226    1
    86   240   241    2
    87   182   183    1
    88   204   203    2
    89   155   156    1
    90   242   241    1
    91   241   243    1
    92   121   122    1
    93   123   122   ar
    94   203   202    1
    95   156   157    1
    96   156   159    1
    97   158   157    2
    98   103   104    1
    99   184   183    2
   100   180   178   ar
   101   180   179   ar
   102   178   176   ar
   103   201   202    1
   104   122   124   ar
   105    84    85    1
   106    84    81    1
   107   162   164   ar
   108   162   160   ar
   109   226   227   ar
   110   226   228   ar
   111   202   205    1
   112    87    85   ar
   113   164   165   ar
   114   179   177   ar
   115   159   160    1
   116    85    86   ar
   117   160   161   ar
   118   227   229   ar
   119   176   175   ar
   120   176   174   ar
   121   228   230   ar
   122    81    80    1
   123    81    82    1
   124   104   105    1
   125   175   173   ar
   126   165   166    1
   127   165   163   ar
   128   106   105   ar
   129   177   174   ar
   130   174   172   ar
   131   161   163   ar
   132   167   168    1
   133   205   206    1
   134    83    82    2
   135   105   107   ar
   136    82    88   am
   137   229   231   ar
   138   173   172   ar
   139   230   231   ar
   140    79    76    1
   141   172   171    1
   142   169   168    1
   143   169   170    2
   144   231   232    1
   145   168   171    1
   146    88    89    1
   147   185   186    1
   148    76    77    1
   149    76    75    1
   150    77    78    2
   151    16    14   ar
   152    89    90    1
   153    89    92    1
   154    69    67   ar
   155    69    70   ar
   156    95    94    1
   157    95    96    2
   158    25    24    1
   159    75    63   am
   160   186   189    1
   161   186   187    1
   162    93    94    1
   163    93    92    1
   164    72    70   ar
   165    72    74   ar
   166    98    96    1
   167    67    66   ar
   168    24    23    1
   169    14    13    1
   170    14    15   ar
   171    90    91    2
   172    96    97    1
   173    70    68   ar
   174   189   190    1
   175    13    10    1
   176    60    58   ar
   177   188   187    2
   178    74    73   ar
   179    51    49   ar
   180    63    64    2
   181    63    62    1
   182    23    22    1
   183    66    68   ar
   184    66    65    1
   185    12    11    2
   186     8     6   am
   187    68    71   ar
   188    48    49    1
   189    48    47    1
   190    58    57    1
   191    58    59   ar
   192   190   191    1
   193   190   192    1
   194    49    50   ar
   195    10    11    1
   196    10     9    1
   197    11    17   am
   198    42    41    1
   199    73    71   ar
   200    62    65    1
   201    62    61    1
   202    57    56    1
   203    22    21    1
   204     6     7    2
   205     6     5    1
   206    47    44    1
   207    17    18    1
   208     5     2    1
   209    18    21    1
   210    18    19    1
   211    41    40    1
   212    46    45    2
   213    56    53    1
   214    39    40    1
   215    39    38    1
   216    45    44    1
   217    45    52   am
   218    44    43    1
   219    32    31   ar
   220    52    53    1
   221    19    20    2
   222    53    54    1
   223    38    35    1
   224    35    34    1
   225    35    36    1
   226    33    31   ar
   227     2     3    1
   228     2     1    1
   229     3     4    2
   230    31    30    1
   231    34    28   am
   232    36    37    2
   233    54    55    2
   234    28    27    1
   235    28    29    2
   236    30    27    1
   237    27    26    1
