@<TRIPOS>MOLECULE
tmp/5h7oD01.pdb
 175 167 0 0 0
SMALL
GASTEIGER

@<TRIPOS>ATOM
      1  N        -10.5800    3.7040   30.3060 N.3   236  VAL236     -0.1245
      2  CA       -11.6930    4.0150   29.3870 C.3   236  VAL236      0.1561
      3  C        -12.4710    5.2840   29.7540 C.2   236  VAL236      0.2260
      4  O        -13.2930    5.7440   28.9660 O.2   236  VAL236     -0.2867
      5  CB       -12.7000    2.8440   29.2360 C.3   236  VAL236      0.0252
      6  CG1      -11.9850    1.5540   28.8450 C.3   236  VAL236      0.0019
      7  CG2      -13.5340    2.6530   30.4960 C.3   236  VAL236      0.0019
      8  N        -10.5460   10.0450   28.8780 N.3   239  CYS239     -0.1221
      9  CA       -10.9900   11.1110   27.9800 C.3   239  CYS239      0.1808
     10  C        -12.2680   11.8040   28.4630 C.2   239  CYS239      0.2601
     11  O        -12.4680   12.9890   28.1820 O.2   239  CYS239     -0.2717
     12  CB       -11.1860   10.5660   26.5740 C.3   239  CYS239      0.0970
     13  SG        -9.6590    9.9610   25.8260 S.3   239  CYS239     -0.0800
     14  N        -13.1280   11.0670   29.1690 N.am  240  LEU240     -0.1979
     15  CA       -14.2880   11.6600   29.8440 C.3   240  LEU240      0.1596
     16  C        -13.8530   12.5710   30.9890 C.2   240  LEU240      0.2287
     17  O        -14.4070   13.6590   31.1620 O.2   240  LEU240     -0.2864
     18  CB       -15.2200   10.5740   30.3940 C.3   240  LEU240      0.0297
     19  CG       -15.8960    9.6520   29.3770 C.3   240  LEU240      0.0022
     20  CD1      -16.5020    8.4220   30.0450 C.3   240  LEU240      0.0001
     21  CD2      -16.9590   10.4120   28.6030 C.3   240  LEU240      0.0001
     22  N         -8.4750   15.9880   22.0760 N.3   246  LEU246     -0.1231
     23  CA        -9.7640   15.4810   21.6150 C.3   246  LEU246      0.1693
     24  C        -10.9170   16.0110   22.4760 C.2   246  LEU246      0.2592
     25  O        -10.7330   16.3240   23.6550 O.2   246  LEU246     -0.2718
     26  CB        -9.7160   13.9450   21.6400 C.3   246  LEU246      0.0284
     27  CG       -10.7360   13.1490   20.8150 C.3   246  LEU246      0.0019
     28  CD1      -10.1110   11.9430   20.1250 C.3   246  LEU246      0.0001
     29  CD2      -11.8900   12.6940   21.6810 C.3   246  LEU246      0.0001
     30  N        -12.0940   16.1150   21.8590 N.am  247  ASN247     -0.1960
     31  CA       -13.3330   16.5560   22.5110 C.3   247  ASN247      0.1819
     32  C        -14.2210   15.3150   22.7470 C.2   247  ASN247      0.2621
     33  O        -14.8790   14.8450   21.8150 O.2   247  ASN247     -0.2715
     34  CB       -14.0260   17.6030   21.6120 C.3   247  ASN247      0.1195
     35  CG       -15.1420   18.3670   22.3210 C.2   247  ASN247      0.2630
     36  OD1      -16.1230   17.7750   22.7790 O.2   247  ASN247     -0.2716
     37  ND2      -15.0170   19.6930   22.3770 N.am  247  ASN247     -0.0877
     38  N        -14.2400   14.8020   23.9860 N.am  248  ALA248     -0.1963
     39  CA       -14.7660   13.4520   24.2940 C.3   248  ALA248      0.1728
     40  C        -15.9780   13.4080   25.2320 C.2   248  ALA248      0.2616
     41  O        -15.9590   14.0130   26.3050 O.2   248  ALA248     -0.2715
     42  CB       -13.6530   12.6070   24.8870 C.3   248  ALA248      0.0334
     43  N        -17.0100   12.6630   24.8290 N.am  249  ASP249     -0.1957
     44  CA       -18.1670   12.3610   25.6920 C.3   249  ASP249      0.1840
     45  C        -18.7670   10.9950   25.3460 C.2   249  ASP249      0.2621
     46  O        -18.3510   10.3540   24.3810 O.2   249  ASP249     -0.2715
     47  CB       -19.2240   13.4780   25.6170 C.3   249  ASP249      0.1450
     48  CG       -19.8950   13.5810   24.2510 C.2   249  ASP249      0.3671
     49  OD1      -20.6870   12.6790   23.9000 O.co2 249  ASP249     -0.2456
     50  OD2      -19.6490   14.5840   23.5460 O.co2 249  ASP249     -0.2456
     51  N        -19.7470   10.5610   26.1320 N.am  250  LEU250     -0.1977
     52  CA       -20.3330    9.2230   25.9780 C.3   250  LEU250      0.1596
     53  C        -20.9810    8.9850   24.6150 C.2   250  LEU250      0.2287
     54  O        -20.7890    7.9230   24.0270 O.2   250  LEU250     -0.2864
     55  CB       -21.3520    8.9260   27.0960 C.3   250  LEU250      0.0297
     56  CG       -20.8090    8.4960   28.4700 C.3   250  LEU250      0.0022
     57  CD1      -21.9240    8.5250   29.5100 C.3   250  LEU250      0.0001
     58  CD2      -20.1630    7.1130   28.4200 C.3   250  LEU250      0.0001
     59  N        -20.5190   10.6600   21.6210 N.3   252  LYS252     -0.1231
     60  CA       -19.5290   10.6620   20.5390 C.3   252  LYS252      0.1693
     61  C        -18.7210    9.3560   20.4860 C.2   252  LYS252      0.2591
     62  O        -18.3920    8.8880   19.3950 O.2   252  LYS252     -0.2718
     63  CB       -18.5970   11.8760   20.6250 C.3   252  LYS252      0.0285
     64  CG       -19.2330   13.1850   20.1870 C.3   252  LYS252      0.0035
     65  CD       -18.2520   14.3390   20.3000 C.3   252  LYS252      0.0206
     66  CE       -18.7010   15.5550   19.5100 C.3   252  LYS252      0.1093
     67  NZ       -17.7720   16.7020   19.7250 N.3   252  LYS252     -0.1314
     68  N        -18.4220    8.7680   21.6500 N.am  253  LEU253     -0.1980
     69  CA       -17.8350    7.4210   21.7050 C.3   253  LEU253      0.1596
     70  C        -18.7820    6.3980   21.0970 C.2   253  LEU253      0.2287
     71  O        -18.3640    5.5940   20.2780 O.2   253  LEU253     -0.2864
     72  CB       -17.4960    7.0030   23.1440 C.3   253  LEU253      0.0297
     73  CG       -16.8130    5.6270   23.3160 C.3   253  LEU253      0.0022
     74  CD1      -15.3440    5.7070   22.9200 C.3   253  LEU253      0.0001
     75  CD2      -16.9680    5.0520   24.7230 C.3   253  LEU253      0.0001
     76  N        -19.1270    6.6520   17.2640 N.3   256  ASN256     -0.1225
     77  CA       -17.9310    6.2090   16.5480 C.3   256  ASN256      0.1785
     78  C        -17.4950    4.7540   16.7640 C.2   256  ASN256      0.2597
     79  O        -16.8130    4.1920   15.9060 O.2   256  ASN256     -0.2718
     80  CB       -16.7970    7.1890   16.8210 C.3   256  ASN256      0.1169
     81  CG       -17.0740    8.5440   16.1990 C.2   256  ASN256      0.2627
     82  OD1      -17.1400    8.6550   14.9760 O.2   256  ASN256     -0.2716
     83  ND2      -17.2930    9.5640   17.0220 N.am  256  ASN256     -0.0877
     84  N        -17.9090    4.1450   17.8770 N.am  257  MET257     -0.1979
     85  CA       -17.5980    2.7370   18.1750 C.3   257  MET257      0.1605
     86  C        -18.6390    1.7330   17.6790 C.2   257  MET257      0.2287
     87  O        -18.2860    0.5980   17.3950 O.2   257  MET257     -0.2864
     88  CB       -17.4060    2.5410   19.6850 C.3   257  MET257      0.0413
     89  CG       -16.1560    3.2030   20.2460 C.3   257  MET257      0.0598
     90  SD       -14.6390    2.5630   19.5130 S.3   257  MET257     -0.1393
     91  CE       -14.6870    0.8630   20.0660 C.3   257  MET257      0.0692
     92  N        -14.3220   -1.3230   14.7950 N.3   302  THR302     -0.1203
     93  CA       -13.8410   -0.0360   15.2950 C.3   302  THR302      0.1994
     94  C        -12.9170   -0.2430   16.4930 C.2   302  THR302      0.2618
     95  O        -13.0310   -1.2430   17.2040 O.2   302  THR302     -0.2717
     96  CB       -15.0080    0.8500   15.7730 C.3   302  THR302      0.1784
     97  OG1      -15.7670    0.1470   16.7620 O.3   302  THR302     -0.2211
     98  CG2      -15.9200    1.2220   14.6170 C.3   302  THR302      0.0376
     99  N        -12.0170    0.7090   16.7230 N.am  303  VAL303     -0.1965
    100  CA       -11.1250    0.6790   17.8820 C.3   303  VAL303      0.1727
    101  C        -10.9270    2.0890   18.4540 C.2   303  VAL303      0.2616
    102  O        -10.7500    3.0540   17.7150 O.2   303  VAL303     -0.2715
    103  CB        -9.7480    0.0540   17.5240 C.3   303  VAL303      0.0290
    104  CG1       -8.7560    0.1850   18.6810 C.3   303  VAL303      0.0023
    105  CG2       -9.9090   -1.4100   17.1310 C.3   303  VAL303      0.0023
    106  N        -10.9710    2.1900   19.7770 N.am  304  ALA304     -0.1963
    107  CA       -10.5090    3.3750   20.4910 C.3   304  ALA304      0.1728
    108  C         -9.3400    2.9460   21.3670 C.2   304  ALA304      0.2616
    109  O         -9.3780    1.8820   21.9830 O.2   304  ALA304     -0.2715
    110  CB       -11.6230    3.9570   21.3390 C.3   304  ALA304      0.0334
    111  N         -8.3020    3.7730   21.4120 N.am  305  ALA305     -0.1963
    112  CA        -7.1140    3.4830   22.2020 C.3   305  ALA305      0.1728
    113  C         -6.6700    4.7580   22.9170 C.2   305  ALA305      0.2616
    114  O         -6.5960    5.8150   22.2970 O.2   305  ALA305     -0.2715
    115  CB        -6.0120    2.9340   21.3030 C.3   305  ALA305      0.0334
    116  N         -6.3900    4.6590   24.2170 N.am  306  ILE306     -0.1977
    117  CA        -6.0110    5.8240   25.0230 C.3   306  ILE306      0.1596
    118  C         -4.5890    5.6350   25.5360 C.2   306  ILE306      0.2287
    119  O         -4.3150    4.6850   26.2730 O.2   306  ILE306     -0.2864
    120  CB        -6.9570    6.0690   26.2310 C.3   306  ILE306      0.0276
    121  CG1       -8.4360    5.8920   25.8400 C.3   306  ILE306      0.0022
    122  CG2       -6.7230    7.4640   26.8100 C.3   306  ILE306      0.0022
    123  CD1       -8.9960    4.5070   26.0950 C.3   306  ILE306      0.0001
    124  N        -10.7430    4.4840    8.3580 N.3   337  ASN337     -0.1225
    125  CA       -10.2480    5.3010    9.4620 C.3   337  ASN337      0.1785
    126  C        -10.9690    4.9720   10.7750 C.2   337  ASN337      0.2597
    127  O        -11.4520    5.8590   11.4880 O.2   337  ASN337     -0.2718
    128  CB       -10.3530    6.7790    9.0790 C.3   337  ASN337      0.1169
    129  CG        -9.7990    7.0530    7.6780 C.2   337  ASN337      0.2627
    130  OD1       -8.6180    6.8160    7.4090 O.2   337  ASN337     -0.2716
    131  ND2      -10.6580    7.5280    6.7720 N.am  337  ASN337     -0.0877
    132  N        -11.0130    3.6710   11.0790 N.am  338  ASN338     -0.1960
    133  CA       -11.8040    3.1320   12.1940 C.3   338  ASN338      0.1819
    134  C        -11.0040    2.8770   13.4660 C.2   338  ASN338      0.2621
    135  O        -11.4550    2.1430   14.3390 O.2   338  ASN338     -0.2715
    136  CB       -12.5530    1.8600   11.7590 C.3   338  ASN338      0.1195
    137  CG       -11.6260    0.7210   11.3630 C.2   338  ASN338      0.2630
    138  OD1      -10.4700    0.9340   11.0110 O.2   338  ASN338     -0.2716
    139  ND2      -12.1430   -0.4970   11.4020 N.am  338  ASN338     -0.0877
    140  N         -9.8300    3.4980   13.5730 N.am  339  VAL339     -0.1963
    141  CA        -9.0130    3.4520   14.7810 C.3   339  VAL339      0.1727
    142  C         -8.6210    4.8880   15.1500 C.2   339  VAL339      0.2616
    143  O         -7.9250    5.5540   14.3780 O.2   339  VAL339     -0.2715
    144  CB        -7.7420    2.5990   14.5660 C.3   339  VAL339      0.0290
    145  CG1       -6.9970    2.4030   15.8830 C.3   339  VAL339      0.0023
    146  CG2       -8.0940    1.2550   13.9360 C.3   339  VAL339      0.0023
    147  N         -9.0830    5.3650   16.3070 N.am  340  LYS340     -0.1963
    148  CA        -8.6720    6.6730   16.8340 C.3   340  LYS340      0.1728
    149  C         -7.9030    6.5020   18.1210 C.2   340  LYS340      0.2617
    150  O         -8.2230    5.6300   18.9380 O.2   340  LYS340     -0.2715
    151  CB        -9.8790    7.5730   17.0870 C.3   340  LYS340      0.0311
    152  CG        -9.5700    9.0150   17.5090 C.3   340  LYS340      0.0038
    153  CD        -9.1180    9.8780   16.3270 C.3   340  LYS340      0.0206
    154  CE        -8.3380   11.1170   16.7640 C.3   340  LYS340      0.1093
    155  NZ        -6.9040   10.8510   17.0720 N.3   340  LYS340     -0.1314
    156  N         -6.8990    7.3590   18.2930 N.am  341  THR341     -0.1937
    157  CA        -6.1140    7.4160   19.5110 C.3   341  THR341      0.2028
    158  C         -6.0640    8.8280   20.0840 C.2   341  THR341      0.2642
    159  O         -5.7700    9.7910   19.3670 O.2   341  THR341     -0.2714
    160  CB        -4.6860    6.8960   19.2750 C.3   341  THR341      0.1808
    161  OG1       -4.2580    7.2340   17.9490 O.3   341  THR341     -0.2208
    162  CG2       -4.6570    5.3960   19.4370 C.3   341  THR341      0.0379
    163  N         -6.3800    8.9330   21.3750 N.am  342  ALA342     -0.1977
    164  CA        -6.1760   10.1520   22.1510 C.3   342  ALA342      0.1597
    165  C         -4.9610    9.9610   23.0570 C.2   342  ALA342      0.2287
    166  O         -4.6930    8.8500   23.5240 O.2   342  ALA342     -0.2864
    167  CB        -7.4110   10.4690   22.9810 C.3   342  ALA342      0.0319
    168  N         -9.8640   -0.2160   23.6550 N.3   358  ILE358     -0.1245
    169  CA       -11.2850   -0.5440   23.5220 C.3   358  ILE358      0.1561
    170  C        -11.5150   -0.9740   22.0760 C.2   358  ILE358      0.2260
    171  O        -11.2640   -0.1990   21.1550 O.2   358  ILE358     -0.2867
    172  CB       -12.2070    0.6590   23.8340 C.3   358  ILE358      0.0252
    173  CG1      -11.8350    1.3230   25.1670 C.3   358  ILE358      0.0019
    174  CG2      -13.6720    0.2220   23.8560 C.3   358  ILE358      0.0019
    175  CD1      -12.3620    2.7330   25.3160 C.3   358  ILE358      0.0001
@<TRIPOS>BOND
     1   131   129   am
     2   130   129    2
     3   129   128    1
     4   124   125    1
     5   128   125    1
     6   125   126    1
     7   126   132   am
     8   126   127    2
     9   138   137    2
    10   132   133    1
    11   137   139   am
    12   137   136    1
    13   136   133    1
    14   133   134    1
    15   134   140   am
    16   134   135    2
    17   140   141    1
    18   146   144    1
    19   143   142    2
    20   144   141    1
    21   144   145    1
    22    98    96    1
    23   141   142    1
    24    92    93    1
    25    82    81    2
    26   142   147   am
    27    93    96    1
    28    93    94    1
    29    96    97    1
    30    79    78    2
    31    81    80    1
    32    81    83   am
    33   147   148    1
    34   153   154    1
    35   153   152    1
    36    94    99   am
    37    94    95    2
    38    77    78    1
    39    77    80    1
    40    77    76    1
    41    99   100    1
    42    78    84   am
    43   154   155    1
    44   148   151    1
    45   148   149    1
    46   151   152    1
    47   105   103    1
    48    87    86    2
    49   103   100    1
    50   103   104    1
    51    86    85    1
    52   102   101    2
    53    84    85    1
    54   100   101    1
    55   161   160    1
    56   149   156   am
    57   149   150    2
    58    85    88    1
    59   156   157    1
    60   101   106   am
    61   160   162    1
    62   160   157    1
    63   159   158    2
    64    62    61    2
    65    66    67    1
    66    66    65    1
    67   157   158    1
    68    90    91    1
    69    90    89    1
    70    88    89    1
    71   106   107    1
    72   158   163   am
    73    28    27    1
    74    64    65    1
    75    64    63    1
    76    71    70    2
    77    61    60    1
    78    61    68   am
    79   107   110    1
    80   107   108    1
    81    60    63    1
    82    60    59    1
    83    27    26    1
    84    27    29    1
    85    70    69    1
    86   171   170    2
    87   115   112    1
    88   108   111   am
    89   108   109    2
    90   163   164    1
    91   111   112    1
    92    34    35    1
    93    34    31    1
    94    23    26    1
    95    23    22    1
    96    23    24    1
    97    68    69    1
    98    69    72    1
    99    33    32    2
   100    30    24   am
   101    30    31    1
   102   170   169    1
   103   164   167    1
   104   164   165    1
   105   112   113    1
   106   114   113    2
   107    35    37   am
   108    35    36    2
   109    24    25    2
   110    31    32    1
   111    32    38   am
   112   113   116   am
   113    74    73    1
   114   165   166    2
   115    72    73    1
   116    73    75    1
   117   169   168    1
   118   169   172    1
   119    50    48   ar
   120   172   174    1
   121   172   173    1
   122    49    48   ar
   123    38    39    1
   124    54    53    2
   125   116   117    1
   126    48    47    1
   127    39    42    1
   128    39    40    1
   129    46    45    2
   130    53    52    1
   131    43    40   am
   132    43    44    1
   133   117   118    1
   134   117   120    1
   135   173   175    1
   136    40    41    2
   137    45    44    1
   138    45    51   am
   139   118   119    2
   140    47    44    1
   141    13    12    1
   142   121   123    1
   143   121   120    1
   144    52    51    1
   145    52    55    1
   146   120   122    1
   147    12     9    1
   148    55    56    1
   149     9    10    1
   150     9     8    1
   151    11    10    2
   152    58    56    1
   153    10    14   am
   154    56    57    1
   155    21    19    1
   156     6     5    1
   157     4     3    2
   158    14    15    1
   159     5     2    1
   160     5     7    1
   161    19    20    1
   162    19    18    1
   163     2     3    1
   164     2     1    1
   165    15    18    1
   166    15    16    1
   167    16    17    2
