@<TRIPOS>MOLECULE
tmp/5h7xE00.pdb
 118 115 0 0 0
SMALL
GASTEIGER

@<TRIPOS>ATOM
      1  N         24.8580    0.6860  -66.6510 N.3    16  TYR16      -0.1228
      2  CA        24.1290    0.9730  -65.4390 C.3    16  TYR16       0.1721
      3  C         24.2270    2.4620  -65.1110 C.2    16  TYR16       0.2437
      4  O         25.1670    2.8930  -64.4700 O.2    16  TYR16      -0.2733
      5  CB        24.6660    0.1520  -64.2960 C.3    16  TYR16       0.0547
      6  CG        23.9750    0.2990  -62.9470 C.ar   16  TYR16      -0.0200
      7  CD1       22.5860    0.3550  -62.8220 C.ar   16  TYR16      -0.0009
      8  CD2       24.7210    0.3110  -61.8060 C.ar   16  TYR16      -0.0009
      9  CE1       21.9730    0.4990  -61.5900 C.ar   16  TYR16       0.0417
     10  CE2       24.1180    0.3850  -60.5380 C.ar   16  TYR16       0.0417
     11  CZ        22.7660    0.4700  -60.4360 C.ar   16  TYR16       0.1957
     12  OH        22.2420    0.5230  -59.1660 O.3    16  TYR16      -0.2866
     13  N         23.2460    3.2450  -65.5720 N.am   17  PRO17      -0.2718
     14  CA        23.2900    4.6690  -65.4450 C.3    17  PRO17       0.1535
     15  C         22.6490    5.1420  -64.1700 C.2    17  PRO17       0.2599
     16  O         21.8050    4.4450  -63.6050 O.2    17  PRO17      -0.2715
     17  CB        22.4620    5.1480  -66.6210 C.3    17  PRO17       0.0310
     18  CG        21.4710    4.0680  -66.8200 C.3    17  PRO17       0.0237
     19  CD        22.0780    2.8010  -66.3400 C.3    17  PRO17       0.0939
     20  N         23.0760    6.2960  -63.6880 N.am   18  GLY18      -0.1941
     21  CA        22.5820    6.8680  -62.4450 C.3    18  GLY18       0.2014
     22  C         23.4250    8.0780  -62.0480 C.2    18  GLY18       0.2640
     23  O         24.4060    8.3960  -62.7150 O.2    18  GLY18      -0.2714
     24  N         23.0560    8.7740  -60.9890 N.am   19  THR19      -0.1936
     25  CA        23.8720    9.8920  -60.5270 C.3    19  THR19       0.2028
     26  C         24.8270    9.4820  -59.4610 C.2    19  THR19       0.2642
     27  O         25.8200   10.1590  -59.2510 O.2    19  THR19      -0.2714
     28  CB        23.0050   11.0490  -60.0450 C.3    19  THR19       0.1808
     29  OG1       22.0650   10.5320  -59.1170 O.3    19  THR19      -0.2208
     30  CG2       22.2480   11.6370  -61.2150 C.3    19  THR19       0.0379
     31  N         24.5910    8.3610  -58.8060 N.am   20  PHE20      -0.1973
     32  CA        25.5670    7.8240  -57.8630 C.3    20  PHE20       0.1639
     33  C         26.1210    8.9030  -56.9430 C.2    20  PHE20       0.2290
     34  O         27.3420    9.0780  -56.8200 O.2    20  PHE20      -0.2864
     35  CB        26.7120    7.1160  -58.6040 C.3    20  PHE20       0.0560
     36  CG        26.2450    5.9810  -59.4580 C.ar   20  PHE20      -0.0200
     37  CD1       26.1110    4.7100  -58.9420 C.ar   20  PHE20      -0.0042
     38  CD2       25.9470    6.1910  -60.7810 C.ar   20  PHE20      -0.0042
     39  CE1       25.6690    3.6570  -59.7510 C.ar   20  PHE20      -0.0003
     40  CE2       25.5200    5.1570  -61.5940 C.ar   20  PHE20      -0.0003
     41  CZ        25.3810    3.8880  -61.0750 C.ar   20  PHE20      -0.0000
     42  N         26.1820    3.6650  -53.0400 N.3    24  THR24      -0.1218
     43  CA        25.7420    3.0280  -51.7940 C.3    24  THR24       0.1862
     44  C         25.9540    1.5410  -51.9340 C.2    24  THR24       0.2287
     45  O         26.2410    1.0450  -53.0280 O.2    24  THR24      -0.2866
     46  CB        24.2260    3.2380  -51.5100 C.3    24  THR24       0.1770
     47  OG1       23.4450    2.4300  -52.3850 O.3    24  THR24      -0.2211
     48  CG2       23.8530    4.6630  -51.6830 C.3    24  THR24       0.0375
     49  N         23.8220    0.0230  -54.7420 N.3    27  HIS27      -0.1241
     50  CA        24.4350    0.0420  -56.0710 C.3    27  HIS27       0.1621
     51  C         25.5100   -1.0270  -56.1610 C.2    27  HIS27       0.2264
     52  O         25.6370   -1.6890  -57.1730 O.2    27  HIS27      -0.2867
     53  CB        25.1370    1.3570  -56.3430 C.3    27  HIS27       0.0745
     54  CG        24.2650    2.5490  -56.4140 C.ar   27  HIS27       0.0817
     55  ND1       24.2420    3.5010  -55.4180 N.ar   27  HIS27      -0.2268
     56  CD2       23.4490    3.0010  -57.3850 C.ar   27  HIS27       0.1154
     57  CE1       23.4290    4.4780  -55.7540 C.ar   27  HIS27       0.1986
     58  NE2       22.9290    4.2030  -56.9390 N.ar   27  HIS27      -0.2212
     59  N         18.7120   -1.2940  -64.8680 N.3    97  ARG97      -0.1245
     60  CA        18.1860   -0.4030  -63.8390 C.3    97  ARG97       0.1563
     61  C         17.6870   -1.2750  -62.6920 C.2    97  ARG97       0.2260
     62  O         17.2070   -2.3650  -62.8910 O.2    97  ARG97      -0.2867
     63  CB        17.0470    0.4310  -64.3880 C.3    97  ARG97       0.0307
     64  CG        17.3860    1.4060  -65.5210 C.3    97  ARG97       0.0489
     65  CD        18.2960    2.5600  -65.0890 C.3    97  ARG97       0.2205
     66  NE        17.5600    3.6210  -64.5110 N.pl3  97  ARG97      -0.0865
     67  CZ        18.0230    4.5210  -63.6350 C.cat  97  ARG97       0.5346
     68  NH1       19.2670    4.5150  -63.1800 N.pl3  97  ARG97       0.1354
     69  NH2       17.1780    5.4440  -63.1610 N.pl3  97  ARG97       0.1354
     70  N         13.2980   -0.3080  -57.1550 N.3   100  ARG100     -0.1245
     71  CA        13.0770   -0.3190  -55.7070 C.3   100  ARG100      0.1563
     72  C         11.6160   -0.3140  -55.3420 C.2   100  ARG100      0.2260
     73  O         11.2430   -0.9470  -54.3840 O.2   100  ARG100     -0.2867
     74  CB        13.7640    0.8580  -55.0120 C.3   100  ARG100      0.0307
     75  CG        15.1400    0.3800  -54.4550 C.3   100  ARG100      0.0489
     76  CD        15.8760    1.3350  -53.5070 C.3   100  ARG100      0.2205
     77  NE        14.9730    2.3200  -52.9630 N.pl3 100  ARG100     -0.0865
     78  CZ        14.7390    3.5370  -53.4610 C.cat 100  ARG100      0.5346
     79  NH1       13.8530    4.3100  -52.8580 N.pl3 100  ARG100      0.1354
     80  NH2       15.3620    3.9810  -54.5630 N.pl3 100  ARG100      0.1354
     81  N         17.7310    1.4670  -48.9290 N.3   136  ILE136     -0.1231
     82  CA        18.8250    2.4230  -49.1580 C.3   136  ILE136      0.1692
     83  C         18.5930    3.1530  -50.4630 C.2   136  ILE136      0.2593
     84  O         18.3190    2.5460  -51.5310 O.2   136  ILE136     -0.2718
     85  CB        20.1690    1.6850  -49.1920 C.3   136  ILE136      0.0266
     86  CG1       20.4070    0.9780  -47.8590 C.3   136  ILE136      0.0019
     87  CG2       21.3520    2.6210  -49.5570 C.3   136  ILE136      0.0020
     88  CD1       21.5890    0.0240  -47.9080 C.3   136  ILE136      0.0001
     89  N         18.6770    4.4790  -50.3970 N.am  137  SER137     -0.1938
     90  CA        18.8330    5.2980  -51.6050 C.3   137  SER137      0.2055
     91  C         19.8830    6.3700  -51.3220 C.2   137  SER137      0.2644
     92  O         20.1300    6.7050  -50.1570 O.2   137  SER137     -0.2714
     93  CB        17.5100    5.9880  -51.9600 C.3   137  SER137      0.2130
     94  OG        17.2380    7.0580  -51.0630 O.3   137  SER137     -0.2179
     95  N         20.4830    6.8990  -52.3450 N.am  138  SER138     -0.1935
     96  CA        21.4860    7.9610  -52.1940 C.3   138  SER138      0.2055
     97  C         20.8710    9.1990  -51.5280 C.2   138  SER138      0.2643
     98  O         21.4840    9.7940  -50.6300 O.2   138  SER138     -0.2714
     99  CB        22.1020    8.3540  -53.5620 C.3   138  SER138      0.2130
    100  OG        22.8390    7.2590  -54.0920 O.3   138  SER138     -0.2179
    101  N         19.6470    9.5360  -51.9360 N.am  139  THR139     -0.1950
    102  CA        18.9670   10.6950  -51.4290 C.3   139  THR139      0.1897
    103  C         18.8090   10.6260  -49.9610 C.2   139  THR139      0.2313
    104  O         19.1170   11.5420  -49.1990 O.2   139  THR139     -0.2863
    105  CB        17.6390   10.8610  -52.1100 C.3   139  THR139      0.1794
    106  OG1       17.9110   11.1960  -53.4800 O.3   139  THR139     -0.2208
    107  CG2       16.8180   12.0100  -51.4240 C.3   139  THR139      0.0378
    108  N         22.2200   10.8340  -48.1740 N.3   142  ARG142     -0.1245
    109  CA        22.7210   12.2000  -48.0810 C.3   142  ARG142      0.1563
    110  C         22.0600   12.9650  -46.9310 C.2   142  ARG142      0.2260
    111  O         22.7620   13.6420  -46.1670 O.2   142  ARG142     -0.2867
    112  CB        22.4610   12.9880  -49.3600 C.3   142  ARG142      0.0307
    113  CG        23.3420   12.6140  -50.5050 C.3   142  ARG142      0.0489
    114  CD        23.2950   13.6640  -51.5670 C.3   142  ARG142      0.2205
    115  NE        21.9550   13.9370  -52.0510 N.pl3 142  ARG142     -0.0865
    116  CZ        21.2840   13.1950  -52.9290 C.cat 142  ARG142      0.5346
    117  NH1       21.7720   12.0630  -53.4430 N.pl3 142  ARG142      0.1354
    118  NH2       20.0920   13.5660  -53.3340 N.pl3 142  ARG142      0.1354
@<TRIPOS>BOND
     1    18    17    1
     2    18    19    1
     3     1     2    1
     4    17    14    1
     5    19    13    1
     6    13    14    1
     7    13     3   am
     8    64    65    1
     9    64    63    1
    10    14    15    1
    11     2     3    1
    12     2     5    1
    13     3     4    2
    14    65    66    1
    15    59    60    1
    16    66    67    2
    17    63    60    1
    18     5     6    1
    19    15    20   am
    20    15    16    2
    21    60    61    1
    22    20    21    1
    23    67    68    1
    24    67    69    1
    25     6     7   ar
    26     6     8   ar
    27    62    61    2
    28     7     9   ar
    29    23    22    2
    30    21    22    1
    31    22    24   am
    32     8    10   ar
    33    40    41   ar
    34    40    38   ar
    35     9    11   ar
    36    30    28    1
    37    41    39   ar
    38    24    25    1
    39    38    36   ar
    40    10    11   ar
    41    25    28    1
    42    25    26    1
    43    11    12    1
    44    28    29    1
    45    39    37   ar
    46    26    27    2
    47    26    31   am
    48    36    37   ar
    49    36    35    1
    50    31    32    1
    51    35    32    1
    52    32    33    1
    53    56    58   ar
    54    56    54   ar
    55    52    51    2
    56    70    71    1
    57    33    34    2
    58    58    57   ar
    59    54    53    1
    60    54    55   ar
    61    53    50    1
    62    51    50    1
    63    50    49    1
    64    57    55   ar
    65    71    72    1
    66    71    74    1
    67    72    73    2
    68    74    75    1
    69    80    78    1
    70    75    76    1
    71   100    99    1
    72    99    96    1
    73    76    77    1
    74   106   105    1
    75    78    77    2
    76    78    79    1
    77   117   116    1
    78   118   116    1
    79    42    43    1
    80    45    44    2
    81   116   115    2
    82    47    46    1
    83    95    96    1
    84    95    91   am
    85    96    97    1
    86   105   102    1
    87   105   107    1
    88   115   114    1
    89    93    90    1
    90    93    94    1
    91   101    97   am
    92   101   102    1
    93    44    43    1
    94    43    46    1
    95    48    46    1
    96    90    91    1
    97    90    89    1
    98   114   113    1
    99    84    83    2
   100    97    98    2
   101   102   103    1
   102    91    92    2
   103   113   112    1
   104    83    89   am
   105    83    82    1
   106   103   104    2
   107    87    85    1
   108   112   109    1
   109    85    82    1
   110    85    86    1
   111    82    81    1
   112   108   109    1
   113   109   110    1
   114    88    86    1
   115   110   111    2
