@<TRIPOS>MOLECULE
tmp/5h85A00.pdb
 131 129 0 0 0
SMALL
GASTEIGER

@<TRIPOS>ATOM
      1  N        -14.6650  -11.3850   15.6480 N.3    30  LEU30      -0.1231
      2  CA       -15.9160  -11.0400   16.3260 C.3    30  LEU30       0.1678
      3  C        -15.7200  -10.3540   17.6750 C.2    30  LEU30       0.2434
      4  O        -16.4310   -9.3650   17.9290 O.2    30  LEU30      -0.2733
      5  CB       -16.7990  -12.2880   16.4680 C.3    30  LEU30       0.0284
      6  CG       -17.2350  -12.8940   15.1310 C.3    30  LEU30       0.0019
      7  CD1      -18.0610  -14.1630   15.3550 C.3    30  LEU30       0.0001
      8  CD2      -18.0100  -11.8760   14.3150 C.3    30  LEU30       0.0001
      9  N        -14.7960  -10.7750   18.5520 N.am   31  PRO31      -0.2718
     10  CA       -14.5910  -10.0410   19.8150 C.3    31  PRO31       0.1535
     11  C        -13.9770   -8.6630   19.6490 C.2    31  PRO31       0.2599
     12  O        -13.8120   -7.9590   20.6510 O.2    31  PRO31      -0.2715
     13  CB       -13.6310  -10.9560   20.6080 C.3    31  PRO31       0.0310
     14  CG       -13.7660  -12.3120   19.9810 C.3    31  PRO31       0.0237
     15  CD       -14.0240  -12.0360   18.5270 C.3    31  PRO31       0.0939
     16  N        -13.6030   -8.2630   18.4330 N.am   32  PHE32      -0.1960
     17  CA       -12.9030   -7.0070   18.2100 C.3    32  PHE32       0.1771
     18  C        -13.6870   -6.0290   17.3540 C.2    32  PHE32       0.2619
     19  O        -13.2090   -4.9140   17.1220 O.2    32  PHE32      -0.2715
     20  CB       -11.5330   -7.2850   17.5720 C.3    32  PHE32       0.0574
     21  CG       -10.6470   -8.1080   18.4540 C.ar   32  PHE32      -0.0200
     22  CD1       -9.8290   -7.5000   19.3960 C.ar   32  PHE32      -0.0042
     23  CD2      -10.6830   -9.4920   18.3880 C.ar   32  PHE32      -0.0042
     24  CE1       -9.0480   -8.2590   20.2360 C.ar   32  PHE32      -0.0003
     25  CE2       -9.8980  -10.2660   19.2430 C.ar   32  PHE32      -0.0003
     26  CZ        -9.0790   -9.6430   20.1580 C.ar   32  PHE32      -0.0000
     27  N        -14.8780   -6.4080   16.8840 N.am   33  ARG33      -0.1963
     28  CA       -15.6240   -5.5390   15.9800 C.3    33  ARG33       0.1729
     29  C        -16.1970   -4.3160   16.6820 C.2    33  ARG33       0.2616
     30  O        -16.3620   -3.2630   16.0470 O.2    33  ARG33      -0.2715
     31  CB       -16.7560   -6.3240   15.3210 C.3    33  ARG33       0.0348
     32  CG       -16.2470   -7.2690   14.2840 C.3    33  ARG33       0.0492
     33  CD       -17.3430   -8.1230   13.6660 C.3    33  ARG33       0.2205
     34  NE       -16.8220   -8.7090   12.4360 N.pl3  33  ARG33      -0.0865
     35  CZ       -17.1450   -8.3030   11.2110 C.cat  33  ARG33       0.5346
     36  NH1      -18.0250   -7.3240   11.0380 N.pl3  33  ARG33       0.1354
     37  NH2      -16.5860   -8.8930   10.1580 N.pl3  33  ARG33       0.1354
     38  N        -16.5360   -4.4370   17.9590 N.am   34  GLN34      -0.1964
     39  CA       -17.1660   -3.3780   18.7360 C.3    34  GLN34       0.1718
     40  C        -16.3550   -3.1120   19.9900 C.2    34  GLN34       0.2458
     41  O        -15.6300   -3.9920   20.4680 O.2    34  GLN34      -0.2730
     42  CB       -18.5990   -3.7550   19.1410 C.3    34  GLN34       0.0407
     43  CG       -19.5110   -3.9430   17.9640 C.3    34  GLN34       0.0908
     44  CD       -20.8900   -4.3560   18.4050 C.2    34  GLN34       0.2608
     45  OE1      -21.4440   -3.7980   19.3630 O.2    34  GLN34      -0.2717
     46  NE2      -21.4530   -5.3450   17.7250 N.am   34  GLN34      -0.0878
     47  N        -16.4750   -1.9180   20.5630 N.am   35  PRO35      -0.2716
     48  CA       -15.7360   -1.6290   21.7970 C.3    35  PRO35       0.1536
     49  C        -16.1150   -2.6100   22.8980 C.2    35  PRO35       0.2598
     50  O        -17.2790   -3.0040   23.0290 O.2    35  PRO35      -0.2715
     51  CB       -16.1680   -0.2010   22.1450 C.3    35  PRO35       0.0310
     52  CG       -16.5920    0.3960   20.8160 C.3    35  PRO35       0.0237
     53  CD       -17.2190   -0.7440   20.0680 C.3    35  PRO35       0.0939
     54  N        -15.1100   -3.0270   23.6750 N.am   36  VAL36      -0.1978
     55  CA       -15.3770   -3.8520   24.8490 C.3    36  VAL36       0.1596
     56  C        -16.3690   -3.1310   25.7460 C.2    36  VAL36       0.2287
     57  O        -16.1670   -1.9690   26.1170 O.2    36  VAL36      -0.2864
     58  CB       -14.0760   -4.1540   25.6050 C.3    36  VAL36       0.0276
     59  CG1      -14.3750   -4.8340   26.9600 C.3    36  VAL36       0.0022
     60  CG2      -13.1780   -5.0390   24.7460 C.3    36  VAL36       0.0022
     61  N        -20.0980   -7.5560   29.4550 N.3    41  LEU41      -0.1245
     62  CA       -19.2130   -8.6980   29.6110 C.3    41  LEU41       0.1561
     63  C        -18.9670   -9.0750   31.0660 C.2    41  LEU41       0.2260
     64  O        -18.3080  -10.0940   31.3170 O.2    41  LEU41      -0.2867
     65  CB       -17.8870   -8.4160   28.9000 C.3    41  LEU41       0.0270
     66  CG       -18.0250   -8.2740   27.3770 C.3    41  LEU41       0.0019
     67  CD1      -16.7200   -7.7450   26.7790 C.3    41  LEU41       0.0001
     68  CD2      -18.4150   -9.5970   26.7270 C.3    41  LEU41       0.0001
     69  N        -17.1310   -7.5350   33.4010 N.3    43  ILE43      -0.1245
     70  CA       -15.7200   -7.3970   33.7570 C.3    43  ILE43       0.1561
     71  C        -15.4900   -5.9710   34.2500 C.2    43  ILE43       0.2260
     72  O        -14.8460   -5.1560   33.5650 O.2    43  ILE43      -0.2867
     73  CB       -14.8100   -7.7900   32.5790 C.3    43  ILE43       0.0252
     74  CG1      -15.2770   -7.1640   31.2560 C.3    43  ILE43       0.0019
     75  CG2      -14.7660   -9.3290   32.4400 C.3    43  ILE43       0.0019
     76  CD1      -14.3490   -7.4830   30.0840 C.3    43  ILE43       0.0001
     77  N        -12.2690   -3.7030   33.7510 N.3    46  TYR46      -0.1241
     78  CA       -11.6510   -3.5670   32.4290 C.3    46  TYR46       0.1605
     79  C        -11.0510   -2.1800   32.2290 C.2    46  TYR46       0.2264
     80  O         -9.9000   -2.0460   31.7980 O.2    46  TYR46      -0.2867
     81  CB       -12.6600   -3.8630   31.3160 C.3    46  TYR46       0.0534
     82  CG       -12.0010   -3.8330   29.9380 C.ar   46  TYR46      -0.0201
     83  CD1      -11.3150   -4.9420   29.4470 C.ar   46  TYR46      -0.0009
     84  CD2      -12.0550   -2.6880   29.1460 C.ar   46  TYR46      -0.0009
     85  CE1      -10.7020   -4.9050   28.1840 C.ar   46  TYR46       0.0417
     86  CE2      -11.4480   -2.6370   27.9010 C.ar   46  TYR46       0.0417
     87  CZ       -10.7770   -3.7420   27.4210 C.ar   46  TYR46       0.1957
     88  OH       -10.1760   -3.6940   26.1760 O.3    46  TYR46      -0.2866
     89  N         -5.9090   -6.4040   24.4910 N.3    85  ALA85      -0.1245
     90  CA        -6.5360   -7.7080   24.6780 C.3    85  ALA85       0.1562
     91  C         -5.5710   -8.7050   25.3130 C.2    85  ALA85       0.2260
     92  O         -5.9660   -9.4930   26.1780 O.2    85  ALA85      -0.2867
     93  CB        -7.0640   -8.2280   23.3360 C.3    85  ALA85       0.0290
     94  N         -5.2800   -7.6720   29.1110 N.3    88  TYR88      -0.1227
     95  CA        -6.3880   -7.8950   30.0230 C.3    88  TYR88       0.1736
     96  C         -6.6870   -9.3740   30.1870 C.2    88  TYR88       0.2595
     97  O         -7.0410   -9.8190   31.2860 O.2    88  TYR88      -0.2718
     98  CB        -7.6400   -7.1580   29.5470 C.3    88  TYR88       0.0548
     99  CG        -8.7340   -7.3680   30.5440 C.ar   88  TYR88      -0.0200
    100  CD1       -8.7120   -6.6910   31.7600 C.ar   88  TYR88      -0.0009
    101  CD2       -9.7290   -8.3100   30.3270 C.ar   88  TYR88      -0.0009
    102  CE1       -9.6810   -6.9150   32.7210 C.ar   88  TYR88       0.0417
    103  CE2      -10.6990   -8.5440   31.2810 C.ar   88  TYR88       0.0417
    104  CZ       -10.6690   -7.8380   32.4730 C.ar   88  TYR88       0.1957
    105  OH       -11.6210   -8.0640   33.4280 O.3    88  TYR88      -0.2866
    106  N         -6.5530  -10.1480   29.1120 N.am   89  ASN89      -0.1974
    107  CA        -7.0870  -11.5000   29.0880 C.3    89  ASN89       0.1688
    108  C         -6.0270  -12.5320   29.4370 C.2    89  ASN89       0.2292
    109  O         -4.8350  -12.3420   29.1960 O.2    89  ASN89      -0.2864
    110  CB        -7.6880  -11.8120   27.7230 C.3    89  ASN89       0.1181
    111  CG        -8.9240  -11.0010   27.4570 C.2    89  ASN89       0.2629
    112  OD1      -10.0210  -11.3410   27.9250 O.2    89  ASN89      -0.2716
    113  ND2       -8.7560   -9.8860   26.7490 N.am   89  ASN89      -0.0877
    114  N         -9.9810  -17.7080   25.1160 N.3    94  ARG94      -0.1231
    115  CA       -10.3980  -17.6620   23.7200 C.3    94  ARG94       0.1694
    116  C        -10.0820  -16.3090   23.0940 C.2    94  ARG94       0.2591
    117  O         -9.5690  -16.2420   21.9710 O.2    94  ARG94      -0.2718
    118  CB       -11.8890  -17.9790   23.6470 C.3    94  ARG94       0.0321
    119  CG       -12.4810  -18.1050   22.2520 C.3    94  ARG94       0.0489
    120  CD       -13.9210  -18.5690   22.3800 C.3    94  ARG94       0.2205
    121  NE       -14.5640  -18.8150   21.0900 N.pl3  94  ARG94      -0.0865
    122  CZ       -15.2360  -17.8990   20.3960 C.cat  94  ARG94       0.5346
    123  NH1      -15.3340  -16.6480   20.8450 N.pl3  94  ARG94       0.1354
    124  NH2      -15.7910  -18.2330   19.2330 N.pl3  94  ARG94       0.1354
    125  N        -10.3570  -15.2190   23.8180 N.am   95  VAL95      -0.1980
    126  CA       -10.1080  -13.8840   23.2740 C.3    95  VAL95       0.1595
    127  C         -8.6180  -13.6850   23.0300 C.2    95  VAL95       0.2287
    128  O         -8.2020  -13.0860   22.0260 O.2    95  VAL95      -0.2864
    129  CB       -10.6850  -12.8060   24.2140 C.3    95  VAL95       0.0276
    130  CG1      -10.3020  -11.4120   23.7140 C.3    95  VAL95       0.0022
    131  CG2      -12.2040  -12.9140   24.2800 C.3    95  VAL95       0.0022
@<TRIPOS>BOND
     1    37    35    1
     2    36    35    1
     3    35    34    2
     4    34    33    1
     5    33    32    1
     6    32    31    1
     7     8     6    1
     8     6     7    1
     9     6     5    1
    10    31    28    1
    11     1     2    1
    12    28    29    1
    13    28    27    1
    14    30    29    2
    15     2     5    1
    16     2     3    1
    17    29    38   am
    18    27    18   am
    19    19    18    2
    20    18    17    1
    21    20    17    1
    22    20    21    1
    23     3     4    2
    24     3     9   am
    25    46    44   am
    26    38    39    1
    27    43    44    1
    28    43    42    1
    29    17    16    1
    30    23    21   ar
    31    23    25   ar
    32    44    45    2
    33    16    11   am
    34    21    22   ar
    35    15     9    1
    36    15    14    1
    37     9    10    1
    38    39    42    1
    39    39    40    1
    40   124   122    1
    41    25    26   ar
    42    22    24   ar
    43    11    10    1
    44    11    12    2
    45    10    13    1
    46    14    13    1
    47    40    41    2
    48    40    47   am
    49    53    47    1
    50    53    52    1
    51    26    24   ar
    52   122   123    1
    53   122   121    2
    54    47    48    1
    55    52    51    1
    56   121   120    1
    57    48    51    1
    58    48    49    1
    59   117   116    2
    60   128   127    2
    61   119   120    1
    62   119   118    1
    63    49    50    2
    64    49    54   am
    65   127   126    1
    66   116   115    1
    67   116   125   am
    68   126   125    1
    69   126   129    1
    70    93    90    1
    71   118   115    1
    72    54    55    1
    73   130   129    1
    74   115   114    1
    75   129   131    1
    76    89    90    1
    77    90    91    1
    78    60    58    1
    79    55    58    1
    80    55    56    1
    81    91    92    2
    82    58    59    1
    83    56    57    2
    84    88    87    1
    85    68    66    1
    86   113   111   am
    87    67    66    1
    88    66    65    1
    89    87    86   ar
    90    87    85   ar
    91   111   110    1
    92   111   112    2
    93   110   107    1
    94    86    84   ar
    95    85    83   ar
    96    65    62    1
    97   107   106    1
    98   107   108    1
    99    94    95    1
   100   106    96   am
   101    84    82   ar
   102   109   108    2
   103    83    82   ar
   104    61    62    1
   105    98    95    1
   106    98    99    1
   107    62    63    1
   108    82    81    1
   109    95    96    1
   110    76    74    1
   111    96    97    2
   112   101    99   ar
   113   101   103   ar
   114    99   100   ar
   115    63    64    2
   116    74    73    1
   117   103   104   ar
   118    81    78    1
   119   100   102   ar
   120    80    79    2
   121    79    78    1
   122    78    77    1
   123    75    73    1
   124   104   102   ar
   125   104   105    1
   126    73    70    1
   127    69    70    1
   128    72    71    2
   129    70    71    1
