@<TRIPOS>MOLECULE
tmp/5h86A00.pdb
 227 225 0 0 0
SMALL
GASTEIGER

@<TRIPOS>ATOM
      1  N         -8.5490    1.8930    3.6240 N.3    35  GLN35      -0.1231
      2  CA        -7.8060    2.3120    4.8220 C.3    35  GLN35       0.1698
      3  C         -8.2690    3.6690    5.3830 C.2    35  GLN35       0.2592
      4  O         -7.8530    4.0460    6.4720 O.2    35  GLN35      -0.2718
      5  CB        -6.2960    2.3680    4.5450 C.3    35  GLN35       0.0381
      6  CG        -5.7080    1.1540    3.8290 C.3    35  GLN35       0.0905
      7  CD        -5.8590   -0.1420    4.5990 C.2    35  GLN35       0.2608
      8  OE1       -5.7800   -0.1680    5.8180 O.2    35  GLN35      -0.2717
      9  NE2       -6.0650   -1.2270    3.8820 N.am   35  GLN35      -0.0878
     10  N         -9.1010    4.4000    4.6390 N.am   36  LEU36      -0.1980
     11  CA        -9.7280    5.6330    5.1250 C.3    36  LEU36       0.1596
     12  C        -11.2470    5.4670    5.0070 C.2    36  LEU36       0.2287
     13  O        -11.9030    6.1790    4.2390 O.2    36  LEU36      -0.2864
     14  CB        -9.2420    6.8550    4.3280 C.3    36  LEU36       0.0297
     15  CG        -7.7290    7.1270    4.3070 C.3    36  LEU36       0.0022
     16  CD1       -7.3390    8.0870    3.1980 C.3    36  LEU36       0.0001
     17  CD2       -7.2610    7.6810    5.6320 C.3    36  LEU36       0.0001
     18  N        -13.8830    8.2980    4.7020 N.3    39  MET39      -0.1245
     19  CA       -13.8690    9.1330    3.4920 C.3    39  MET39       0.1570
     20  C        -14.8740    8.5980    2.4820 C.2    39  MET39       0.2261
     21  O        -14.9060    7.3960    2.2430 O.2    39  MET39      -0.2867
     22  CB       -12.4990    9.1120    2.8100 C.3    39  MET39       0.0387
     23  CG       -11.4300    9.9230    3.4990 C.3    39  MET39       0.0595
     24  SD       -11.7280   11.6930    3.4170 S.3    39  MET39      -0.1393
     25  CE       -10.2500   12.2410    4.2590 C.3    39  MET39       0.0692
     26  N         -0.4490   17.2160    1.9330 N.3    81  ILE81      -0.1231
     27  CA        -0.6200   15.7710    1.9940 C.3    81  ILE81       0.1692
     28  C         -2.1270   15.5180    2.0210 C.2    81  ILE81       0.2592
     29  O         -2.8160   15.9700    2.9400 O.2    81  ILE81      -0.2718
     30  CB         0.0120   15.1620    3.2620 C.3    81  ILE81       0.0266
     31  CG1        1.4890   15.5510    3.4050 C.3    81  ILE81       0.0019
     32  CG2       -0.1560   13.6450    3.2720 C.3    81  ILE81       0.0020
     33  CD1        2.3800   15.0380    2.2970 C.3    81  ILE81       0.0001
     34  N         -2.6370   14.7950    1.0290 N.am   82  VAL82      -0.1966
     35  CA        -4.0870   14.6210    0.8760 C.3    82  VAL82       0.1727
     36  C         -4.5630   13.2760    1.4410 C.2    82  VAL82       0.2616
     37  O         -5.4900   13.2320    2.2510 O.2    82  VAL82      -0.2715
     38  CB        -4.5030   14.8230   -0.6030 C.3    82  VAL82       0.0290
     39  CG1       -5.9690   14.4810   -0.8280 C.3    82  VAL82       0.0023
     40  CG2       -4.2270   16.2650   -1.0130 C.3    82  VAL82       0.0023
     41  N         -3.9560   12.1780    0.9950 N.am   83  PHE83      -0.1960
     42  CA        -4.2460   10.8620    1.5700 C.3    83  PHE83       0.1771
     43  C         -2.9290   10.1370    1.8330 C.2    83  PHE83       0.2620
     44  O         -1.9740   10.2860    1.0640 O.2    83  PHE83      -0.2715
     45  CB        -5.0910    9.9930    0.6280 C.3    83  PHE83       0.0574
     46  CG        -6.3810   10.6190    0.1790 C.ar   83  PHE83      -0.0200
     47  CD1       -7.2950   11.1160    1.0960 C.ar   83  PHE83      -0.0042
     48  CD2       -6.6980   10.6790   -1.1770 C.ar   83  PHE83      -0.0042
     49  CE1       -8.4820   11.6860    0.6790 C.ar   83  PHE83      -0.0003
     50  CE2       -7.8930   11.2380   -1.5970 C.ar   83  PHE83      -0.0003
     51  CZ        -8.7850   11.7390   -0.6700 C.ar   83  PHE83      -0.0000
     52  N         -2.9110    9.3060    2.8680 N.am   84  CYS84      -0.1954
     53  CA        -1.7230    8.5570    3.2440 C.3    84  CYS84       0.1843
     54  C         -2.1530    7.2110    3.8060 C.2    84  CYS84       0.2625
     55  O         -2.8090    7.1570    4.8510 O.2    84  CYS84      -0.2714
     56  CB        -0.9340    9.3380    4.2930 C.3    84  CYS84       0.0997
     57  SG         0.6050    8.5560    4.8000 S.3    84  CYS84      -0.0797
     58  N         -1.9050    6.1540    3.0190 N.am   85  ALA85      -0.1963
     59  CA        -2.2630    4.8450    3.5440 C.3    85  ALA85       0.1728
     60  C         -1.3060    3.7410    3.1100 C.2    85  ALA85       0.2616
     61  O         -0.6470    3.8400    2.0790 O.2    85  ALA85      -0.2715
     62  CB        -3.6870    4.4910    3.1450 C.3    85  ALA85       0.0334
     63  N         -1.2620    2.6820    3.9050 N.am   86  VAL86      -0.1977
     64  CA        -0.5790    1.4510    3.5470 C.3    86  VAL86       0.1596
     65  C         -1.6070    0.3380    3.6800 C.2    86  VAL86       0.2287
     66  O         -2.4090    0.3460    4.6090 O.2    86  VAL86      -0.2864
     67  CB         0.6230    1.1640    4.4660 C.3    86  VAL86       0.0276
     68  CG1        1.0460   -0.2920    4.3530 C.3    86  VAL86       0.0022
     69  CG2        1.7820    2.0900    4.1350 C.3    86  VAL86       0.0022
     70  N          1.1030   -3.3620    6.6680 N.3    91  GLN91      -0.1231
     71  CA         1.3290   -2.3770    7.7160 C.3    91  GLN91       0.1698
     72  C          2.2910   -2.8710    8.7940 C.2    91  GLN91       0.2592
     73  O          2.4730   -4.0700    8.9770 O.2    91  GLN91      -0.2718
     74  CB         0.0050   -1.9630    8.3580 C.3    91  GLN91       0.0381
     75  CG        -0.8350   -1.0290    7.5090 C.3    91  GLN91       0.0905
     76  CD        -1.9620   -0.3930    8.2930 C.2    91  GLN91       0.2608
     77  OE1       -1.9590   -0.4000    9.5200 O.2    91  GLN91      -0.2717
     78  NE2       -2.9340    0.1570    7.5860 N.am   91  GLN91      -0.0878
     79  N          2.9060   -1.9240    9.4940 N.am   92  VAL92      -0.1966
     80  CA         3.7710   -2.2270   10.6250 C.3    92  VAL92       0.1727
     81  C          5.0480   -2.9570   10.2260 C.2    92  VAL92       0.2616
     82  O          5.6060   -3.7130   11.0130 O.2    92  VAL92      -0.2715
     83  CB         3.0270   -3.0470   11.6980 C.3    92  VAL92       0.0290
     84  CG1        3.8340   -3.1040   12.9850 C.3    92  VAL92       0.0023
     85  CG2        1.6520   -2.4550   11.9560 C.3    92  VAL92       0.0023
     86  N          5.4850   -2.7480    8.9900 N.am   93  LYS93      -0.1963
     87  CA         6.7700   -3.2550    8.5270 C.3    93  LYS93       0.1728
     88  C          7.7990   -2.1490    8.2580 C.2    93  LYS93       0.2617
     89  O          8.9460   -2.4360    7.9400 O.2    93  LYS93      -0.2715
     90  CB         6.5770   -4.1090    7.2720 C.3    93  LYS93       0.0311
     91  CG         5.6700   -5.3080    7.4780 C.3    93  LYS93       0.0038
     92  CD         5.3430   -5.9890    6.1620 C.3    93  LYS93       0.0206
     93  CE         4.4190   -7.1760    6.3760 C.3    93  LYS93       0.1093
     94  NZ         4.1920   -7.9480    5.1250 N.3    93  LYS93      -0.1314
     95  N          7.3860   -0.8910    8.3890 N.am   94  GLY94      -0.1940
     96  CA         8.2370    0.2420    8.0260 C.3    94  GLY94       0.2014
     97  C          7.8580    0.9870    6.7470 C.2    94  GLY94       0.2639
     98  O          8.4630    2.0110    6.4370 O.2    94  GLY94      -0.2714
     99  N          6.8490    0.5040    6.0180 N.am   95  TYR95      -0.1959
    100  CA         6.5010    1.0810    4.7170 C.3    95  TYR95       0.1771
    101  C          5.9180    2.4910    4.7960 C.2    95  TYR95       0.2620
    102  O          6.2290    3.3240    3.9570 O.2    95  TYR95      -0.2715
    103  CB         5.5450    0.1690    3.9360 C.3    95  TYR95       0.0574
    104  CG         6.1810   -1.0940    3.4080 C.ar   95  TYR95      -0.0198
    105  CD1        7.4130   -1.0650    2.7580 C.ar   95  TYR95      -0.0009
    106  CD2        5.5420   -2.3230    3.5420 C.ar   95  TYR95      -0.0009
    107  CE1        7.9930   -2.2210    2.2710 C.ar   95  TYR95       0.0417
    108  CE2        6.1180   -3.4900    3.0570 C.ar   95  TYR95       0.0417
    109  CZ         7.3420   -3.4260    2.4240 C.ar   95  TYR95       0.1957
    110  OH         7.9150   -4.5670    1.9400 O.3    95  TYR95      -0.2866
    111  N          5.0930    2.7430    5.8070 N.am   96  GLY96      -0.1940
    112  CA         4.4840    4.0440    5.9670 C.3    96  GLY96       0.2014
    113  C          5.5520    5.0920    6.1820 C.2    96  GLY96       0.2639
    114  O          5.4840    6.1690    5.6080 O.2    96  GLY96      -0.2714
    115  N          6.5420    4.7660    7.0060 N.am   97  THR97      -0.1950
    116  CA         7.7170    5.6100    7.1860 C.3    97  THR97       0.1897
    117  C          8.5560    5.7100    5.9110 C.2    97  THR97       0.2313
    118  O          9.0600    6.7780    5.5720 O.2    97  THR97      -0.2863
    119  CB         8.6000    5.1190    8.3510 C.3    97  THR97       0.1794
    120  OG1        7.8740    5.2250    9.5790 O.3    97  THR97      -0.2208
    121  CG2        9.8730    5.9470    8.4470 C.3    97  THR97       0.0378
    122  N         -0.8940   18.8860    6.3640 N.3   117  THR117     -0.1203
    123  CA        -1.8600   17.7980    6.3060 C.3   117  THR117      0.1994
    124  C         -2.8730   18.0000    7.4200 C.2   117  THR117      0.2618
    125  O         -2.5620   18.6160    8.4430 O.2   117  THR117     -0.2717
    126  CB        -1.1630   16.4240    6.4770 C.3   117  THR117      0.1784
    127  OG1       -2.0590   15.3590    6.1150 O.3   117  THR117     -0.2211
    128  CG2       -0.6740   16.2290    7.9130 C.3   117  THR117      0.0376
    129  N         -4.0910   17.5150    7.2030 N.am  118  TYR118     -0.1961
    130  CA        -5.0350   17.3290    8.2940 C.3   118  TYR118      0.1771
    131  C         -4.8530   15.9030    8.7770 C.2   118  TYR118      0.2619
    132  O         -4.4740   15.0210    8.0130 O.2   118  TYR118     -0.2715
    133  CB        -6.4750   17.6230    7.8540 C.3   118  TYR118      0.0574
    134  CG        -6.7880   19.1050    7.9220 C.ar  118  TYR118     -0.0198
    135  CD1       -7.2190   19.6940    9.1090 C.ar  118  TYR118     -0.0009
    136  CD2       -6.6130   19.9250    6.8120 C.ar  118  TYR118     -0.0009
    137  CE1       -7.4860   21.0500    9.1820 C.ar  118  TYR118      0.0417
    138  CE2       -6.8780   21.2800    6.8750 C.ar  118  TYR118      0.0417
    139  CZ        -7.3160   21.8360    8.0620 C.ar  118  TYR118      0.1957
    140  OH        -7.5700   23.1820    8.1130 O.3   118  TYR118     -0.2866
    141  N         -5.0540   15.6790   10.0600 N.am  119  ALA119     -0.1963
    142  CA        -4.9510   14.3360   10.6030 C.3   119  ALA119      0.1728
    143  C         -6.1700   14.0800   11.4620 C.2   119  ALA119      0.2616
    144  O         -6.5860   14.9490   12.2310 O.2   119  ALA119     -0.2715
    145  CB        -3.6830   14.2020   11.4290 C.3   119  ALA119      0.0334
    146  N         -6.7590   12.8970   11.3320 N.am  120  ASP120     -0.1971
    147  CA        -7.6980   12.4580   12.3470 C.3   120  ASP120      0.1709
    148  C         -6.9040   12.1230   13.6130 C.2   120  ASP120      0.2293
    149  O         -5.6980   11.8620   13.5550 O.2   120  ASP120     -0.2864
    150  CB        -8.5700   11.2850   11.8860 C.3   120  ASP120      0.1436
    151  CG        -7.7800   10.1540   11.2680 C.2   120  ASP120      0.3671
    152  OD1       -8.3100    9.0280   11.2710 O.co2 120  ASP120     -0.2456
    153  OD2       -6.6530   10.3750   10.7730 O.co2 120  ASP120     -0.2456
    154  N         -6.6340    9.6490   15.7200 N.3   122  TYR122     -0.1227
    155  CA        -5.9740    8.3510   15.9400 C.3   122  TYR122      0.1736
    156  C         -4.8040    8.0790   14.9860 C.2   122  TYR122      0.2595
    157  O         -4.1760    7.0260   15.0720 O.2   122  TYR122     -0.2718
    158  CB        -6.9910    7.2030   15.8690 C.3   122  TYR122      0.0548
    159  CG        -8.1980    7.3880   16.7680 C.ar  122  TYR122     -0.0200
    160  CD1       -8.1360    8.1850   17.9170 C.ar  122  TYR122     -0.0009
    161  CD2       -9.4070    6.7610   16.4730 C.ar  122  TYR122     -0.0009
    162  CE1       -9.2380    8.3440   18.7380 C.ar  122  TYR122      0.0417
    163  CE2      -10.5110    6.9140   17.2970 C.ar  122  TYR122      0.0417
    164  CZ       -10.4180    7.7080   18.4200 C.ar  122  TYR122      0.1957
    165  OH       -11.5110    7.8650   19.2280 O.3   122  TYR122     -0.2866
    166  N         -4.5140    9.0300   14.0950 N.am  123  ALA123     -0.1980
    167  CA        -3.3390    8.9650   13.2140 C.3   123  ALA123      0.1597
    168  C         -2.2720   10.0000   13.5710 C.2   123  ALA123      0.2287
    169  O         -1.2020   10.0140   12.9660 O.2   123  ALA123     -0.2864
    170  CB        -3.7690    9.1460   11.7690 C.3   123  ALA123      0.0319
    171  N         -0.0920   10.3280   15.8890 N.3   125  GLY125     -0.1210
    172  CA         1.2110    9.7790   16.2690 C.3   125  GLY125      0.1956
    173  C          2.0780    9.3490   15.0970 C.2   125  GLY125      0.2612
    174  O          3.3050    9.4540   15.1530 O.2   125  GLY125     -0.2717
    175  N          1.4540    8.8470   14.0330 N.am  126  TYR126     -0.1962
    176  CA         2.1940    8.5320   12.8060 C.3   126  TYR126      0.1771
    177  C          2.8660    9.7940   12.2770 C.2   126  TYR126      0.2619
    178  O          4.0670    9.8000   12.0030 O.2   126  TYR126     -0.2715
    179  CB         1.2780    7.9270   11.7300 C.3   126  TYR126      0.0574
    180  CG         1.8810    7.9480   10.3480 C.ar  126  TYR126     -0.0198
    181  CD1        2.9020    7.0750   10.0010 C.ar  126  TYR126     -0.0009
    182  CD2        1.4430    8.8600    9.3880 C.ar  126  TYR126     -0.0009
    183  CE1        3.4690    7.1060    8.7390 C.ar  126  TYR126      0.0417
    184  CE2        2.0010    8.8920    8.1260 C.ar  126  TYR126      0.0417
    185  CZ         3.0190    8.0120    7.8080 C.ar  126  TYR126      0.1957
    186  OH         3.5800    8.0380    6.5510 O.3   126  TYR126     -0.2866
    187  N          2.0980   10.8710   12.1560 N.am  127  PHE127     -0.1974
    188  CA         2.6440   12.1300   11.6530 C.3   127  PHE127      0.1639
    189  C          3.7080   12.6980   12.5890 C.2   127  PHE127      0.2290
    190  O          4.7350   13.1990   12.1380 O.2   127  PHE127     -0.2864
    191  CB         1.5130   13.1230   11.3890 C.3   127  PHE127      0.0560
    192  CG         0.6270   12.7110   10.2520 C.ar  127  PHE127     -0.0200
    193  CD1        1.0800   12.8040    8.9470 C.ar  127  PHE127     -0.0042
    194  CD2       -0.6360   12.1910   10.4870 C.ar  127  PHE127     -0.0042
    195  CE1        0.2770   12.4170    7.8880 C.ar  127  PHE127     -0.0003
    196  CE2       -1.4450   11.7940    9.4350 C.ar  127  PHE127     -0.0003
    197  CZ        -0.9870   11.9090    8.1350 C.ar  127  PHE127     -0.0000
    198  N          5.6910   10.9650   14.4480 N.3   129  LYS129     -0.1231
    199  CA         6.8940   10.1730   14.1970 C.3   129  LYS129      0.1693
    200  C          7.6280   10.6420   12.9320 C.2   129  LYS129      0.2591
    201  O          8.8510   10.5710   12.8670 O.2   129  LYS129     -0.2718
    202  CB         6.5800    8.6730   14.1210 C.3   129  LYS129      0.0285
    203  CG         7.7180    7.8830   13.5010 C.3   129  LYS129      0.0035
    204  CD         7.9150    6.5110   14.0870 C.3   129  LYS129      0.0206
    205  CE         9.1770    5.8730   13.5110 C.3   129  LYS129      0.1093
    206  NZ         9.1330    5.8030   12.0200 N.3   129  LYS129     -0.1314
    207  N          6.9110   11.1590   11.9650 N.am  130  GLN130     -0.1979
    208  CA         7.4650   11.6110   10.7290 C.3   130  GLN130      0.1601
    209  C          7.9040   13.0650   10.8470 C.2   130  GLN130      0.2287
    210  O          8.2060   13.6620    9.8650 O.2   130  GLN130     -0.2864
    211  CB         6.4260   11.4440    9.5950 C.3   130  GLN130      0.0394
    212  CG         5.8440   10.0710    9.3060 C.3   130  GLN130      0.0908
    213  CD         6.7960    8.9380    9.5150 C.2   130  GLN130      0.2608
    214  OE1        7.8550    8.9180    8.9960 O.2   130  GLN130     -0.2717
    215  NE2        6.3840    7.9970   10.2650 N.am  130  GLN130     -0.0878
    216  N        -11.2740   19.4200    6.9100 N.3   150  TYR150     -0.1241
    217  CA       -12.2100   18.3920    7.3510 C.3   150  TYR150      0.1605
    218  C        -12.7210   18.7350    8.7390 C.2   150  TYR150      0.2264
    219  O        -11.9760   19.2590    9.5660 O.2   150  TYR150     -0.2867
    220  CB       -11.5120   17.0340    7.3900 C.3   150  TYR150      0.0534
    221  CG       -10.9190   16.6370    6.0660 C.ar  150  TYR150     -0.0201
    222  CD1      -11.6670   15.9190    5.1370 C.ar  150  TYR150     -0.0009
    223  CD2       -9.6170   16.9960    5.7280 C.ar  150  TYR150     -0.0009
    224  CE1      -11.1330   15.5590    3.9130 C.ar  150  TYR150      0.0417
    225  CE2       -9.0740   16.6420    4.5030 C.ar  150  TYR150      0.0417
    226  CZ        -9.8340   15.9210    3.6020 C.ar  150  TYR150      0.1957
    227  OH        -9.3120   15.5690    2.3840 O.3   150  TYR150     -0.2866
@<TRIPOS>BOND
     1    50    48   ar
     2    50    51   ar
     3    48    46   ar
     4    40    38    1
     5    39    38    1
     6    51    49   ar
     7    38    35    1
     8    46    45    1
     9    46    47   ar
    10    45    42    1
    11    49    47   ar
    12    35    34    1
    13    35    36    1
    14    41    36   am
    15    41    42    1
    16    34    28   am
    17    44    43    2
    18    36    37    2
    19    42    43    1
    20    43    52   am
    21    26    27    1
    22   110   109    1
    23    27    28    1
    24    27    30    1
    25    28    29    2
    26    61    60    2
    27    21    20    2
    28   107   109   ar
    29   107   105   ar
    30    33    31    1
    31   227   226    1
    32   109   108   ar
    33    20    19    1
    34   105   104   ar
    35    22    19    1
    36    22    23    1
    37    52    53    1
    38    58    59    1
    39    58    54   am
    40   108   106   ar
    41    60    59    1
    42    60    63   am
    43    62    59    1
    44    16    15    1
    45    53    54    1
    46    53    56    1
    47    30    32    1
    48    30    31    1
    49   104   106   ar
    50   104   103    1
    51    24    23    1
    52    24    25    1
    53    19    18    1
    54    64    65    1
    55    64    63    1
    56    64    67    1
    57   226   224   ar
    58   226   225   ar
    59     1     2    1
    60    65    66    2
    61    54    55    2
    62     6     5    1
    63     6     7    1
    64     9     7   am
    65   224   222   ar
    66   103   100    1
    67   102   101    2
    68    69    67    1
    69    13    12    2
    70    56    57    1
    71    15    14    1
    72    15    17    1
    73    14    11    1
    74    68    67    1
    75   225   223   ar
    76     5     2    1
    77     7     8    2
    78    10    11    1
    79    10     3   am
    80   100   101    1
    81   100    99    1
    82   101   111   am
    83     2     3    1
    84    12    11    1
    85    94    93    1
    86   222   221   ar
    87     3     4    2
    88   118   117    2
    89   114   113    2
    90   223   221   ar
    91   111   112    1
    92   117   116    1
    93   112   113    1
    94    99    97   am
    95   221   220    1
    96   127   126    1
    97    92    93    1
    98    92    91    1
    99   113   115   am
   100   123   122    1
   101   123   126    1
   102   123   124    1
   103    98    97    2
   104   126   128    1
   105   186   185    1
   106    70    71    1
   107    97    96    1
   108   136   138   ar
   109   136   134   ar
   110   138   139   ar
   111   216   217    1
   112   115   116    1
   113   116   119    1
   114   129   124   am
   115   129   130    1
   116    90    91    1
   117    90    87    1
   118   217   220    1
   119   217   218    1
   120   124   125    2
   121    75    76    1
   122    75    74    1
   123    78    76   am
   124    71    74    1
   125    71    72    1
   126   185   184   ar
   127   185   183   ar
   128   133   134    1
   129   133   130    1
   130   195   197   ar
   131   195   193   ar
   132   134   135   ar
   133    89    88    2
   134   132   131    2
   135    96    95    1
   136   139   140    1
   137   139   137   ar
   138   184   182   ar
   139   197   196   ar
   140    88    95   am
   141    88    87    1
   142    76    77    2
   143   130   131    1
   144   119   121    1
   145   119   120    1
   146    87    86    1
   147   218   219    2
   148   183   181   ar
   149   131   141   am
   150    72    73    2
   151    72    79   am
   152   193   192   ar
   153    86    81   am
   154   214   213    2
   155   135   137   ar
   156   212   213    1
   157   212   211    1
   158   182   180   ar
   159   196   194   ar
   160    79    80    1
   161   213   215   am
   162   211   208    1
   163   210   209    2
   164   181   180   ar
   165   141   142    1
   166    81    80    1
   167    81    82    2
   168   192   194   ar
   169   192   191    1
   170   180   179    1
   171   142   145    1
   172   142   143    1
   173    80    83    1
   174   208   209    1
   175   208   207    1
   176   153   151   ar
   177   151   152   ar
   178   151   150    1
   179   146   143   am
   180   146   147    1
   181   191   188    1
   182   143   144    2
   183   188   187    1
   184   188   189    1
   185    83    85    1
   186    83    84    1
   187   179   176    1
   188   170   167    1
   189   150   147    1
   190   207   200   am
   191   178   177    2
   192   206   205    1
   193   190   189    2
   194   187   177   am
   195   177   176    1
   196   147   148    1
   197   176   175    1
   198   201   200    2
   199   200   199    1
   200   169   168    2
   201   167   168    1
   202   167   166    1
   203   203   204    1
   204   203   202    1
   205   205   204    1
   206   149   148    2
   207   175   173   am
   208   166   156   am
   209   202   199    1
   210   199   198    1
   211   156   157    2
   212   156   155    1
   213   173   174    2
   214   173   172    1
   215   154   155    1
   216   158   155    1
   217   158   159    1
   218   171   172    1
   219   161   159   ar
   220   161   163   ar
   221   159   160   ar
   222   163   164   ar
   223   160   162   ar
   224   164   162   ar
   225   164   165    1
