@<TRIPOS>MOLECULE
tmp/5h8eA00.pdb
 187 177 0 0 0
SMALL
GASTEIGER

@<TRIPOS>ATOM
      1  N         13.8570   77.9980   30.0950 N.3    42  ARG42      -0.1245
      2  CA        13.4280   77.0900   29.0280 C.3    42  ARG42       0.1563
      3  C         13.2850   75.6750   29.5420 C.2    42  ARG42       0.2260
      4  O         13.8390   75.3580   30.5940 O.2    42  ARG42      -0.2867
      5  CB        14.4030   77.1500   27.8310 C.3    42  ARG42       0.0307
      6  CG        15.8460   76.7090   28.1230 C.3    42  ARG42       0.0489
      7  CD        16.7330   77.1200   26.9520 C.3    42  ARG42       0.2205
      8  NE        18.1570   76.8910   27.1960 N.pl3  42  ARG42      -0.0865
      9  CZ        18.8040   75.7750   26.8770 C.cat  42  ARG42       0.5346
     10  NH1       18.1610   74.7660   26.2980 N.pl3  42  ARG42       0.1354
     11  NH2       20.0970   75.6570   27.1320 N.pl3  42  ARG42       0.1354
     12  N         14.0600   71.7060   29.6160 N.3    44  LEU44      -0.1231
     13  CA        15.2430   70.8930   29.3440 C.3    44  LEU44       0.1693
     14  C         14.8880   69.4420   29.0850 C.2    44  LEU44       0.2593
     15  O         15.6110   68.7500   28.3670 O.2    44  LEU44      -0.2718
     16  CB        16.2320   70.9480   30.5210 C.3    44  LEU44       0.0284
     17  CG        16.9280   72.2680   30.8280 C.3    44  LEU44       0.0019
     18  CD1       17.8330   72.1050   32.0580 C.3    44  LEU44       0.0001
     19  CD2       17.7020   72.8200   29.5870 C.3    44  LEU44       0.0001
     20  N         13.8280   68.9730   29.7310 N.am   45  GLY45      -0.1942
     21  CA        13.4160   67.5850   29.6310 C.3    45  GLY45       0.2014
     22  C         12.2450   67.2370   30.5090 C.2    45  GLY45       0.2639
     23  O         11.5690   68.1170   31.0560 O.2    45  GLY45      -0.2714
     24  N         11.9910   65.9380   30.6200 N.am   46  ARG46      -0.1963
     25  CA        10.8910   65.3760   31.4060 C.3    46  ARG46       0.1729
     26  C         11.1260   63.9000   31.7020 C.2    46  ARG46       0.2616
     27  O         11.9910   63.2600   31.0950 O.2    46  ARG46      -0.2715
     28  CB         9.5380   65.5590   30.6920 C.3    46  ARG46       0.0348
     29  CG         9.4720   64.8880   29.3280 C.3    46  ARG46       0.0492
     30  CD         8.1060   65.0050   28.6950 C.3    46  ARG46       0.2205
     31  NE         8.0940   64.4030   27.3610 N.pl3  46  ARG46      -0.0865
     32  CZ         8.2540   65.0840   26.2300 C.cat  46  ARG46       0.5346
     33  NH1        8.4210   66.4010   26.2580 N.pl3  46  ARG46       0.1354
     34  NH2        8.2450   64.4540   25.0640 N.pl3  46  ARG46       0.1354
     35  N         10.3270   63.3840   32.6180 N.am   47  GLY47      -0.1955
     36  CA        10.3360   61.9840   33.0090 C.3    47  GLY47       0.1869
     37  C          8.9450   61.5500   33.3870 C.2    47  GLY47       0.2309
     38  O          7.9940   62.3230   33.2460 O.2    47  GLY47      -0.2863
     39  N          8.4550   63.9240   36.5470 N.3    50  SER50      -0.1217
     40  CA         8.7060   65.3670   36.5200 C.3    50  SER50       0.1889
     41  C          8.8970   66.0190   35.1390 C.2    50  SER50       0.2288
     42  O          9.0070   65.3440   34.1150 O.2    50  SER50      -0.2866
     43  CB         9.9340   65.6730   37.3810 C.3    50  SER50       0.2089
     44  OG        11.1020   65.1250   36.7940 O.3    50  SER50      -0.2183
     45  N         11.5230   69.1100   33.6830 N.3    52  VAL52      -0.1245
     46  CA        12.7950   69.7400   34.0120 C.3    52  VAL52       0.1561
     47  C         13.0210   71.0060   33.1920 C.2    52  VAL52       0.2260
     48  O         12.8400   71.0110   31.9680 O.2    52  VAL52      -0.2867
     49  CB        13.9350   68.7000   33.8650 C.3    52  VAL52       0.0252
     50  CG1       15.2880   69.2790   34.2670 C.3    52  VAL52       0.0019
     51  CG2       13.6220   67.4380   34.6700 C.3    52  VAL52       0.0019
     52  N         18.9230   74.3380   37.6740 N.3    65  VAL65      -0.1245
     53  CA        18.0380   73.3550   37.0630 C.3    65  VAL65       0.1561
     54  C         16.8570   73.1730   38.0260 C.2    65  VAL65       0.2260
     55  O         17.0660   72.9700   39.2280 O.2    65  VAL65      -0.2867
     56  CB        18.7730   72.0290   36.7160 C.3    65  VAL65       0.0252
     57  CG1       17.7880   70.8800   36.4830 C.3    65  VAL65       0.0019
     58  CG2       19.6520   72.2270   35.4800 C.3    65  VAL65       0.0019
     59  N         13.3680   71.0780   38.8040 N.3    67  LYS67      -0.1245
     60  CA        12.6390   69.8310   38.5880 C.3    67  LYS67       0.1561
     61  C         11.2600   69.9770   39.2330 C.2    67  LYS67       0.2260
     62  O         11.1360   69.8870   40.4690 O.2    67  LYS67      -0.2867
     63  CB        13.4240   68.6770   39.2200 C.3    67  LYS67       0.0271
     64  CG        12.7980   67.3010   39.0940 C.3    67  LYS67       0.0035
     65  CD        13.5490   66.3740   40.0630 C.3    67  LYS67       0.0206
     66  CE        13.2950   64.9460   39.7520 C.3    67  LYS67       0.1093
     67  NZ        14.1880   64.0680   40.5460 N.3    67  LYS67      -0.1314
     68  N         25.0800   65.3650   42.7550 N.3    94  ILE94      -0.1245
     69  CA        24.4300   66.6320   42.4180 C.3    94  ILE94       0.1561
     70  C         24.0630   67.3880   43.7080 C.2    94  ILE94       0.2260
     71  O         23.5950   66.7720   44.6690 O.2    94  ILE94      -0.2867
     72  CB        23.1760   66.4170   41.4880 C.3    94  ILE94       0.0252
     73  CG1       22.7100   67.7520   40.8280 C.3    94  ILE94       0.0019
     74  CG2       21.9960   65.7240   42.2390 C.3    94  ILE94       0.0019
     75  CD1       23.6880   68.3100   39.6950 C.3    94  ILE94       0.0001
     76  N         18.3620   72.4290   41.5510 N.3   112  PHE112     -0.1227
     77  CA        19.6730   71.8050   41.5060 C.3   112  PHE112      0.1736
     78  C         20.7200   72.6700   40.9040 C.2   112  PHE112      0.2598
     79  O         20.4230   73.5320   40.0790 O.2   112  PHE112     -0.2717
     80  CB        19.6010   70.4840   40.7000 C.3   112  PHE112      0.0547
     81  CG        18.7020   69.4420   41.3430 C.ar  112  PHE112     -0.0202
     82  CD1       19.1840   68.6090   42.3540 C.ar  112  PHE112     -0.0042
     83  CD2       17.3710   69.3060   40.9470 C.ar  112  PHE112     -0.0042
     84  CE1       18.3550   67.6380   42.9350 C.ar  112  PHE112     -0.0003
     85  CE2       16.5460   68.3450   41.5380 C.ar  112  PHE112     -0.0003
     86  CZ        17.0460   67.5150   42.5260 C.ar  112  PHE112     -0.0000
     87  N         21.9710   72.4120   41.2990 N.am  113  GLU113     -0.1920
     88  CA        23.1740   72.9820   40.6900 C.3   113  GLU113      0.1949
     89  C         23.0970   72.6010   39.1690 C.2   113  GLU113      0.2659
     90  O         22.6370   71.4950   38.8180 O.2   113  GLU113     -0.2711
     91  CB        24.4270   72.3490   41.3590 C.2   113  GLU113      0.0111
     92  CG        25.3770   71.5920   40.4490 C.2   113  GLU113      0.0838
     93  CD        26.4460   70.7160   41.0760 C.2   113  GLU113      0.3877
     94  OE1       27.6150   70.8260   40.6380 O.co2 113  GLU113     -0.2406
     95  OE2       26.1100   69.8540   41.9210 O.co2 113  GLU113     -0.2406
     96  N         23.4980   73.5220   38.2900 N.am  114  HIS114     -0.1956
     97  CA        23.4750   73.2900   36.8430 C.3   114  HIS114      0.1787
     98  C         24.8030   72.6770   36.3960 C.2   114  HIS114      0.2620
     99  O         25.8610   73.1160   36.8240 O.2   114  HIS114     -0.2715
    100  CB        23.2210   74.6110   36.0940 C.3   114  HIS114      0.0785
    101  CG        23.2210   74.4940   34.5930 C.ar  114  HIS114      0.0821
    102  ND1       24.3850   74.6480   33.8540 N.ar  114  HIS114     -0.2267
    103  CD2       22.1920   74.2860   33.7390 C.ar  114  HIS114      0.1154
    104  CE1       24.0350   74.4980   32.5890 C.ar  114  HIS114      0.1986
    105  NE2       22.7260   74.2840   32.4670 N.ar  114  HIS114     -0.2212
    106  N         24.7440   71.6940   35.5070 N.am  115  VAL115     -0.1963
    107  CA        25.9340   71.0920   34.9050 C.3   115  VAL115      0.1727
    108  C         25.7910   71.3260   33.4080 C.2   115  VAL115      0.2616
    109  O         24.7230   71.0210   32.8590 O.2   115  VAL115     -0.2715
    110  CB        26.0870   69.5700   35.2330 C.3   115  VAL115      0.0290
    111  CG1       27.2670   68.9420   34.4700 C.3   115  VAL115      0.0023
    112  CG2       26.2360   69.3500   36.7370 C.3   115  VAL115      0.0023
    113  N         26.8570   71.8480   32.7500 N.am  116  ASN116     -0.1958
    114  CA        26.8530   72.0680   31.2990 C.3   116  ASN116      0.1819
    115  C         27.1120   70.7160   30.5960 C.2   116  ASN116      0.2621
    116  O         28.2210   70.4300   30.1400 O.2   116  ASN116     -0.2715
    117  CB        27.8490   73.1650   30.8800 C.3   116  ASN116      0.1195
    118  CG        27.8160   73.4820   29.3860 C.2   116  ASN116      0.2630
    119  OD1       26.8580   73.1520   28.6660 O.2   116  ASN116     -0.2716
    120  ND2       28.8930   74.0810   28.8650 N.am  116  ASN116     -0.0877
    121  N         26.0720   69.8830   30.5510 N.am  117  ASN117     -0.1972
    122  CA        26.0840   68.5410   29.9990 C.3   117  ASN117      0.1688
    123  C         26.1330   68.4580   28.4730 C.2   117  ASN117      0.2292
    124  O         25.5040   69.2570   27.7770 O.2   117  ASN117     -0.2864
    125  CB        24.8370   67.7830   30.4900 C.3   117  ASN117      0.1181
    126  CG        24.7920   66.3180   30.1180 C.2   117  ASN117      0.2629
    127  OD1       25.6830   65.5270   30.4480 O.2   117  ASN117     -0.2716
    128  ND2       23.7200   65.9130   29.4730 N.am  117  ASN117     -0.0877
    129  N         18.9030   53.6920   40.1580 N.3   155  ASP155     -0.1239
    130  CA        18.5660   54.1440   38.7870 C.3   155  ASP155      0.1674
    131  C         19.8280   54.5900   38.0360 C.2   155  ASP155      0.2266
    132  O         19.8100   55.5950   37.3440 O.2   155  ASP155     -0.2867
    133  CB        17.4530   55.2490   38.7970 C.3   155  ASP155      0.1410
    134  CG        16.6550   55.4150   37.4840 C.2   155  ASP155      0.3668
    135  OD1       16.5610   54.4370   36.7090 O.co2 155  ASP155     -0.2456
    136  OD2       16.0800   56.5020   37.2700 O.co2 155  ASP155     -0.2456
    137  N         22.2180   54.8430   35.1830 N.3   157  LYS157     -0.1245
    138  CA        22.0970   54.7600   33.7220 C.3   157  LYS157      0.1561
    139  C         22.6570   56.0520   33.0990 C.2   157  LYS157      0.2260
    140  O         22.7290   57.0590   33.8080 O.2   157  LYS157     -0.2867
    141  CB        20.6220   54.5410   33.2880 C.3   157  LYS157      0.0271
    142  CG        19.6620   55.6960   33.6150 C.3   157  LYS157      0.0035
    143  CD        18.2530   55.3830   33.1890 C.3   157  LYS157      0.0206
    144  CE        17.3430   56.5360   33.5000 C.3   157  LYS157      0.1093
    145  NZ        15.9390   56.2590   33.1220 N.3   157  LYS157     -0.1314
    146  N         21.4820   58.5350   31.2980 N.3   159  HIS159     -0.1226
    147  CA        20.6120   59.7020   31.5020 C.3   159  HIS159      0.1752
    148  C         20.7130   60.3250   32.9050 C.2   159  HIS159      0.2596
    149  O         20.3200   61.4710   33.0730 O.2   159  HIS159     -0.2718
    150  CB        19.1440   59.3500   31.2090 C.3   159  HIS159      0.0759
    151  CG        18.8120   59.2950   29.7560 C.ar  159  HIS159      0.0818
    152  ND1       18.1920   58.1900   29.2010 N.ar  159  HIS159     -0.2268
    153  CD2       19.0050   60.2230   28.7850 C.ar  159  HIS159      0.1154
    154  CE1       18.0450   58.4660   27.9130 C.ar  159  HIS159      0.1986
    155  NE2       18.5200   59.6820   27.6170 N.ar  159  HIS159     -0.2212
    156  N         21.2130   59.5770   33.9070 N.am  160  ASN160     -0.1974
    157  CA        21.3390   60.1150   35.2620 C.3   160  ASN160      0.1688
    158  C         22.7610   60.5220   35.5780 C.2   160  ASN160      0.2292
    159  O         23.0920   60.7630   36.7230 O.2   160  ASN160     -0.2864
    160  CB        20.7520   59.1660   36.3040 C.3   160  ASN160      0.1181
    161  CG        19.2570   59.0870   36.2020 C.2   160  ASN160      0.2629
    162  OD1       18.5940   60.0090   35.7160 O.2   160  ASN160     -0.2716
    163  ND2       18.6880   57.9880   36.6430 N.am  160  ASN160     -0.0877
    164  N         25.4760   63.3590   34.5470 N.3   162  MET162     -0.1245
    165  CA        25.7080   64.6360   33.8730 C.3   162  MET162      0.1570
    166  C         27.1920   64.8250   33.7640 C.2   162  MET162      0.2261
    167  O         27.8990   64.7040   34.7670 O.2   162  MET162     -0.2867
    168  CB        25.0540   65.8030   34.6490 C.3   162  MET162      0.0387
    169  CG        23.5420   65.7430   34.6650 C.3   162  MET162      0.0595
    170  SD        22.8310   66.2030   33.0820 S.3   162  MET162     -0.1393
    171  CE        21.7420   64.8820   32.8310 C.3   162  MET162      0.0692
    172  N         22.9280   62.2240   39.0940 N.3   173  ILE173     -0.1231
    173  CA        21.6890   62.9630   39.3670 C.3   173  ILE173      0.1692
    174  C         20.4830   62.0460   39.5360 C.2   173  ILE173      0.2592
    175  O         20.6000   60.8170   39.4550 O.2   173  ILE173     -0.2718
    176  CB        21.4440   64.0370   38.2420 C.3   173  ILE173      0.0266
    177  CG1       20.9640   63.3810   36.9270 C.3   173  ILE173      0.0019
    178  CG2       22.6880   64.9270   38.0160 C.3   173  ILE173      0.0020
    179  CD1       20.0610   64.2590   36.0380 C.3   173  ILE173      0.0001
    180  N         19.3050   62.6770   39.7210 N.am  174  ASP174     -0.1974
    181  CA        17.9860   62.0640   39.8460 C.3   174  ASP174      0.1709
    182  C         17.9560   60.9400   40.8720 C.2   174  ASP174      0.2293
    183  O         18.0150   59.7490   40.5370 O.2   174  ASP174     -0.2864
    184  CB        17.4000   61.6440   38.4890 C.3   174  ASP174      0.1436
    185  CG        15.8730   61.6720   38.5310 C.2   174  ASP174      0.3671
    186  OD1       15.3020   61.5430   39.6350 O.co2 174  ASP174     -0.2456
    187  OD2       15.2640   61.8620   37.4840 O.co2 174  ASP174     -0.2456
@<TRIPOS>BOND
     1    34    32    1
     2    32    33    1
     3    32    31    2
     4    10     9    1
     5     9    11    1
     6     9     8    2
     7     7     8    1
     8     7     6    1
     9    31    30    1
    10   155   154   ar
    11   155   153   ar
    12   124   123    2
    13     5     6    1
    14     5     2    1
    15   154   152   ar
    16    15    14    2
    17   123   122    1
    18   119   118    2
    19    30    29    1
    20   153   151   ar
    21   120   118   am
    22     2     3    1
    23     2     1    1
    24    14    13    1
    25    14    20   am
    26   152   151   ar
    27    29    28    1
    28    13    12    1
    29    13    16    1
    30   118   117    1
    31   128   126   am
    32     3     4    2
    33    19    17    1
    34    21    20    1
    35    21    22    1
    36   151   150    1
    37   122   125    1
    38   122   121    1
    39   126   127    2
    40   126   125    1
    41   116   115    2
    42    22    24   am
    43    22    23    2
    44    16    17    1
    45   121   115   am
    46   115   114    1
    47    24    25    1
    48    28    25    1
    49    17    18    1
    50   117   114    1
    51    27    26    2
    52   150   147    1
    53   146   147    1
    54   114   113    1
    55    25    26    1
    56   147   148    1
    57    26    35   am
    58    48    47    2
    59   105   104   ar
    60   105   103   ar
    61   104   102   ar
    62    35    36    1
    63   113   108   am
    64   171   170    1
    65   109   108    2
    66   148   149    2
    67   148   156   am
    68    36    37    1
    69   170   169    1
    70   139   138    1
    71   139   140    2
    72   145   144    1
    73   143   144    1
    74   143   142    1
    75    47    46    1
    76    38    37    2
    77   141   142    1
    78   141   138    1
    79   108   107    1
    80    45    46    1
    81   138   137    1
    82   103   101   ar
    83   166   165    1
    84   166   167    2
    85   102   101   ar
    86    49    46    1
    87    49    50    1
    88    49    51    1
    89   165   164    1
    90   165   168    1
    91   156   157    1
    92    42    41    2
    93   111   110    1
    94   101   100    1
    95   168   169    1
    96   107   110    1
    97   107   106    1
    98    41    40    1
    99   110   112    1
   100   157   158    1
   101   157   160    1
   102    58    56    1
   103   106    98   am
   104   158   159    2
   105   162   161    2
   106   179   177    1
   107   100    97    1
   108   161   160    1
   109   161   163   am
   110    98    99    2
   111    98    97    1
   112    57    56    1
   113    40    39    1
   114    40    43    1
   115   135   134   ar
   116    56    53    1
   117    44    43    1
   118    97    96    1
   119   177   176    1
   120    53    52    1
   121    53    54    1
   122   136   134   ar
   123   132   131    2
   124   187   185   ar
   125   134   133    1
   126   178   176    1
   127    54    55    2
   128   131   130    1
   129   176   173    1
   130    96    89   am
   131   184   185    1
   132   184   181    1
   133   185   186   ar
   134    60    59    1
   135    60    63    1
   136    60    61    1
   137   130   133    1
   138   130   129    1
   139    90    89    2
   140    64    63    1
   141    64    65    1
   142   172   173    1
   143    89    88    1
   144    61    62    2
   145   173   174    1
   146   175   174    2
   147   174   180   am
   148    75    73    1
   149   180   181    1
   150    66    65    1
   151    66    67    1
   152   181   182    1
   153    79    78    2
   154    92    93    1
   155    92    91    2
   156   183   182    2
   157    94    93   ar
   158    88    87    1
   159    88    91    1
   160    80    81    1
   161    80    77    1
   162    73    72    1
   163    78    87   am
   164    78    77    1
   165    83    81   ar
   166    83    85   ar
   167    93    95   ar
   168    81    82   ar
   169    72    74    1
   170    72    69    1
   171    77    76    1
   172    85    86   ar
   173    82    84   ar
   174    69    68    1
   175    69    70    1
   176    86    84   ar
   177    70    71    2
