@<TRIPOS>MOLECULE
tmp/5h8gA00.pdb
 213 201 0 0 0
SMALL
GASTEIGER

@<TRIPOS>ATOM
      1  N         -0.1790   -9.9540   31.5330 N.3    41  ARG41      -0.1245
      2  CA        -0.0220   -9.3640   32.8630 C.3    41  ARG41       0.1563
      3  C          0.7590   -8.0770   32.8320 C.2    41  ARG41       0.2260
      4  O          1.5130   -7.8650   31.8980 O.2    41  ARG41      -0.2867
      5  CB         0.5940  -10.3630   33.8720 C.3    41  ARG41       0.0307
      6  CG         1.9430  -10.9520   33.4950 C.3    41  ARG41       0.0489
      7  CD         2.4440  -11.7710   34.6650 C.3    41  ARG41       0.2205
      8  NE         3.0620  -13.0300   34.2500 N.pl3  41  ARG41      -0.0865
      9  CZ         4.3410  -13.3340   34.4490 C.cat  41  ARG41       0.5346
     10  NH1        5.1580  -12.4590   35.0260 N.pl3  41  ARG41       0.1354
     11  NH2        4.8200  -14.5070   34.0550 N.pl3  41  ARG41       0.1354
     12  N          3.8110   -5.8560   33.9030 N.3    43  LEU43      -0.1231
     13  CA         5.2000   -6.1450   34.3230 C.3    43  LEU43       0.1693
     14  C          5.8230   -4.9660   35.0380 C.2    43  LEU43       0.2593
     15  O          6.7660   -5.1150   35.8170 O.2    43  LEU43      -0.2718
     16  CB         6.0660   -6.5230   33.1070 C.3    43  LEU43       0.0284
     17  CG         5.8370   -7.9050   32.4930 C.3    43  LEU43       0.0019
     18  CD1        6.7930   -8.1370   31.3250 C.3    43  LEU43       0.0001
     19  CD2        5.9790   -9.0290   33.5220 C.3    43  LEU43       0.0001
     20  N          5.3080   -3.7940   34.7520 N.am   44  GLY44      -0.1942
     21  CA         5.8510   -2.5830   35.3320 C.3    44  GLY44       0.2014
     22  C          5.2690   -1.3380   34.7310 C.2    44  GLY44       0.2639
     23  O          4.4260   -1.3870   33.8370 O.2    44  GLY44      -0.2714
     24  N          5.7320   -0.2150   35.2310 N.am   45  ARG45      -0.1963
     25  CA         5.2960    1.0880   34.7880 C.3    45  ARG45       0.1729
     26  C          6.4490    2.0650   34.9630 C.2    45  ARG45       0.2617
     27  O          7.3080    1.8760   35.8280 O.2    45  ARG45      -0.2715
     28  CB         4.0510    1.5220   35.5960 C.3    45  ARG45       0.0348
     29  CG         4.2700    1.6200   37.1040 C.3    45  ARG45       0.0492
     30  CD         3.0380    1.2250   37.8960 C.3    45  ARG45       0.2205
     31  NE         3.2720    1.3290   39.3380 N.pl3  45  ARG45      -0.0865
     32  CZ         3.7930    0.3640   40.0920 C.cat  45  ARG45       0.5346
     33  NH1        4.1490   -0.7950   39.5470 N.pl3  45  ARG45       0.1354
     34  NH2        3.9670    0.5510   41.3940 N.pl3  45  ARG45       0.1354
     35  N          6.4820    3.0600   34.1030 N.am   46  GLY46      -0.1940
     36  CA         7.4470    4.1440   34.1550 C.3    46  GLY46       0.2014
     37  C          6.6780    5.4490   34.1400 C.2    46  GLY46       0.2638
     38  O          5.4450    5.4310   34.2260 O.2    46  GLY46      -0.2714
     39  N          7.3890    6.5860   33.9970 N.am   47  LYS47      -0.1977
     40  CA         6.7770    7.9120   33.9460 C.3    47  LYS47       0.1596
     41  C          5.9460    8.1050   32.6660 C.2    47  LYS47       0.2287
     42  O          4.8470    8.6790   32.7160 O.2    47  LYS47      -0.2864
     43  CB         7.8530    9.0110   34.0570 C.3    47  LYS47       0.0298
     44  CG         8.3360    9.2330   35.4940 C.3    47  LYS47       0.0038
     45  CD         9.2070   10.4860   35.6380 C.3    47  LYS47       0.0206
     46  CE         8.7570   11.3830   36.7730 C.3    47  LYS47       0.1093
     47  NZ         9.0420   10.8030   38.1150 N.3    47  LYS47      -0.1314
     48  N          5.2050    5.3580   30.5210 N.3    49  SER49      -0.1217
     49  CA         4.6730    4.1000   29.9680 C.3    49  SER49       0.1889
     50  C          4.2170    3.0570   30.9650 C.2    49  SER49       0.2288
     51  O          4.4610    3.1550   32.1780 O.2    49  SER49      -0.2866
     52  CB         5.7200    3.4520   29.0580 C.3    49  SER49       0.2089
     53  OG         6.7800    2.9330   29.8500 O.3    49  SER49      -0.2183
     54  N          4.1560   -1.3410   31.0690 N.3    51  VAL51      -0.1245
     55  CA         4.7260   -2.5290   30.4300 C.3    51  VAL51       0.1561
     56  C          3.9800   -3.7740   30.8110 C.2    51  VAL51       0.2260
     57  O          3.6300   -3.9670   31.9710 O.2    51  VAL51      -0.2867
     58  CB         6.2560   -2.6190   30.7180 C.3    51  VAL51       0.0252
     59  CG1        6.8990   -3.8490   30.0890 C.3    51  VAL51       0.0019
     60  CG2        6.9700   -1.3590   30.2490 C.3    51  VAL51       0.0019
     61  N          3.5380   -8.2130   29.9290 N.3    53  GLU53      -0.1245
     62  CA         3.8810   -9.4430   29.2400 C.3    53  GLU53       0.1567
     63  C          2.6970   -9.6780   28.2980 C.2    53  GLU53       0.2260
     64  O          1.5510   -9.4630   28.6940 O.2    53  GLU53      -0.2867
     65  CB         3.9940  -10.6370   30.2080 C.3    53  GLU53       0.0388
     66  CG         4.3810  -11.9080   29.4500 C.3    53  GLU53       0.1160
     67  CD         4.2130  -13.2310   30.1730 C.2    53  GLU53       0.3649
     68  OE1        4.6290  -13.3220   31.3500 O.co2  53  GLU53      -0.2457
     69  OE2        3.7120  -14.1940   29.5490 O.co2  53  GLU53      -0.2457
     70  N          7.0480   -8.4940   25.0360 N.3    64  VAL64      -0.1245
     71  CA         6.8910   -7.4560   26.0400 C.3    64  VAL64       0.1561
     72  C          6.3280   -6.2140   25.3320 C.2    64  VAL64       0.2260
     73  O          6.9020   -5.7660   24.3420 O.2    64  VAL64      -0.2867
     74  CB         8.1920   -7.1780   26.8370 C.3    64  VAL64       0.0252
     75  CG1        7.9870   -6.0100   27.7750 C.3    64  VAL64       0.0019
     76  CG2        8.6380   -8.4130   27.6240 C.3    64  VAL64       0.0019
     77  N          5.1980   -2.2630   25.4680 N.3    66  LYS66      -0.1245
     78  CA         5.3400   -1.0030   26.2080 C.3    66  LYS66       0.1561
     79  C          4.3490   -0.0160   25.6280 C.2    66  LYS66       0.2260
     80  O          4.5270    0.4340   24.5010 O.2    66  LYS66      -0.2867
     81  CB         6.7840   -0.4730   26.1690 C.3    66  LYS66       0.0271
     82  CG         6.9190    0.8440   26.9230 C.3    66  LYS66       0.0035
     83  CD         8.3450    1.1700   27.3110 C.3    66  LYS66       0.0206
     84  CE         9.1400    1.7370   26.1720 C.3    66  LYS66       0.1093
     85  NZ        10.4470    2.2250   26.6600 N.3    66  LYS66      -0.1314
     86  N         18.1800   -5.1310   22.8840 N.3    91  ILE91      -0.1245
     87  CA        16.7980   -5.6480   22.8400 C.3    91  ILE91       0.1561
     88  C         16.2180   -5.4790   21.4220 C.2    91  ILE91       0.2260
     89  O         16.4050   -4.4190   20.7990 O.2    91  ILE91      -0.2867
     90  CB        15.8770   -4.9690   23.9140 C.3    91  ILE91       0.0252
     91  CG1       14.5450   -5.7500   24.0880 C.3    91  ILE91       0.0019
     92  CG2       15.6180   -3.4730   23.6140 C.3    91  ILE91       0.0019
     93  CD1       14.7150   -7.1750   24.8350 C.3    91  ILE91       0.0001
     94  N          8.5180   -5.6640   22.1570 N.3   109  PHE109     -0.1227
     95  CA         9.8820   -6.1760   22.2770 C.3   109  PHE109      0.1736
     96  C          9.9250   -7.6810   22.4140 C.2   109  PHE109      0.2595
     97  O          8.9290   -8.3060   22.8040 O.2   109  PHE109     -0.2718
     98  CB        10.5570   -5.5550   23.5020 C.3   109  PHE109      0.0547
     99  CG        10.6530   -4.0600   23.4570 C.ar  109  PHE109     -0.0202
    100  CD1       11.7000   -3.4370   22.7890 C.ar  109  PHE109     -0.0042
    101  CD2        9.7040   -3.2660   24.1000 C.ar  109  PHE109     -0.0042
    102  CE1       11.7640   -2.0590   22.7160 C.ar  109  PHE109     -0.0003
    103  CE2        9.8040   -1.8860   24.0800 C.ar  109  PHE109     -0.0003
    104  CZ        10.8310   -1.2860   23.3930 C.ar  109  PHE109     -0.0000
    105  N         11.0960   -8.2790   22.1170 N.am  110  GLU110     -0.1965
    106  CA        11.2940   -9.7080   22.3250 C.3   110  GLU110      0.1733
    107  C         11.2770   -9.8930   23.8490 C.2   110  GLU110      0.2616
    108  O         11.5780   -8.9620   24.5840 O.2   110  GLU110     -0.2715
    109  CB        12.6220  -10.2020   21.7300 C.3   110  GLU110      0.0429
    110  CG        13.8390   -9.5930   22.4200 C.3   110  GLU110      0.1163
    111  CD        15.2120  -10.0230   21.9570 C.2   110  GLU110      0.3649
    112  OE1       15.4100  -11.2290   21.7080 O.co2 110  GLU110     -0.2457
    113  OE2       16.1210   -9.1660   21.9610 O.co2 110  GLU110     -0.2457
    114  N         10.8420  -11.0470   24.3110 N.am  111  HIS111     -0.1959
    115  CA        10.7450  -11.3170   25.7330 C.3   111  HIS111      0.1787
    116  C         12.0400  -11.9140   26.2210 C.2   111  HIS111      0.2620
    117  O         12.6380  -12.7350   25.5350 O.2   111  HIS111     -0.2715
    118  CB         9.5920  -12.3030   25.9620 C.3   111  HIS111      0.0785
    119  CG         9.3480  -12.6660   27.3890 C.ar  111  HIS111      0.0821
    120  ND1        9.9130  -13.8020   27.9500 N.ar  111  HIS111     -0.2267
    121  CD2        8.5260  -12.0910   28.2990 C.ar  111  HIS111      0.1154
    122  CE1        9.4760  -13.8410   29.1940 C.ar  111  HIS111      0.1986
    123  NE2        8.6360  -12.8350   29.4490 N.ar  111  HIS111     -0.2212
    124  N         12.4610  -11.5210   27.4250 N.am  112  VAL112     -0.1963
    125  CA        13.6380  -12.0920   28.0560 C.3   112  VAL112      0.1727
    126  C         13.1480  -12.6310   29.4160 C.2   112  VAL112      0.2616
    127  O         12.5250  -11.8990   30.1900 O.2   112  VAL112     -0.2715
    128  CB        14.8300  -11.0970   28.1670 C.3   112  VAL112      0.0290
    129  CG1       16.0350  -11.7420   28.8850 C.3   112  VAL112      0.0023
    130  CG2       15.2370  -10.5700   26.7800 C.3   112  VAL112      0.0023
    131  N         13.4070  -13.9220   29.6830 N.am  113  ASN113     -0.1958
    132  CA        13.0010  -14.5740   30.9330 C.3   113  ASN113      0.1819
    133  C         13.9630  -14.1260   32.0510 C.2   113  ASN113      0.2621
    134  O         14.7880  -14.8930   32.5210 O.2   113  ASN113     -0.2715
    135  CB        12.9680  -16.1200   30.7700 C.3   113  ASN113      0.1195
    136  CG        12.2830  -16.8400   31.9110 C.2   113  ASN113      0.2630
    137  OD1       11.6430  -16.2260   32.7700 O.2   113  ASN113     -0.2716
    138  ND2       12.3970  -18.1650   31.9520 N.am  113  ASN113     -0.0877
    139  N         13.8210  -12.8840   32.4840 N.am  114  ASN114     -0.1972
    140  CA        14.6960  -12.2680   33.4740 C.3   114  ASN114      0.1688
    141  C         14.5120  -12.7880   34.8940 C.2   114  ASN114      0.2292
    142  O         13.3920  -13.0790   35.2990 O.2   114  ASN114     -0.2864
    143  CB        14.4670  -10.7380   33.4570 C.3   114  ASN114      0.1181
    144  CG        15.4070   -9.9410   34.3230 C.2   114  ASN114      0.2629
    145  OD1       16.6030   -9.9050   34.0940 O.2   114  ASN114     -0.2716
    146  ND2       14.8920   -9.3180   35.3650 N.am  114  ASN114     -0.0877
    147  N         20.7720    5.4800   30.4420 N.3   152  ASP152     -0.1239
    148  CA        20.0270    4.9070   31.5760 C.3   152  ASP152      0.1674
    149  C         20.5380    3.4900   31.9140 C.2   152  ASP152      0.2266
    150  O         19.7550    2.5740   32.2050 O.2   152  ASP152     -0.2867
    151  CB        18.4950    4.9270   31.3190 C.3   152  ASP152      0.1410
    152  CG        17.6680    4.7930   32.5910 C.2   152  ASP152      0.3668
    153  OD1       18.2250    5.0000   33.6890 O.co2 152  ASP152     -0.2456
    154  OD2       16.4680    4.4680   32.4850 O.co2 152  ASP152     -0.2456
    155  N         21.7860    0.6970   34.0760 N.3   154  LYS154     -0.1245
    156  CA        21.5450    0.2900   35.4690 C.3   154  LYS154      0.1561
    157  C         21.0670   -1.1780   35.4080 C.2   154  LYS154      0.2260
    158  O         20.6260   -1.5790   34.3190 O.2   154  LYS154     -0.2867
    159  CB        20.4950    1.2060   36.1420 C.3   154  LYS154      0.0271
    160  CG        19.1190    1.2680   35.4720 C.3   154  LYS154      0.0035
    161  CD        18.1600    2.1540   36.2630 C.3   154  LYS154      0.0206
    162  CE        16.7850    2.0610   35.6430 C.3   154  LYS154      0.1093
    163  NZ        15.7660    2.7530   36.4630 N.3   154  LYS154     -0.1314
    164  N         18.3080   -2.7580   36.3800 N.3   156  HIS156     -0.1226
    165  CA        16.9060   -2.8950   35.9400 C.3   156  HIS156      0.1752
    166  C         16.7400   -2.8040   34.4250 C.2   156  HIS156      0.2596
    167  O         15.7370   -3.2960   33.8970 O.2   156  HIS156     -0.2718
    168  CB        15.9730   -1.8670   36.6220 C.3   156  HIS156      0.0759
    169  CG        15.4690   -2.2740   37.9770 C.ar  156  HIS156      0.0818
    170  ND1       15.2740   -1.3380   38.9860 N.ar  156  HIS156     -0.2268
    171  CD2       15.1240   -3.4940   38.4460 C.ar  156  HIS156      0.1154
    172  CE1       14.8190   -2.0190   40.0270 C.ar  156  HIS156      0.1986
    173  NE2       14.6970   -3.3190   39.7470 N.ar  156  HIS156     -0.2212
    174  N         17.6810   -2.1420   33.7270 N.am  157  ASN157     -0.1974
    175  CA        17.6520   -2.0290   32.2700 C.3   157  ASN157      0.1688
    176  C         18.5060   -3.0630   31.5780 C.2   157  ASN157      0.2292
    177  O         18.7870   -2.9630   30.3660 O.2   157  ASN157     -0.2864
    178  CB        17.9920   -0.6010   31.8120 C.3   157  ASN157      0.1181
    179  CG        16.8420    0.3310   32.0170 C.2   157  ASN157      0.2629
    180  OD1       15.6760   -0.0980   32.1810 O.2   157  ASN157     -0.2716
    181  ND2       17.1470    1.6210   32.0750 N.am  157  ASN157     -0.0877
    182  N         18.3310   -7.0110   31.0820 N.3   159  MET159     -0.1245
    183  CA        17.5780   -8.2720   31.2150 C.3   159  MET159      0.1570
    184  C         18.5370   -9.4280   31.0400 C.2   159  MET159      0.2261
    185  O         19.2910   -9.4590   30.0630 O.2   159  MET159     -0.2867
    186  CB        16.4560   -8.3500   30.1720 C.3   159  MET159      0.0387
    187  CG        15.3880   -7.2860   30.3590 C.3   159  MET159      0.0595
    188  SD        14.3750   -7.5770   31.8250 S.3   159  MET159     -0.1393
    189  CE        14.8490   -6.3110   32.8380 C.3   159  MET159      0.0692
    190  N         18.0590   -2.9760   27.6370 N.3   170  ILE170     -0.1231
    191  CA        16.7010   -2.5490   27.2980 C.3   170  ILE170      0.1692
    192  C         16.4470   -1.0910   27.6390 C.2   170  ILE170      0.2592
    193  O         17.3150   -0.4090   28.1850 O.2   170  ILE170     -0.2718
    194  CB        15.6180   -3.4750   27.9980 C.3   170  ILE170      0.0266
    195  CG1       15.4880   -3.1950   29.5100 C.3   170  ILE170      0.0019
    196  CG2       15.8970   -4.9860   27.7590 C.3   170  ILE170      0.0020
    197  CD1       14.1020   -3.5350   30.0690 C.3   170  ILE170      0.0001
    198  N         15.1920   -0.6680   27.3750 N.am  171  ASP171     -0.1974
    199  CA        14.6400    0.6480   27.6460 C.3   171  ASP171      0.1709
    200  C         15.5540    1.7830   27.1990 C.2   171  ASP171      0.2293
    201  O         16.2340    2.4370   27.9890 O.2   171  ASP171     -0.2864
    202  CB        14.1680    0.8170   29.0930 C.3   171  ASP171      0.1436
    203  CG        13.1030    1.9050   29.1920 C.2   171  ASP171      0.3671
    204  OD1       13.0370    2.7690   28.2730 O.co2 171  ASP171     -0.2456
    205  OD2       12.2400    1.7940   30.0620 O.co2 171  ASP171     -0.2456
    206  N         15.3830    6.8560   27.1260 N.3   174  LEU174     -0.1245
    207  CA        16.1820    8.0340   27.4950 C.3   174  LEU174      0.1561
    208  C         17.3710    8.1790   26.5440 C.2   174  LEU174      0.2260
    209  O         18.1190    9.1530   26.6270 O.2   174  LEU174     -0.2867
    210  CB        16.6700    7.8940   28.9450 C.3   174  LEU174      0.0270
    211  CG        15.6740    8.2410   30.0630 C.3   174  LEU174      0.0019
    212  CD1       16.3830    8.2660   31.4300 C.3   174  LEU174      0.0001
    213  CD2       14.9910    9.6200   29.8510 C.3   174  LEU174      0.0001
@<TRIPOS>BOND
     1    89    88    2
     2    88    87    1
     3   112   111   ar
     4   109   106    1
     5   109   110    1
     6   111   113   ar
     7   111   110    1
     8   105   106    1
     9   105    96   am
    10    94    95    1
    11    95    96    1
    12    95    98    1
    13   106   107    1
    14    96    97    2
    15   102   100   ar
    16   102   104   ar
    17   100    99   ar
    18    87    86    1
    19    87    90    1
    20   104   103   ar
    21    99    98    1
    22    99   101   ar
    23    92    90    1
    24   107   114   am
    25   107   108    2
    26    90    91    1
    27   103   101   ar
    28    91    93    1
    29   114   115    1
    30    73    72    2
    31    80    79    2
    32    70    71    1
    33    72    71    1
    34    77    78    1
    35   117   116    2
    36    79    78    1
    37   115   118    1
    38   115   116    1
    39   118   119    1
    40    71    74    1
    41    81    78    1
    42    81    82    1
    43    84    85    1
    44    84    83    1
    45   116   124   am
    46   208   209    2
    47   208   207    1
    48   130   128    1
    49    74    76    1
    50    74    75    1
    51    82    83    1
    52   206   207    1
    53   200   199    1
    54   200   201    2
    55   191   190    1
    56   191   192    1
    57   191   194    1
    58   198   192   am
    59   198   199    1
    60   119   120   ar
    61   119   121   ar
    62   124   125    1
    63   207   210    1
    64   192   193    2
    65   199   202    1
    66   196   194    1
    67   120   122   ar
    68   194   195    1
    69   125   128    1
    70   125   126    1
    71   128   129    1
    72   204   203   ar
    73    63    64    2
    74    63    62    1
    75   121   123   ar
    76   210   211    1
    77    52    53    1
    78    52    49    1
    79   202   203    1
    80   203   205   ar
    81   122   123   ar
    82    62    61    1
    83    62    65    1
    84   126   131   am
    85   126   127    2
    86    66    67    1
    87    66    65    1
    88   195   197    1
    89    69    67   ar
    90   131   132    1
    91   213   211    1
    92    49    48    1
    93    49    50    1
    94   211   212    1
    95   185   184    2
    96    59    58    1
    97   186   187    1
    98   186   183    1
    99    67    68   ar
   100    60    58    1
   101   187   188    1
   102   177   176    2
   103    55    58    1
   104    55    56    1
   105    55    54    1
   106   147   148    1
   107   135   132    1
   108   135   136    1
   109    56    57    2
   110   132   133    1
   111    50    51    2
   112   184   183    1
   113   182   183    1
   114   151   148    1
   115   151   152    1
   116    18    17    1
   117     1     2    1
   118   148   149    1
   119   176   175    1
   120   178   179    1
   121   178   175    1
   122   188   189    1
   123     4     3    2
   124   136   138   am
   125   136   137    2
   126   149   150    2
   127   179   181   am
   128   179   180    2
   129   133   139   am
   130   133   134    2
   131   175   174    1
   132   139   140    1
   133   154   152   ar
   134    17    16    1
   135    17    19    1
   136   152   153   ar
   137    41    42    2
   138    41    40    1
   139     3     2    1
   140     2     5    1
   141    16    13    1
   142   143   140    1
   143   143   144    1
   144   140   141    1
   145     6     5    1
   146     6     7    1
   147   174   166   am
   148    23    22    2
   149   167   166    2
   150    12    13    1
   151    40    39    1
   152    40    43    1
   153    39    37   am
   154    11     9    1
   155    43    44    1
   156   155   156    1
   157   145   144    2
   158    35    36    1
   159    35    26   am
   160    37    36    1
   161    37    38    2
   162     8     9    2
   163     8     7    1
   164   158   157    2
   165   144   146   am
   166    13    14    1
   167   166   165    1
   168     9    10    1
   169    22    24   am
   170    22    21    1
   171    20    14   am
   172    20    21    1
   173    25    26    1
   174    25    24    1
   175    25    28    1
   176   141   142    2
   177    26    27    2
   178    14    15    2
   179   157   156    1
   180   156   159    1
   181   160   159    1
   182   160   161    1
   183    44    45    1
   184    28    29    1
   185    45    46    1
   186   162   161    1
   187   162   163    1
   188   165   164    1
   189   165   168    1
   190   168   169    1
   191    46    47    1
   192    29    30    1
   193    30    31    1
   194   169   171   ar
   195   169   170   ar
   196   171   173   ar
   197   170   172   ar
   198    31    32    2
   199    33    32    1
   200   173   172   ar
   201    32    34    1
