@<TRIPOS>MOLECULE
tmp/5h8hA01.pdb
 75 72 0 0 0
SMALL
GASTEIGER

@<TRIPOS>ATOM
      1  N         15.2340  -14.2750  -15.8400 N.3   110  ILE110     -0.1245
      2  CA        13.8820  -13.7630  -15.8860 C.3   110  ILE110      0.1561
      3  C         12.9640  -14.9440  -15.6070 C.2   110  ILE110      0.2260
      4  O         13.0700  -15.9510  -16.2710 O.2   110  ILE110     -0.2867
      5  CB        13.5510  -13.1470  -17.2780 C.3   110  ILE110      0.0252
      6  CG1       14.4570  -11.9240  -17.5930 C.3   110  ILE110      0.0019
      7  CG2       12.0510  -12.7370  -17.3440 C.3   110  ILE110      0.0019
      8  CD1       14.6500  -11.6450  -19.2320 C.3   110  ILE110      0.0001
      9  N         15.4720   -9.5260  -22.6210 N.3   123  PRO123     -0.2102
     10  CA        16.6150  -10.4070  -22.3090 C.3   123  PRO123      0.1504
     11  C         17.8650   -9.9920  -23.1250 C.2   123  PRO123      0.2576
     12  O         17.7350   -9.5700  -24.2970 O.2   123  PRO123     -0.2718
     13  CB        16.1320  -11.7780  -22.7860 C.3   123  PRO123      0.0282
     14  CG        15.1360  -11.4500  -23.9150 C.3   123  PRO123      0.0208
     15  CD        14.4180  -10.2440  -23.3810 C.3   123  PRO123      0.0893
     16  N         19.0560  -10.0800  -22.5170 N.am  124  PHE124     -0.1963
     17  CA        20.2990   -9.7600  -23.2540 C.3   124  PHE124      0.1771
     18  C         21.0830  -11.0240  -23.6000 C.2   124  PHE124      0.2619
     19  O         21.9560  -10.9720  -24.4570 O.2   124  PHE124     -0.2715
     20  CB        21.1700   -8.7020  -22.5580 C.3   124  PHE124      0.0574
     21  CG        21.4730   -8.9500  -21.0950 C.ar  124  PHE124     -0.0200
     22  CD1       22.5280   -9.7740  -20.7160 C.ar  124  PHE124     -0.0042
     23  CD2       20.7230   -8.3370  -20.1000 C.ar  124  PHE124     -0.0042
     24  CE1       22.8140   -9.9990  -19.3690 C.ar  124  PHE124     -0.0003
     25  CE2       21.0040   -8.5660  -18.7530 C.ar  124  PHE124     -0.0003
     26  CZ        22.0470   -9.3960  -18.3950 C.ar  124  PHE124     -0.0000
     27  N         20.7770  -12.1530  -22.9230 N.am  125  VAL125     -0.1963
     28  CA        21.3880  -13.4790  -23.1440 C.3   125  VAL125      0.1727
     29  C         20.2700  -14.5100  -23.0180 C.2   125  VAL125      0.2616
     30  O         19.4630  -14.4420  -22.0740 O.2   125  VAL125     -0.2715
     31  CB        22.5000  -13.8770  -22.1070 C.3   125  VAL125      0.0290
     32  CG1       23.2100  -15.1600  -22.5250 C.3   125  VAL125      0.0023
     33  CG2       23.5190  -12.7930  -21.9010 C.3   125  VAL125      0.0023
     34  N         20.2920  -15.5210  -23.8830 N.am  126  GLU126     -0.1977
     35  CA        19.3440  -16.6100  -23.7420 C.3   126  GLU126      0.1602
     36  C         19.8540  -17.5730  -22.6590 C.2   126  GLU126      0.2287
     37  O         21.0450  -17.8480  -22.5930 O.2   126  GLU126     -0.2864
     38  CB        19.1490  -17.3770  -25.0520 C.3   126  GLU126      0.0415
     39  CG        18.2640  -18.5970  -24.8470 C.3   126  GLU126      0.1163
     40  CD        17.8860  -19.3500  -26.0980 C.2   126  GLU126      0.3649
     41  OE1       18.7930  -19.8560  -26.7960 O.co2 126  GLU126     -0.2457
     42  OE2       16.6720  -19.4350  -26.3760 O.co2 126  GLU126     -0.2457
     43  N         13.2860  -22.3830  -21.4710 N.3   235  THR235     -0.1203
     44  CA        14.0740  -21.3190  -22.0810 C.3   235  THR235      0.1994
     45  C         13.5490  -19.9340  -21.6720 C.2   235  THR235      0.2619
     46  O         12.3510  -19.6340  -21.7360 O.2   235  THR235     -0.2717
     47  CB        14.1770  -21.5470  -23.5840 C.3   235  THR235      0.1784
     48  OG1       15.3580  -20.9340  -24.0840 O.3   235  THR235     -0.2211
     49  CG2       12.9850  -21.0520  -24.3140 C.3   235  THR235      0.0376
     50  N         14.4740  -19.1270  -21.1910 N.am  236  THR236     -0.1938
     51  CA        14.2480  -17.7810  -20.6990 C.3   236  THR236      0.2028
     52  C         15.4860  -16.9430  -21.0780 C.2   236  THR236      0.2642
     53  O         16.1010  -17.2210  -22.0880 O.2   236  THR236     -0.2714
     54  CB        13.8730  -17.8990  -19.2050 C.3   236  THR236      0.1808
     55  OG1       13.7940  -16.6240  -18.6590 O.3   236  THR236     -0.2208
     56  CG2       14.8680  -18.7530  -18.3810 C.3   236  THR236      0.0379
     57  N         15.8240  -15.9250  -20.3090 N.am  237  GLY237     -0.1954
     58  CA        16.9950  -15.1180  -20.5590 C.3   237  GLY237      0.1869
     59  C         17.4630  -14.3730  -19.3360 C.2   237  GLY237      0.2309
     60  O         16.7880  -14.3740  -18.2910 O.2   237  GLY237     -0.2863
     61  N         21.8250   -5.0360  -29.7470 N.3   260  VAL260     -0.1245
     62  CA        21.6070   -6.3060  -30.4590 C.3   260  VAL260      0.1561
     63  C         21.5940   -6.0510  -31.9800 C.2   260  VAL260      0.2260
     64  O         22.2230   -6.7980  -32.7440 O.2   260  VAL260     -0.2867
     65  CB        20.2980   -7.0140  -30.0110 C.3   260  VAL260      0.0252
     66  CG1       20.0830   -8.3160  -30.7820 C.3   260  VAL260      0.0019
     67  CG2       20.2850   -7.2710  -28.5080 C.3   260  VAL260      0.0019
     68  N         26.0530   -7.0900  -29.1660 N.3   265  MET265     -0.1245
     69  CA        25.8500   -8.2360  -28.2660 C.3   265  MET265      0.1570
     70  C         26.6200   -9.4430  -28.7480 C.2   265  MET265      0.2261
     71  O         27.2450  -10.1160  -27.9320 O.2   265  MET265     -0.2867
     72  CB        24.3660   -8.6130  -28.0930 C.3   265  MET265      0.0387
     73  CG        23.5410   -7.5530  -27.4030 C.3   265  MET265      0.0595
     74  SD        24.0420   -7.0380  -25.7460 S.3   265  MET265     -0.1393
     75  CE        24.3290   -8.6220  -24.9730 C.3   265  MET265      0.0692
@<TRIPOS>BOND
     1    64    63    2
     2    63    62    1
     3    66    65    1
     4    62    65    1
     5    62    61    1
     6    65    67    1
     7    68    69    1
     8    70    69    1
     9    70    71    2
    10    69    72    1
    11    72    73    1
    12    73    74    1
    13    41    40   ar
    14    42    40   ar
    15    40    39    1
    16    74    75    1
    17    38    39    1
    18    38    35    1
    19    19    18    2
    20    49    47    1
    21    12    11    2
    22    48    47    1
    23    14    15    1
    24    14    13    1
    25    34    35    1
    26    34    29   am
    27    35    36    1
    28    18    17    1
    29    18    27   am
    30    47    44    1
    31    15     9    1
    32    17    20    1
    33    17    16    1
    34    28    29    1
    35    28    27    1
    36    28    31    1
    37    11    16   am
    38    11    10    1
    39    29    30    2
    40    13    10    1
    41    36    37    2
    42     9    10    1
    43    20    21    1
    44    32    31    1
    45    31    33    1
    46    53    52    2
    47    44    45    1
    48    44    43    1
    49    46    45    2
    50    45    50   am
    51    50    51    1
    52    21    22   ar
    53    21    23   ar
    54    52    51    1
    55    52    57   am
    56    22    24   ar
    57    51    54    1
    58    58    57    1
    59    58    59    1
    60    23    25   ar
    61    24    26   ar
    62    59    60    2
    63     8     6    1
    64    54    55    1
    65    54    56    1
    66    25    26   ar
    67     6     5    1
    68     7     5    1
    69     5     2    1
    70     4     3    2
    71     2     1    1
    72     2     3    1
