@<TRIPOS>MOLECULE
tmp/5h8hB00.pdb
 84 81 0 0 0
SMALL
GASTEIGER

@<TRIPOS>ATOM
      1  N         10.8160   -8.4790  -32.5010 N.3   123  ILE123     -0.1245
      2  CA        11.0400   -7.4430  -31.4980 C.3   123  ILE123      0.1561
      3  C         12.2760   -6.6850  -31.9680 C.2   123  ILE123      0.2260
      4  O         13.3190   -7.2890  -32.2300 O.2   123  ILE123     -0.2867
      5  CB        11.2630   -8.0260  -30.0620 C.3   123  ILE123      0.0252
      6  CG1       10.0610   -8.8960  -29.6130 C.3   123  ILE123      0.0019
      7  CG2       11.5190   -6.8790  -29.0400 C.3   123  ILE123      0.0019
      8  CD1       10.3450   -9.7910  -28.5240 C.3   123  ILE123      0.0001
      9  N          7.4560  -10.3780  -23.3880 N.3   135  LYS135     -0.1231
     10  CA         8.6840  -11.1540  -23.2670 C.3   135  LYS135      0.1678
     11  C          8.5820  -12.1280  -24.4530 C.2   135  LYS135      0.2434
     12  O          7.4550  -12.4880  -24.8390 O.2   135  LYS135     -0.2733
     13  CB         8.7480  -11.8950  -21.9110 C.3   135  LYS135      0.0284
     14  CG         9.3110  -11.0320  -20.7580 C.3   135  LYS135      0.0035
     15  CD        10.8190  -10.6700  -20.9810 C.3   135  LYS135      0.0206
     16  CE        11.4190   -9.7720  -19.9410 C.3   135  LYS135      0.1093
     17  NZ        10.7130   -8.4540  -19.8560 N.3   135  LYS135     -0.1314
     18  N          9.7000  -12.4490  -25.1360 N.am  136  PRO136     -0.2729
     19  CA         9.5930  -13.2900  -26.3430 C.3   136  PRO136      0.1401
     20  C          8.9360  -14.6570  -26.1680 C.2   136  PRO136      0.2269
     21  O          9.1380  -15.3140  -25.1560 O.2   136  PRO136     -0.2865
     22  CB        11.0370  -13.4350  -26.8370 C.3   136  PRO136      0.0296
     23  CG        11.8480  -12.5400  -26.0050 C.3   136  PRO136      0.0237
     24  CD        11.1020  -12.1050  -24.8190 C.3   136  PRO136      0.0939
     25  N          9.3930  -16.8080  -28.8060 N.3   138  LYS138     -0.1231
     26  CA        10.3280  -17.5880  -29.6410 C.3   138  LYS138      0.1693
     27  C         11.5860  -16.7930  -29.9410 C.2   138  LYS138      0.2592
     28  O         11.5110  -15.5970  -30.2020 O.2   138  LYS138     -0.2718
     29  CB         9.6850  -18.0630  -30.9530 C.3   138  LYS138      0.0285
     30  CG        10.5890  -19.0620  -31.6950 C.3   138  LYS138      0.0035
     31  CD         9.8170  -20.0860  -32.5080 C.3   138  LYS138      0.0206
     32  CE        10.7350  -21.0920  -33.1780 C.3   138  LYS138      0.1093
     33  NZ        11.4390  -21.9880  -32.2120 N.3   138  LYS138     -0.1314
     34  N         12.7480  -17.4630  -29.8630 N.am  139  TYR139     -0.1976
     35  CA        14.0530  -16.8810  -30.1450 C.3   139  TYR139      0.1639
     36  C         14.5860  -17.6080  -31.3440 C.2   139  TYR139      0.2290
     37  O         14.6160  -18.8370  -31.3780 O.2   139  TYR139     -0.2864
     38  CB        15.0180  -17.0320  -28.9520 C.3   139  TYR139      0.0560
     39  CG        16.3220  -16.2670  -29.0970 C.ar  139  TYR139     -0.0198
     40  CD1       16.3430  -14.9710  -29.6050 C.ar  139  TYR139     -0.0009
     41  CD2       17.5240  -16.8180  -28.6750 C.ar  139  TYR139     -0.0009
     42  CE1       17.5330  -14.2490  -29.6990 C.ar  139  TYR139      0.0417
     43  CE2       18.7070  -16.0810  -28.7030 C.ar  139  TYR139      0.0417
     44  CZ        18.7080  -14.8030  -29.2290 C.ar  139  TYR139      0.1957
     45  OH        19.8800  -14.0950  -29.3010 O.3   139  TYR139     -0.2866
     46  N         20.2700  -12.6180  -34.6940 N.3   243  ARG243     -0.1231
     47  CA        19.4330  -13.4410  -33.8420 C.3   243  ARG243      0.1694
     48  C         18.4210  -12.4750  -33.2600 C.2   243  ARG243      0.2593
     49  O         18.7930  -11.3710  -32.8630 O.2   243  ARG243     -0.2718
     50  CB        20.2510  -14.1450  -32.7450 C.3   243  ARG243      0.0321
     51  CG        20.9270  -15.4160  -33.2450 C.3   243  ARG243      0.0489
     52  CD        21.3500  -16.3150  -32.1040 C.3   243  ARG243      0.2205
     53  NE        22.6420  -15.9380  -31.5340 N.pl3 243  ARG243     -0.0865
     54  CZ        23.1500  -16.4490  -30.4130 C.cat 243  ARG243      0.5346
     55  NH1       22.4650  -17.3470  -29.7120 N.pl3 243  ARG243      0.1354
     56  NH2       24.3410  -16.0580  -29.9800 N.pl3 243  ARG243      0.1354
     57  N         17.1460  -12.8210  -33.3380 N.am  244  SER244     -0.1938
     58  CA        16.0620  -11.9660  -32.8520 C.3   244  SER244      0.2055
     59  C         14.9120  -12.8170  -32.3290 C.2   244  SER244      0.2643
     60  O         14.7980  -13.9960  -32.6750 O.2   244  SER244     -0.2714
     61  CB        15.5740  -11.0330  -33.9640 C.3   244  SER244      0.2130
     62  OG        15.1120  -11.7590  -35.0950 O.3   244  SER244     -0.2179
     63  N         14.0810  -12.2070  -31.5000 N.am  245  GLY245     -0.1954
     64  CA        12.9180  -12.8580  -30.9240 C.3   245  GLY245      0.1869
     65  C         11.5930  -12.3430  -31.4550 C.2   245  GLY245      0.2309
     66  O         11.4940  -11.2160  -31.9750 O.2   245  GLY245     -0.2863
     67  N          5.9050  -16.1990  -19.8210 N.3   265  LEU265     -0.1245
     68  CA         6.9150  -16.7380  -18.8900 C.3   265  LEU265      0.1561
     69  C          6.4430  -18.0730  -18.2980 C.2   265  LEU265      0.2260
     70  O          7.1560  -19.0750  -18.4050 O.2   265  LEU265     -0.2867
     71  CB         7.2730  -15.7120  -17.7930 C.3   265  LEU265      0.0270
     72  CG         8.0670  -14.4790  -18.2690 C.3   265  LEU265      0.0019
     73  CD1        8.3390  -13.5230  -17.1210 C.3   265  LEU265      0.0001
     74  CD2        9.3700  -14.8880  -18.9820 C.3   265  LEU265      0.0001
     75  N          6.6630  -20.8540  -20.9870 N.3   268  HIS268     -0.1241
     76  CA         8.0400  -21.3350  -21.2040 C.3   268  HIS268      0.1621
     77  C          8.4480  -22.2460  -20.0140 C.2   268  HIS268      0.2264
     78  O          9.0730  -23.2830  -20.2150 O.2   268  HIS268     -0.2867
     79  CB         9.0390  -20.1670  -21.2150 C.3   268  HIS268      0.0745
     80  CG         9.0560  -19.3850  -22.4910 C.ar  268  HIS268      0.0817
     81  ND1        9.4460  -19.9620  -23.6820 N.ar  268  HIS268     -0.2268
     82  CD2        8.7580  -18.0850  -22.7030 C.ar  268  HIS268      0.1154
     83  CE1        9.3640  -18.9980  -24.5760 C.ar  268  HIS268      0.1986
     84  NE2        8.9660  -17.8490  -24.0230 N.ar  268  HIS268     -0.2212
@<TRIPOS>BOND
     1    62    61    1
     2    46    47    1
     3    61    58    1
     4    47    48    1
     5    47    50    1
     6    57    48   am
     7    57    58    1
     8    48    49    2
     9    51    50    1
    10    51    52    1
    11    32    31    1
    12    32    33    1
    13    58    59    1
    14    60    59    2
    15    31    30    1
    16     1     2    1
    17    59    63   am
    18     4     3    2
    19    52    53    1
    20    66    65    2
    21     3     2    1
    22    30    29    1
    23    53    54    2
    24    63    64    1
    25     2     5    1
    26    65    64    1
    27    37    36    2
    28    36    35    1
    29    29    26    1
    30    54    56    1
    31    54    55    1
    32    28    27    2
    33    35    34    1
    34    35    38    1
    35     5     6    1
    36     5     7    1
    37    27    34   am
    38    27    26    1
    39    42    40   ar
    40    42    44   ar
    41    26    25    1
    42     6     8    1
    43    40    39   ar
    44    45    44    1
    45    44    43   ar
    46    39    38    1
    47    39    41   ar
    48    43    41   ar
    49    22    19    1
    50    22    23    1
    51    19    20    1
    52    19    18    1
    53    20    21    2
    54    23    24    1
    55    18    24    1
    56    18    11   am
    57    12    11    2
    58    83    84   ar
    59    83    81   ar
    60    11    10    1
    61    84    82   ar
    62    81    80   ar
    63     9    10    1
    64    10    13    1
    65    82    80   ar
    66    80    79    1
    67    13    14    1
    68    79    76    1
    69    76    75    1
    70    76    77    1
    71    15    14    1
    72    15    16    1
    73    78    77    2
    74    16    17    1
    75    67    68    1
    76    74    72    1
    77    68    69    1
    78    68    71    1
    79    70    69    2
    80    72    71    1
    81    72    73    1
