@<TRIPOS>MOLECULE
tmp/5h8jF00.pdb
 128 124 0 0 0
SMALL
GASTEIGER

@<TRIPOS>ATOM
      1  N         36.3610    8.7640  -21.9170 N.3    45  GLU45      -0.1245
      2  CA        37.3420    9.5790  -21.2130 C.3    45  GLU45       0.1567
      3  C         37.9870    8.8460  -20.0130 C.2    45  GLU45       0.2260
      4  O         37.2990    8.1540  -19.2710 O.2    45  GLU45      -0.2867
      5  CB        36.6790   10.8670  -20.7000 C.3    45  GLU45       0.0388
      6  CG        37.5670   11.7440  -19.7880 C.3    45  GLU45       0.1160
      7  CD        36.7910   12.8460  -19.0910 C.2    45  GLU45       0.3649
      8  OE1       35.6370   12.5970  -18.6730 O.co2  45  GLU45      -0.2457
      9  OE2       37.3340   13.9610  -18.9540 O.co2  45  GLU45      -0.2457
     10  N         37.1350    6.6910  -12.6130 N.3    51  TYR51      -0.1241
     11  CA        36.9740    8.1380  -12.6690 C.3    51  TYR51       0.1605
     12  C         37.3370    8.7150  -11.2400 C.2    51  TYR51       0.2264
     13  O         36.4790    8.8740  -10.3470 O.2    51  TYR51      -0.2867
     14  CB        35.5800    8.5100  -13.1170 C.3    51  TYR51       0.0534
     15  CG        35.4500    9.9660  -13.2940 C.ar   51  TYR51      -0.0201
     16  CD1       36.1150   10.6120  -14.3300 C.ar   51  TYR51      -0.0009
     17  CD2       34.6820   10.7160  -12.4270 C.ar   51  TYR51      -0.0009
     18  CE1       36.0100   11.9540  -14.4940 C.ar   51  TYR51       0.0417
     19  CE2       34.5690   12.0660  -12.5880 C.ar   51  TYR51       0.0417
     20  CZ        35.2350   12.6780  -13.6260 C.ar   51  TYR51       0.1957
     21  OH        35.1120   14.0360  -13.7720 O.3    51  TYR51      -0.2866
     22  N         41.6880   19.4620  -22.7310 N.3   118  LYS118     -0.1245
     23  CA        40.3220   19.8480  -22.2840 C.3   118  LYS118      0.1561
     24  C         40.2950   21.3140  -21.8670 C.2   118  LYS118      0.2260
     25  O         41.1070   21.7160  -21.0330 O.2   118  LYS118     -0.2867
     26  CB        39.9030   18.9620  -21.1080 C.3   118  LYS118      0.0271
     27  CG        38.4740   19.1180  -20.6840 C.3   118  LYS118      0.0035
     28  CD        38.1400   18.0210  -19.7140 C.3   118  LYS118      0.0206
     29  CE        36.7000   18.1280  -19.2780 C.3   118  LYS118      0.1093
     30  NZ        36.2990   16.9260  -18.4850 N.3   118  LYS118     -0.1314
     31  N         35.1270   20.9170  -15.2590 N.3   122  PRO122     -0.2102
     32  CA        33.9440   20.8670  -14.4060 C.3   122  PRO122      0.1504
     33  C         34.2750   20.8500  -12.9250 C.2   122  PRO122      0.2575
     34  O         35.4650   20.7220  -12.5340 O.2   122  PRO122     -0.2718
     35  CB        33.2730   19.5660  -14.8330 C.3   122  PRO122      0.0282
     36  CG        34.3940   18.6920  -15.2780 C.3   122  PRO122      0.0208
     37  CD        35.3930   19.6220  -15.9110 C.3   122  PRO122      0.0893
     38  N         33.2480   20.9650  -12.0860 N.am  123  ASP123     -0.1974
     39  CA        33.5010   20.9980  -10.6220 C.3   123  ASP123      0.1708
     40  C         32.2610   20.6070   -9.8620 C.2   123  ASP123      0.2293
     41  O         31.1440   20.6740  -10.3770 O.2   123  ASP123     -0.2864
     42  CB        33.9340   22.4290  -10.2500 C.3   123  ASP123      0.1436
     43  CG        34.8080   22.4950   -9.0320 C.2   123  ASP123      0.3671
     44  OD1       35.1420   21.3890   -8.4400 O.co2 123  ASP123     -0.2456
     45  OD2       35.1690   23.6480   -8.6350 O.co2 123  ASP123     -0.2456
     46  N         32.7680   15.2290   -9.3160 N.3   127  TYR127     -0.1241
     47  CA        33.4720   15.6210  -10.5320 C.3   127  TYR127      0.1605
     48  C         34.3880   16.8370  -10.2540 C.2   127  TYR127      0.2264
     49  O         34.3080   17.8850  -10.9370 O.2   127  TYR127     -0.2867
     50  CB        32.4240   15.9160  -11.6880 C.3   127  TYR127      0.0534
     51  CG        31.4140   14.7630  -11.9370 C.ar  127  TYR127     -0.0201
     52  CD1       30.2930   14.5810  -11.1030 C.ar  127  TYR127     -0.0009
     53  CD2       31.5840   13.8700  -12.9820 C.ar  127  TYR127     -0.0009
     54  CE1       29.3900   13.5490  -11.3150 C.ar  127  TYR127      0.0417
     55  CE2       30.6700   12.8320  -13.1980 C.ar  127  TYR127      0.0417
     56  CZ        29.5810   12.6830  -12.3550 C.ar  127  TYR127      0.1957
     57  OH        28.6950   11.6690  -12.5690 O.3   127  TYR127     -0.2866
     58  N         37.1170   17.9770  -11.0550 N.3   129  GLU129     -0.1245
     59  CA        38.1840   18.0520  -12.0760 C.3   129  GLU129      0.1567
     60  C         39.1210   19.2250  -11.9130 C.2   129  GLU129      0.2260
     61  O         40.3280   19.1140  -12.1470 O.2   129  GLU129     -0.2867
     62  CB        37.5880   18.0200  -13.4980 C.3   129  GLU129      0.0388
     63  CG        36.9450   16.6780  -13.7890 C.3   129  GLU129      0.1160
     64  CD        36.7830   16.3210  -15.2560 C.2   129  GLU129      0.3649
     65  OE1       37.2940   17.0760  -16.1300 O.co2 129  GLU129     -0.2457
     66  OE2       36.1510   15.2690  -15.5380 O.co2 129  GLU129     -0.2457
     67  N         34.6760   15.3450  -22.6900 N.3   155  CYS155     -0.1221
     68  CA        33.6040   15.3820  -21.6830 C.3   155  CYS155      0.1808
     69  C         32.8830   16.7400  -21.4660 C.2   155  CYS155      0.2601
     70  O         32.0750   17.1310  -22.3000 O.2   155  CYS155     -0.2717
     71  CB        34.1360   14.8230  -20.3640 C.3   155  CYS155      0.0970
     72  SG        32.8000   14.2930  -19.2560 S.3   155  CYS155     -0.0800
     73  N         33.1800   17.4480  -20.3680 N.am  156  TRP156     -0.1976
     74  CA        32.5230   18.7390  -20.0740 C.3   156  TRP156      0.1640
     75  C         32.4850   19.7390  -21.2870 C.2   156  TRP156      0.2290
     76  O         31.5440   20.5200  -21.3960 O.2   156  TRP156     -0.2864
     77  CB        33.1780   19.3630  -18.8360 C.3   156  TRP156      0.0576
     78  CG        32.4750   20.4510  -18.1550 C.ar  156  TRP156      0.0006
     79  CD1       32.9900   21.6570  -17.8210 C.ar  156  TRP156      0.0946
     80  CD2       31.1330   20.4450  -17.6850 C.ar  156  TRP156      0.0152
     81  NE1       32.0560   22.4250  -17.1830 N.ar  156  TRP156     -0.2442
     82  CE2       30.8980   21.7090  -17.0850 C.ar  156  TRP156      0.0810
     83  CE3       30.0940   19.4970  -17.7060 C.ar  156  TRP156      0.0012
     84  CZ2       29.6580   22.0540  -16.5010 C.ar  156  TRP156      0.0191
     85  CZ3       28.8640   19.8300  -17.1380 C.ar  156  TRP156      0.0001
     86  CH2       28.6550   21.1040  -16.5360 C.ar  156  TRP156      0.0015
     87  N         29.2160   20.3910  -23.4270 N.3   159  TRP159     -0.1241
     88  CA        28.0820   21.2130  -23.0180 C.3   159  TRP159      0.1605
     89  C         28.1290   22.6550  -23.5780 C.2   159  TRP159      0.2264
     90  O         27.1820   23.4700  -23.3590 O.2   159  TRP159     -0.2867
     91  CB        28.0360   21.2750  -21.4930 C.3   159  TRP159      0.0550
     92  CG        27.6870   19.9470  -20.8370 C.ar  159  TRP159      0.0003
     93  CD1       28.5480   18.9340  -20.5060 C.ar  159  TRP159      0.0946
     94  CD2       26.3780   19.5110  -20.4350 C.ar  159  TRP159      0.0152
     95  NE1       27.8490   17.8850  -19.9280 N.ar  159  TRP159     -0.2442
     96  CE2       26.5190   18.2160  -19.8760 C.ar  159  TRP159      0.0810
     97  CE3       25.0990   20.0860  -20.5080 C.ar  159  TRP159      0.0012
     98  CZ2       25.4420   17.4990  -19.3810 C.ar  159  TRP159      0.0191
     99  CZ3       24.0330   19.3790  -20.0310 C.ar  159  TRP159      0.0001
    100  CH2       24.2080   18.0870  -19.4600 C.ar  159  TRP159      0.0015
    101  N         32.6460   10.8610  -19.3130 N.3   180  ALA180     -0.1231
    102  CA        32.4900   10.0970  -18.0980 C.3   180  ALA180      0.1694
    103  C         31.4320   10.8330  -17.2600 C.2   180  ALA180      0.2591
    104  O         31.7660   11.7110  -16.4470 O.2   180  ALA180     -0.2718
    105  CB        33.8110    9.9730  -17.3350 C.3   180  ALA180      0.0304
    106  N         30.1560   10.4880  -17.4630 N.am  181  ILE181     -0.1980
    107  CA        29.1140   11.1410  -16.7220 C.3   181  ILE181      0.1595
    108  C         28.0880   10.1890  -16.1520 C.2   181  ILE181      0.2287
    109  O         27.6970    9.2460  -16.8020 O.2   181  ILE181     -0.2864
    110  CB        28.4560   12.2870  -17.5410 C.3   181  ILE181      0.0276
    111  CG1       27.4990   13.0810  -16.6420 C.3   181  ILE181      0.0022
    112  CG2       27.7190   11.7400  -18.7500 C.3   181  ILE181      0.0022
    113  CD1       27.0650   14.3930  -17.2220 C.3   181  ILE181      0.0001
    114  N         25.1680   11.8820   -9.3860 N.3   184  GLU184     -0.1245
    115  CA        25.9890   12.8050   -8.5900 C.3   184  GLU184      0.1567
    116  C         25.8040   12.4170   -7.1400 C.2   184  GLU184      0.2260
    117  O         24.6650   12.3670   -6.6700 O.2   184  GLU184     -0.2867
    118  CB        25.6270   14.2550   -8.8930 C.3   184  GLU184      0.0388
    119  CG        25.6620   14.5130  -10.4190 C.3   184  GLU184      0.1160
    120  CD        25.8170   15.9650  -10.8170 C.2   184  GLU184      0.3649
    121  OE1       25.8610   16.8300   -9.9190 O.co2 184  GLU184     -0.2457
    122  OE2       25.9080   16.2420  -12.0310 O.co2 184  GLU184     -0.2457
    123  N         20.9620   13.6760  -15.2610 N.3   192  SER192     -0.1217
    124  CA        21.3380   14.5520  -16.3530 C.3   192  SER192      0.1889
    125  C         21.2910   13.9830  -17.7620 C.2   192  SER192      0.2288
    126  O         21.4650   14.7350  -18.6900 O.2   192  SER192     -0.2866
    127  CB        22.8070   15.0610  -16.1340 C.3   192  SER192      0.2089
    128  OG        23.7570   13.9880  -16.1600 O.3   192  SER192     -0.2183
@<TRIPOS>BOND
     1    89    90    2
     2    89    88    1
     3    87    88    1
     4    88    91    1
     5    22    23    1
     6    67    68    1
     7    70    69    2
     8    23    24    1
     9    23    26    1
    10     1     2    1
    11    24    25    2
    12    68    69    1
    13    68    71    1
    14    91    92    1
    15    69    73   am
    16    76    75    2
    17    75    74    1
    18     2     5    1
    19     2     3    1
    20    26    27    1
    21    92    93   ar
    22    92    94   ar
    23     5     6    1
    24    27    28    1
    25    97    94   ar
    26    97    99   ar
    27    93    95   ar
    28    94    96   ar
    29    73    74    1
    30    71    72    1
    31    74    77    1
    32    99   100   ar
    33     3     4    2
    34    95    96   ar
    35    96    98   ar
    36     6     7    1
    37    28    29    1
    38   100    98   ar
    39   101   102    1
    40    29    30    1
    41     7     9   ar
    42     7     8   ar
    43    77    78    1
    44   112   110    1
    45   126   125    2
    46    78    79   ar
    47    78    80   ar
    48   102   105    1
    49   102   103    1
    50    79    81   ar
    51   125   124    1
    52    83    80   ar
    53    83    85   ar
    54    80    82   ar
    55   110   107    1
    56   110   111    1
    57   106   103   am
    58   106   107    1
    59   103   104    2
    60   113   111    1
    61    81    82   ar
    62    85    86   ar
    63    82    84   ar
    64   109   108    2
    65   107   108    1
    66    86    84   ar
    67   124   127    1
    68   124   123    1
    69   128   127    1
    70    65    64   ar
    71    37    36    1
    72    37    31    1
    73    66    64   ar
    74    36    35    1
    75    31    32    1
    76    64    63    1
    77    35    32    1
    78    18    16   ar
    79    18    20   ar
    80    32    33    1
    81    16    15   ar
    82    63    62    1
    83    21    20    1
    84    20    19   ar
    85    62    59    1
    86    15    14    1
    87    15    17   ar
    88    55    53   ar
    89    55    56   ar
    90    14    11    1
    91    53    51   ar
    92    33    34    2
    93    33    38   am
    94    11    10    1
    95    11    12    1
    96    19    17   ar
    97    57    56    1
    98    56    54   ar
    99    61    60    2
   100    38    39    1
   101    59    60    1
   102    59    58    1
   103   122   120   ar
   104    51    50    1
   105    51    52   ar
   106    50    47    1
   107    54    52   ar
   108    12    13    2
   109    49    48    2
   110   120   119    1
   111   120   121   ar
   112    39    42    1
   113    39    40    1
   114    47    48    1
   115    47    46    1
   116   119   118    1
   117    41    40    2
   118    42    43    1
   119   114   115    1
   120    43    45   ar
   121    43    44   ar
   122   118   115    1
   123   115   116    1
   124   116   117    2
