@<TRIPOS>MOLECULE
tmp/5h8jB01.pdb
 81 78 0 0 0
SMALL
GASTEIGER

@<TRIPOS>ATOM
      1  N         59.9510   65.3540  -21.2580 N.3   148  LYS148     -0.1245
      2  CA        58.7380   65.2080  -22.0290 C.3   148  LYS148      0.1561
      3  C         58.5910   66.5460  -22.6880 C.2   148  LYS148      0.2260
      4  O         58.6230   67.5710  -22.0090 O.2   148  LYS148     -0.2867
      5  CB        57.5110   64.9690  -21.1700 C.3   148  LYS148      0.0271
      6  CG        57.5790   63.7360  -20.3010 C.3   148  LYS148      0.0035
      7  CD        56.3850   63.6510  -19.3490 C.3   148  LYS148      0.0206
      8  CE        55.0970   63.2550  -20.0760 C.3   148  LYS148      0.1093
      9  NZ        55.0110   61.7590  -20.1710 N.3   148  LYS148     -0.1314
     10  N         50.7490   71.0420  -22.3300 N.3   167  ALA167     -0.1231
     11  CA        51.1050   71.0550  -20.9130 C.3   167  ALA167      0.1694
     12  C         50.2100   70.1240  -20.1270 C.2   167  ALA167      0.2592
     13  O         50.6470   69.4790  -19.2130 O.2   167  ALA167     -0.2718
     14  CB        51.0170   72.4620  -20.3250 C.3   167  ALA167      0.0304
     15  N         48.9450   70.0430  -20.4920 N.am  168  LEU168     -0.1966
     16  CA        48.0370   69.1460  -19.7360 C.3   168  LEU168      0.1728
     17  C         48.4690   67.6650  -19.8950 C.2   168  LEU168      0.2616
     18  O         48.2200   66.8870  -19.0490 O.2   168  LEU168     -0.2715
     19  CB        46.5720   69.3170  -20.1580 C.3   168  LEU168      0.0311
     20  CG        45.7730   70.5270  -19.7430 C.3   168  LEU168      0.0022
     21  CD1       44.4800   70.5670  -20.5660 C.3   168  LEU168      0.0001
     22  CD2       45.4270   70.4550  -18.2480 C.3   168  LEU168      0.0001
     23  N         49.1090   67.3380  -21.0090 N.am  169  GLN169     -0.1963
     24  CA        49.5880   65.9880  -21.3130 C.3   169  GLN169      0.1733
     25  C         51.0220   65.7520  -20.8200 C.2   169  GLN169      0.2617
     26  O         51.6240   64.7110  -21.1360 O.2   169  GLN169     -0.2715
     27  CB        49.5180   65.7550  -22.8440 C.3   169  GLN169      0.0408
     28  CG        48.1010   65.7590  -23.3160 C.3   169  GLN169      0.0908
     29  CD        47.9810   65.7760  -24.8060 C.2   169  GLN169      0.2608
     30  OE1       48.7100   65.1100  -25.5290 O.2   169  GLN169     -0.2717
     31  NE2       47.0430   66.5420  -25.2860 N.am  169  GLN169     -0.0878
     32  N         51.5710   66.7090  -20.0570 N.am  170  GLY170     -0.1940
     33  CA        52.9030   66.5840  -19.4660 C.3   170  GLY170      0.2014
     34  C         54.0680   67.2640  -20.1800 C.2   170  GLY170      0.2638
     35  O         55.1670   67.0320  -19.8160 O.2   170  GLY170     -0.2714
     36  N         53.8420   68.0910  -21.1960 N.am  171  ALA171     -0.1977
     37  CA        54.9650   68.7780  -21.8140 C.3   171  ALA171      0.1597
     38  C         55.7480   69.5990  -20.7430 C.2   171  ALA171      0.2287
     39  O         55.1390   70.3210  -19.9520 O.2   171  ALA171     -0.2864
     40  CB        54.5010   69.6810  -22.9350 C.3   171  ALA171      0.0319
     41  N         58.9970   72.2930  -12.2770 N.3   267  LYS267     -0.1245
     42  CA        57.8240   71.4620  -11.9870 C.3   267  LYS267      0.1561
     43  C         57.2220   71.8390  -10.6380 C.2   267  LYS267      0.2260
     44  O         56.0140   72.0600  -10.5280 O.2   267  LYS267     -0.2867
     45  CB        58.1380   69.9530  -12.0270 C.3   267  LYS267      0.0271
     46  CG        56.9730   69.0830  -11.5020 C.3   267  LYS267      0.0035
     47  CD        56.7310   67.8010  -12.3040 C.3   267  LYS267      0.0206
     48  CE        57.6720   66.6620  -11.9410 C.3   267  LYS267      0.1093
     49  NZ        57.5370   65.6130  -13.0150 N.3   267  LYS267     -0.1314
     50  N         55.5060   75.1510  -10.8290 N.3   270  ARG270     -0.1231
     51  CA        54.2190   75.0150  -11.5490 C.3   270  ARG270      0.1694
     52  C         53.1270   74.4030  -10.6140 C.2   270  ARG270      0.2592
     53  O         52.0030   74.9150  -10.5110 O.2   270  ARG270     -0.2718
     54  CB        54.4330   74.1650  -12.7940 C.3   270  ARG270      0.0321
     55  CG        53.2830   74.1400  -13.7630 C.3   270  ARG270      0.0489
     56  CD        53.6780   73.5650  -15.1170 C.3   270  ARG270      0.2205
     57  NE        54.3890   72.2630  -15.0270 N.pl3 270  ARG270     -0.0865
     58  CZ        55.7030   72.0850  -15.3040 C.cat 270  ARG270      0.5346
     59  NH1       56.4490   73.1100  -15.6970 N.pl3 270  ARG270      0.1354
     60  NH2       56.2530   70.8700  -15.1900 N.pl3 270  ARG270      0.1354
     61  N         53.4820   73.3210   -9.9290 N.am  271  HIS271     -0.1976
     62  CA        52.5900   72.6770   -8.9820 C.3   271  HIS271      0.1656
     63  C         52.1730   73.7290   -7.9140 C.2   271  HIS271      0.2291
     64  O         50.9840   73.9050   -7.6390 O.2   271  HIS271     -0.2864
     65  CB        53.2840   71.4410   -8.3520 C.3   271  HIS271      0.0771
     66  CG        52.3320   70.4330   -7.7440 C.ar  271  HIS271      0.0820
     67  ND1       52.1900   70.2530   -6.3630 N.ar  271  HIS271     -0.2267
     68  CD2       51.4700   69.5530   -8.3320 C.ar  271  HIS271      0.1154
     69  CE1       51.2870   69.3070   -6.1400 C.ar  271  HIS271      0.1986
     70  NE2       50.8350   68.8680   -7.3190 N.ar  271  HIS271     -0.2212
     71  N         46.8320   74.6190  -12.6790 N.3   276  PHE276     -0.1241
     72  CA        46.2520   73.3650  -13.1410 C.3   276  PHE276      0.1605
     73  C         45.2660   72.6670  -12.2100 C.2   276  PHE276      0.2264
     74  O         44.3910   71.9660  -12.6880 O.2   276  PHE276     -0.2867
     75  CB        47.3130   72.4020  -13.5860 C.3   276  PHE276      0.0534
     76  CG        48.0960   72.8920  -14.7500 C.ar  276  PHE276     -0.0203
     77  CD1       47.6060   72.7280  -16.0610 C.ar  276  PHE276     -0.0042
     78  CD2       49.3190   73.5420  -14.5670 C.ar  276  PHE276     -0.0042
     79  CE1       48.3030   73.1840  -17.1110 C.ar  276  PHE276     -0.0003
     80  CE2       50.0280   73.9990  -15.6720 C.ar  276  PHE276     -0.0003
     81  CZ        49.5070   73.8180  -16.9380 C.ar  276  PHE276     -0.0000
@<TRIPOS>BOND
     1    30    29    2
     2    31    29   am
     3    29    28    1
     4    28    27    1
     5    40    37    1
     6    27    24    1
     7     3     2    1
     8     3     4    2
     9    10    11    1
    10     2     1    1
    11     2     5    1
    12    37    36    1
    13    37    38    1
    14    24    23    1
    15    24    25    1
    16    36    34   am
    17     5     6    1
    18    26    25    2
    19    23    17   am
    20    11    14    1
    21    11    12    1
    22    25    32   am
    23    38    39    2
    24    21    20    1
    25    15    12   am
    26    15    16    1
    27     6     7    1
    28    34    35    2
    29    34    33    1
    30     9     8    1
    31    19    20    1
    32    19    16    1
    33    12    13    2
    34     8     7    1
    35    32    33    1
    36    17    16    1
    37    17    18    2
    38    20    22    1
    39    79    81   ar
    40    79    77   ar
    41    81    80   ar
    42    77    76   ar
    43    59    58    1
    44    80    78   ar
    45    58    60    1
    46    58    57    2
    47    56    57    1
    48    56    55    1
    49    76    78   ar
    50    76    75    1
    51    55    54    1
    52    75    72    1
    53    72    71    1
    54    72    73    1
    55    49    48    1
    56    54    51    1
    57    74    73    2
    58    47    48    1
    59    47    46    1
    60    41    42    1
    61    45    42    1
    62    45    46    1
    63    42    43    1
    64    51    50    1
    65    51    52    1
    66    43    44    2
    67    52    53    2
    68    52    61   am
    69    61    62    1
    70    62    65    1
    71    62    63    1
    72    65    66    1
    73    68    66   ar
    74    68    70   ar
    75    63    64    2
    76    66    67   ar
    77    70    69   ar
    78    67    69   ar
