@<TRIPOS>MOLECULE
tmp/5h8mA00.pdb
 134 123 0 0 0
SMALL
GASTEIGER

@<TRIPOS>ATOM
      1  N         26.9190   82.1510   61.3450 N.3   113  VAL113     -0.1245
      2  CA        27.9570   81.9440   60.3430 C.3   113  VAL113      0.1561
      3  C         27.6640   80.6440   59.6390 C.2   113  VAL113      0.2260
      4  O         27.4760   79.6040   60.2850 O.2   113  VAL113     -0.2867
      5  CB        29.3480   81.8760   60.9540 C.3   113  VAL113      0.0252
      6  CG1       30.3800   81.5630   59.8670 C.3   113  VAL113      0.0019
      7  CG2       29.6630   83.1940   61.6480 C.3   113  VAL113      0.0019
      8  N         35.1570   81.3080   53.3570 N.3   268  GLU268     -0.1231
      9  CA        36.4760   80.9850   53.8610 C.3   268  GLU268      0.1699
     10  C         36.5060   79.6570   54.6310 C.2   268  GLU268      0.2592
     11  O         36.4130   78.6000   54.0120 O.2   268  GLU268     -0.2718
     12  CB        37.0720   82.1790   54.6230 C.3   268  GLU268      0.0402
     13  CG        38.5390   82.0430   55.0660 C.3   268  GLU268      0.1161
     14  CD        38.6950   82.3060   56.5820 C.2   268  GLU268      0.3649
     15  OE1       37.6610   82.3430   57.2950 O.co2 268  GLU268     -0.2457
     16  OE2       39.8420   82.4750   57.0540 O.co2 268  GLU268     -0.2457
     17  N         36.6280   79.6870   55.9560 N.am  269  ASP269     -0.1974
     18  CA        36.9530   78.4540   56.6890 C.3   269  ASP269      0.1709
     19  C         35.8450   77.3950   56.8450 C.2   269  ASP269      0.2293
     20  O         36.1160   76.3040   57.3350 O.2   269  ASP269     -0.2864
     21  CB        37.5940   78.7660   58.0430 C.3   269  ASP269      0.1436
     22  CG        39.0720   79.1100   57.9330 C.2   269  ASP269      0.3671
     23  OD1       39.6250   79.7310   58.8710 O.co2 269  ASP269     -0.2456
     24  OD2       39.6900   78.7630   56.9090 O.co2 269  ASP269     -0.2456
     25  N         31.7500   86.8000   53.9590 N.3   324  ARG324     -0.1245
     26  CA        33.1610   86.7770   54.3550 C.3   324  ARG324      0.1563
     27  C         34.0270   86.2490   53.2340 C.2   324  ARG324      0.2260
     28  O         33.8720   85.0960   52.8140 O.2   324  ARG324     -0.2867
     29  CB        33.4210   85.9480   55.6250 C.3   324  ARG324      0.0307
     30  CG        34.9110   85.6460   55.8290 C.3   324  ARG324      0.0489
     31  CD        35.2980   85.2940   57.2570 C.3   324  ARG324      0.2205
     32  NE        34.9380   83.9270   57.6050 N.pl3 324  ARG324     -0.0865
     33  CZ        35.2480   83.3400   58.7540 C.cat 324  ARG324      0.5346
     34  NH1       35.9330   84.0000   59.6750 N.pl3 324  ARG324      0.1354
     35  NH2       34.8820   82.0900   58.9780 N.pl3 324  ARG324      0.1354
     36  N         38.7670   91.0880   61.4300 N.3   415  MET415     -0.1245
     37  CA        38.8310   89.9780   62.3600 C.3   415  MET415      0.1570
     38  C         40.1390   89.8680   63.1510 C.2   415  MET415      0.2261
     39  O         41.2330   89.8140   62.5890 O.2   415  MET415     -0.2867
     40  CB        38.4460   88.6820   61.6680 C.3   415  MET415      0.0387
     41  CG        36.9940   88.6810   61.2790 C.3   415  MET415      0.0595
     42  SD        36.4530   86.9880   61.2940 S.3   415  MET415     -0.1393
     43  CE        36.4850   86.6210   63.0430 C.3   415  MET415      0.0692
     44  N         42.3650   87.7240   64.7610 N.3   417  GLU417     -0.1245
     45  CA        42.6740   86.3040   64.8560 C.3   417  GLU417      0.1567
     46  C         44.1260   86.0340   64.5130 C.2   417  GLU417      0.2260
     47  O         44.5160   84.8970   64.2590 O.2   417  GLU417     -0.2867
     48  CB        41.7550   85.4660   63.9520 C.3   417  GLU417      0.0388
     49  CG        41.6710   85.9300   62.5070 C.3   417  GLU417      0.1160
     50  CD        40.6290   85.1600   61.7110 C.2   417  GLU417      0.3649
     51  OE1       40.1690   85.6590   60.6660 O.co2 417  GLU417     -0.2457
     52  OE2       40.2640   84.0420   62.1240 O.co2 417  GLU417     -0.2457
     53  N         38.6260   85.7850   67.2230 N.3   442  ALA442     -0.1245
     54  CA        38.5460   84.4240   66.7160 C.3   442  ALA442      0.1562
     55  C         39.6600   83.6010   67.3530 C.2   442  ALA442      0.2260
     56  O         40.7690   83.4830   66.8220 O.2   442  ALA442     -0.2867
     57  CB        38.6600   84.4150   65.2070 C.3   442  ALA442      0.0290
     58  N         40.1990   80.2810   67.8650 N.3   444  LEU444     -0.1231
     59  CA        40.7540   79.1950   67.0430 C.3   444  LEU444      0.1693
     60  C         41.9320   79.6180   66.1440 C.2   444  LEU444      0.2592
     61  O         43.0150   79.0400   66.2220 O.2   444  LEU444     -0.2718
     62  CB        39.6760   78.5480   66.1800 C.3   444  LEU444      0.0284
     63  CG        38.4460   77.9600   66.8600 C.3   444  LEU444      0.0019
     64  CD1       38.8420   77.2700   68.1500 C.3   444  LEU444      0.0001
     65  CD2       37.4140   79.0500   67.0940 C.3   444  LEU444      0.0001
     66  N         41.7340   80.6350   65.3100 N.am  445  ASP445     -0.1974
     67  CA        42.8410   81.1080   64.4810 C.3   445  ASP445      0.1709
     68  C         43.9110   81.8170   65.2830 C.2   445  ASP445      0.2293
     69  O         45.1050   81.5520   65.1110 O.2   445  ASP445     -0.2864
     70  CB        42.3640   81.9760   63.3230 C.3   445  ASP445      0.1436
     71  CG        42.2020   81.1740   62.0580 C.2   445  ASP445      0.3671
     72  OD1       41.0760   81.1410   61.5360 O.co2 445  ASP445     -0.2456
     73  OD2       43.2040   80.5390   61.6270 O.co2 445  ASP445     -0.2456
     74  N         33.9040   84.9570   69.7200 N.3   497  GLY497     -0.1210
     75  CA        33.9350   83.6640   69.0580 C.3   497  GLY497      0.1956
     76  C         32.7040   82.7810   69.0810 C.2   497  GLY497      0.2611
     77  O         31.6190   83.1800   69.4940 O.2   497  GLY497     -0.2717
     78  N         32.9080   81.5410   68.6560 N.am  498  MET498     -0.1979
     79  CA        31.8300   80.6430   68.2910 C.3   498  MET498      0.1605
     80  C         31.6770   79.4450   69.2350 C.2   498  MET498      0.2287
     81  O         32.6620   78.9020   69.7550 O.2   498  MET498     -0.2864
     82  CB        32.0760   80.1620   66.8490 C.3   498  MET498      0.0413
     83  CG        31.3790   78.8780   66.4380 C.3   498  MET498      0.0598
     84  SD        29.7280   79.1800   65.7880 S.3   498  MET498     -0.1393
     85  CE        30.1070   80.3770   64.5140 C.3   498  MET498      0.0692
     86  N         31.1070   75.7500   69.5130 N.3   500  THR500     -0.1218
     87  CA        31.3110   74.5960   68.6280 C.3   500  THR500      0.1862
     88  C         30.4750   73.3660   68.9970 C.2   500  THR500      0.2287
     89  O         30.2060   72.5140   68.1590 O.2   500  THR500     -0.2866
     90  CB        32.7990   74.1620   68.5920 C.3   500  THR500      0.1770
     91  OG1       33.2360   73.8030   69.9140 O.3   500  THR500     -0.2211
     92  CG2       33.6670   75.2710   68.0650 C.3   500  THR500      0.0375
     93  N         29.0790   84.5990   68.0260 N.3   524  TRP524     -0.1241
     94  CA        28.8450   83.6250   66.9460 C.3   524  TRP524      0.1605
     95  C         28.1770   82.2900   67.3570 C.2   524  TRP524      0.2264
     96  O         28.6630   81.5730   68.2310 O.2   524  TRP524     -0.2867
     97  CB        30.1550   83.3330   66.1990 C.3   524  TRP524      0.0550
     98  CG        30.5760   84.3870   65.2190 C.ar  524  TRP524      0.0003
     99  CD1       30.0860   85.6530   65.1190 C.ar  524  TRP524      0.0946
    100  CD2       31.5780   84.2620   64.1990 C.ar  524  TRP524      0.0152
    101  NE1       30.7160   86.3260   64.1040 N.ar  524  TRP524     -0.2442
    102  CE2       31.6330   85.4960   63.5170 C.ar  524  TRP524      0.0810
    103  CE3       32.4310   83.2280   63.7910 C.ar  524  TRP524      0.0012
    104  CZ2       32.5150   85.7300   62.4530 C.ar  524  TRP524      0.0191
    105  CZ3       33.3010   83.4670   62.7150 C.ar  524  TRP524      0.0001
    106  CH2       33.3360   84.7070   62.0730 C.ar  524  TRP524      0.0015
    107  N         31.2450   71.2590   65.9800 N.3   614  MET614     -0.1245
    108  CA        31.1480   71.8830   64.6580 C.3   614  MET614      0.1570
    109  C         32.5080   72.4650   64.2760 C.2   614  MET614      0.2261
    110  O         32.8150   73.6200   64.5400 O.2   614  MET614     -0.2867
    111  CB        30.0590   72.9570   64.6190 C.3   614  MET614      0.0387
    112  CG        28.7670   72.5190   63.9160 C.3   614  MET614      0.0595
    113  SD        28.6520   72.9950   62.1600 S.3   614  MET614     -0.1393
    114  CE        29.1420   74.7240   62.2640 C.3   614  MET614      0.0692
    115  N         35.5120   73.8030   61.8570 N.3   616  ASP616     -0.1239
    116  CA        35.8700   74.4480   60.5890 C.3   616  ASP616      0.1674
    117  C         37.4030   74.4900   60.4280 C.2   616  ASP616      0.2266
    118  O         38.1180   73.9500   61.2540 O.2   616  ASP616     -0.2867
    119  CB        35.2200   75.8340   60.4360 C.3   616  ASP616      0.1410
    120  CG        35.9010   76.9020   61.2600 C.2   616  ASP616      0.3668
    121  OD1       36.5680   76.5470   62.2510 O.co2 616  ASP616     -0.2456
    122  OD2       35.7500   78.0990   60.9210 O.co2 616  ASP616     -0.2456
    123  N         39.8370   76.4220   60.8900 N.3   618  ALA618     -0.1231
    124  CA        40.6620   76.9760   61.9650 C.3   618  ALA618      0.1694
    125  C         41.0160   75.9410   63.0380 C.2   618  ALA618      0.2592
    126  O         42.1250   75.9740   63.5870 O.2   618  ALA618     -0.2718
    127  CB        39.9810   78.1670   62.5980 C.3   618  ALA618      0.0304
    128  N         40.0770   75.0390   63.3470 N.am  619  THR619     -0.1953
    129  CA        40.3210   74.0260   64.3700 C.3   619  THR619      0.1897
    130  C         41.4230   73.0880   63.9200 C.2   619  THR619      0.2313
    131  O         42.1850   72.5640   64.7300 O.2   619  THR619     -0.2863
    132  CB        39.0660   73.1790   64.7170 C.3   619  THR619      0.1794
    133  OG1       39.1400   71.9130   64.0490 O.3   619  THR619     -0.2208
    134  CG2       37.7670   73.9060   64.3590 C.3   619  THR619      0.0378
@<TRIPOS>BOND
     1    28    27    2
     2    27    26    1
     3     8     9    1
     4     9    12    1
     5     9    10    1
     6    25    26    1
     7    11    10    2
     8    26    29    1
     9    12    13    1
    10    10    17   am
    11    13    14    1
    12    29    30    1
    13    30    31    1
    14    17    18    1
    15    14    16   ar
    16    14    15   ar
    17    18    19    1
    18    18    21    1
    19    19    20    2
    20    24    22   ar
    21    31    32    1
    22    32    33    2
    23    22    21    1
    24    22    23   ar
    25    33    35    1
    26    33    34    1
    27     3     4    2
    28     3     2    1
    29     6     5    1
    30     2     5    1
    31     2     1    1
    32   117   116    1
    33   117   118    2
    34   119   116    1
    35   119   120    1
    36   116   115    1
    37    51    50   ar
    38   123   124    1
    39   122   120   ar
    40     5     7    1
    41   120   121   ar
    42    41    42    1
    43    41    40    1
    44    42    43    1
    45    36    37    1
    46    72    71   ar
    47    73    71   ar
    48    40    37    1
    49    50    52   ar
    50    50    49    1
    51   124   127    1
    52   124   125    1
    53    71    70    1
    54   106   104   ar
    55   106   105   ar
    56   113   114    1
    57   113   112    1
    58    37    38    1
    59   104   102   ar
    60    49    48    1
    61    39    38    2
    62   105   103   ar
    63   125   128   am
    64   125   126    2
    65    70    67    1
    66   128   129    1
    67   102   101   ar
    68   102   100   ar
    69   103   100   ar
    70   112   111    1
    71   130   129    1
    72   130   131    2
    73    48    45    1
    74   133   132    1
    75   101    99   ar
    76   100    98   ar
    77    47    46    2
    78   109   110    2
    79   109   108    1
    80   134   132    1
    81   129   132    1
    82    67    68    1
    83    67    66    1
    84    46    45    1
    85    85    84    1
    86   111   108    1
    87   108   107    1
    88    44    45    1
    89    69    68    2
    90    99    98   ar
    91    57    54    1
    92    98    97    1
    93    66    60   am
    94    84    83    1
    95    60    61    2
    96    60    59    1
    97    62    63    1
    98    62    59    1
    99    97    94    1
   100    83    82    1
   101    54    53    1
   102    54    55    1
   103    56    55    2
   104    82    79    1
   105    63    65    1
   106    63    64    1
   107    94    95    1
   108    94    93    1
   109    59    58    1
   110    95    96    2
   111    92    90    1
   112    89    88    2
   113    79    78    1
   114    79    80    1
   115    90    87    1
   116    90    91    1
   117    87    88    1
   118    87    86    1
   119    78    76   am
   120    75    76    1
   121    75    74    1
   122    76    77    2
   123    80    81    2
