@<TRIPOS>MOLECULE
tmp/5h8nA01.pdb
 105 100 0 0 0
SMALL
GASTEIGER

@<TRIPOS>ATOM
      1  N         29.8650   -8.8760  -19.1040 N.3    54  PHE54      -0.1241
      2  CA        28.7980   -8.6280  -20.0550 C.3    54  PHE54       0.1605
      3  C         27.7070   -7.6870  -19.4990 C.2    54  PHE54       0.2264
      4  O         27.3380   -6.7110  -20.1730 O.2    54  PHE54      -0.2867
      5  CB        28.2020   -9.9820  -20.4550 C.3    54  PHE54       0.0534
      6  CG        27.1810   -9.9370  -21.5510 C.ar   54  PHE54      -0.0203
      7  CD1       25.8330   -9.7760  -21.2600 C.ar   54  PHE54      -0.0042
      8  CD2       27.5600  -10.0920  -22.8800 C.ar   54  PHE54      -0.0042
      9  CE1       24.8890   -9.7230  -22.2790 C.ar   54  PHE54      -0.0003
     10  CE2       26.6060  -10.0630  -23.9020 C.ar   54  PHE54      -0.0003
     11  CZ        25.2790   -9.8780  -23.5960 C.ar   54  PHE54      -0.0000
     12  N         13.0290   -5.6750  -21.1610 N.3   121  VAL121     -0.1231
     13  CA        12.9920   -6.6940  -22.2070 C.3   121  VAL121      0.1678
     14  C         14.1610   -7.6450  -21.9170 C.2   121  VAL121      0.2434
     15  O         15.1850   -7.1770  -21.3910 O.2   121  VAL121     -0.2733
     16  CB        13.0960   -6.0840  -23.6360 C.3   121  VAL121      0.0265
     17  CG1       11.8290   -5.3020  -23.9860 C.3   121  VAL121      0.0020
     18  CG2       14.3560   -5.2170  -23.8070 C.3   121  VAL121      0.0020
     19  N         14.0790   -8.9050  -22.2680 N.am  122  PRO122     -0.2718
     20  CA        15.1990   -9.7880  -22.0350 C.3   122  PRO122      0.1535
     21  C         16.3820   -9.4010  -22.8850 C.2   122  PRO122      0.2599
     22  O         16.1920   -8.9530  -23.9400 O.2   122  PRO122     -0.2715
     23  CB        14.6770  -11.1510  -22.4410 C.3   122  PRO122      0.0310
     24  CG        13.4130  -10.9150  -23.0730 C.3   122  PRO122      0.0237
     25  CD        12.8750   -9.6510  -22.5540 C.3   122  PRO122      0.0939
     26  N         17.5920   -9.5670  -22.4020 N.am  123  PHE123     -0.1960
     27  CA        18.7540   -9.1890  -23.2130 C.3   123  PHE123      0.1771
     28  C         19.7150  -10.3820  -23.4220 C.2   123  PHE123      0.2619
     29  O         20.6940  -10.2750  -24.1480 O.2   123  PHE123     -0.2715
     30  CB        19.4610   -7.9250  -22.6780 C.3   123  PHE123      0.0574
     31  CG        19.9520   -8.0350  -21.2630 C.ar  123  PHE123     -0.0200
     32  CD1       21.2130   -8.5510  -20.9870 C.ar  123  PHE123     -0.0042
     33  CD2       19.1620   -7.6100  -20.2010 C.ar  123  PHE123     -0.0042
     34  CE1       21.6580   -8.6840  -19.6660 C.ar  123  PHE123     -0.0003
     35  CE2       19.6090   -7.7360  -18.8830 C.ar  123  PHE123     -0.0003
     36  CZ        20.8520   -8.2750  -18.6240 C.ar  123  PHE123     -0.0000
     37  N         19.4180  -11.5090  -22.7920 N.am  124  VAL124     -0.1963
     38  CA        20.1720  -12.7550  -22.9060 C.3   124  VAL124      0.1727
     39  C         19.1470  -13.8700  -22.8580 C.2   124  VAL124      0.2616
     40  O         18.4150  -13.9660  -21.8840 O.2   124  VAL124     -0.2715
     41  CB        21.2570  -12.9510  -21.7930 C.3   124  VAL124      0.0290
     42  CG1       21.7770  -14.3850  -21.7540 C.3   124  VAL124      0.0023
     43  CG2       22.4120  -11.9880  -21.9780 C.3   124  VAL124      0.0023
     44  N         19.1140  -14.7260  -23.8860 N.am  125  GLU125     -0.1977
     45  CA        18.2160  -15.8710  -23.8950 C.3   125  GLU125      0.1602
     46  C         18.7530  -16.9090  -22.9080 C.2   125  GLU125      0.2287
     47  O         19.9550  -17.2130  -22.9290 O.2   125  GLU125     -0.2864
     48  CB        18.1280  -16.4670  -25.2950 C.3   125  GLU125      0.0415
     49  CG        17.0630  -17.5440  -25.4190 C.3   125  GLU125      0.1163
     50  CD        17.1060  -18.3700  -26.6860 C.2   125  GLU125      0.3649
     51  OE1       17.7150  -17.9180  -27.6840 O.co2 125  GLU125     -0.2457
     52  OE2       16.4990  -19.4640  -26.6840 O.co2 125  GLU125     -0.2457
     53  N         22.1840  -20.1690  -20.1050 N.3   209  ALA209     -0.1245
     54  CA        23.2400  -19.2310  -20.5040 C.3   209  ALA209      0.1562
     55  C         24.6020  -19.5350  -19.8480 C.2   209  ALA209      0.2260
     56  O         25.5920  -19.6610  -20.5650 O.2   209  ALA209     -0.2867
     57  CB        22.8020  -17.7900  -20.2690 C.3   209  ALA209      0.0290
     58  N         18.0540   -0.8010  -24.6610 N.3   255  LEU255     -0.1231
     59  CA        18.4970   -2.1960  -24.9010 C.3   255  LEU255      0.1693
     60  C         18.1870   -2.6370  -26.3190 C.2   255  LEU255      0.2591
     61  O         19.0280   -3.2620  -26.9650 O.2   255  LEU255     -0.2718
     62  CB        17.8900   -3.2060  -23.9180 C.3   255  LEU255      0.0284
     63  CG        18.3870   -3.1470  -22.4460 C.3   255  LEU255      0.0019
     64  CD1       17.4410   -3.9260  -21.5240 C.3   255  LEU255      0.0001
     65  CD2       19.8300   -3.6540  -22.3010 C.3   255  LEU255      0.0001
     66  N         16.9810   -2.2750  -26.8170 N.am  256  LEU256     -0.1980
     67  CA        16.5500   -2.6280  -28.1630 C.3   256  LEU256      0.1596
     68  C         17.3710   -1.8740  -29.2270 C.2   256  LEU256      0.2287
     69  O         17.6590   -2.4190  -30.2940 O.2   256  LEU256     -0.2864
     70  CB        15.0220   -2.4630  -28.3070 C.3   256  LEU256      0.0297
     71  CG        14.1480   -3.4700  -27.4910 C.3   256  LEU256      0.0022
     72  CD1       12.7340   -3.0630  -27.4730 C.3   256  LEU256      0.0001
     73  CD2       14.2530   -4.8870  -28.0080 C.3   256  LEU256      0.0001
     74  N         20.6950   -3.7850  -29.6400 N.3   259  VAL259     -0.1245
     75  CA        20.4110   -4.9670  -30.4580 C.3   259  VAL259      0.1561
     76  C         20.4720   -4.5690  -31.9430 C.2   259  VAL259      0.2260
     77  O         21.1890   -5.2030  -32.7260 O.2   259  VAL259     -0.2867
     78  CB        19.0300   -5.5750  -30.0890 C.3   259  VAL259      0.0252
     79  CG1       18.5590   -6.6080  -31.1130 C.3   259  VAL259      0.0019
     80  CG2       19.0680   -6.1750  -28.7040 C.3   259  VAL259      0.0019
     81  N         25.1350   -5.2990  -29.0590 N.3   264  MET264     -0.1245
     82  CA        24.9020   -6.5470  -28.3180 C.3   264  MET264      0.1570
     83  C         25.7660   -7.6860  -28.8180 C.2   264  MET264      0.2261
     84  O         26.2370   -8.4800  -28.0030 O.2   264  MET264     -0.2867
     85  CB        23.4340   -6.9790  -28.3690 C.3   264  MET264      0.0387
     86  CG        22.5250   -6.1870  -27.4660 C.3   264  MET264      0.0595
     87  SD        22.6800   -6.3620  -25.6570 S.3   264  MET264     -0.1393
     88  CE        22.9360   -8.0470  -25.4900 C.3   264  MET264      0.0692
     89  N         28.5150  -10.0840  -26.9060 N.3   268  GLU268     -0.1245
     90  CA        28.4410  -11.5370  -27.0020 C.3   268  GLU268      0.1567
     91  C         29.8040  -12.0550  -27.5040 C.2   268  GLU268      0.2260
     92  O         30.3190  -13.0300  -26.9610 O.2   268  GLU268     -0.2867
     93  CB        27.3060  -11.9490  -27.9420 C.3   268  GLU268      0.0388
     94  CG        27.0400  -13.4480  -27.9160 C.3   268  GLU268      0.1160
     95  CD        25.8510  -13.9780  -28.6970 C.2   268  GLU268      0.3649
     96  OE1       24.9460  -13.1830  -29.0420 O.co2 268  GLU268     -0.2457
     97  OE2       25.7940  -15.2130  -28.9000 O.co2 268  GLU268     -0.2457
     98  N         31.1900  -13.9340  -24.2810 N.3   272  LEU272     -0.1245
     99  CA        30.4570  -15.2050  -24.2610 C.3   272  LEU272      0.1561
    100  C         30.9350  -16.3260  -25.1850 C.2   272  LEU272      0.2260
    101  O         30.5890  -17.4810  -24.9390 O.2   272  LEU272     -0.2867
    102  CB        28.9610  -14.9260  -24.5450 C.3   272  LEU272      0.0270
    103  CG        28.2570  -13.8470  -23.6940 C.3   272  LEU272      0.0019
    104  CD1       26.7780  -13.7470  -24.0410 C.3   272  LEU272      0.0001
    105  CD2       28.4120  -14.1260  -22.1870 C.3   272  LEU272      0.0001
@<TRIPOS>BOND
     1    77    76    2
     2    76    75    1
     3    79    78    1
     4    75    78    1
     5    75    74    1
     6    69    68    2
     7    78    80    1
     8    68    67    1
     9    81    82    1
    10    96    95   ar
    11    97    95   ar
    12    83    82    1
    13    83    84    2
    14    95    94    1
    15    85    82    1
    16    85    86    1
    17    70    67    1
    18    70    71    1
    19    67    66    1
    20    73    71    1
    21    93    94    1
    22    93    90    1
    23    51    50   ar
    24    91    90    1
    25    91    92    2
    26    71    72    1
    27    86    87    1
    28    90    89    1
    29    61    60    2
    30    66    60   am
    31    50    52   ar
    32    50    49    1
    33    60    59    1
    34    87    88    1
    35    49    48    1
    36    48    45    1
    37   100   101    2
    38   100    99    1
    39    59    58    1
    40    59    62    1
    41   102    99    1
    42   102   103    1
    43    98    99    1
    44    29    28    2
    45   104   103    1
    46    17    16    1
    47    22    21    2
    48    62    63    1
    49    10    11   ar
    50    10     8   ar
    51    45    44    1
    52    45    46    1
    53    44    39   am
    54    18    16    1
    55   103   105    1
    56    16    13    1
    57    11     9   ar
    58    28    27    1
    59    28    37   am
    60    27    30    1
    61    27    26    1
    62    24    25    1
    63    24    23    1
    64    47    46    2
    65    38    39    1
    66    38    37    1
    67    38    41    1
    68    21    26   am
    69    21    20    1
    70     8     6   ar
    71    39    40    2
    72    30    31    1
    73    25    19    1
    74    63    65    1
    75    63    64    1
    76    23    20    1
    77     9     7   ar
    78    19    20    1
    79    19    14   am
    80    13    14    1
    81    13    12    1
    82    43    41    1
    83    14    15    2
    84    41    42    1
    85     6     7   ar
    86     6     5    1
    87    31    32   ar
    88    31    33   ar
    89    32    34   ar
    90    56    55    2
    91    54    57    1
    92    54    53    1
    93    54    55    1
    94     5     2    1
    95    33    35   ar
    96     4     3    2
    97     2     3    1
    98     2     1    1
    99    34    36   ar
   100    35    36   ar
