@<TRIPOS>MOLECULE
tmp/5h8qB00.pdb
 106 106 0 0 0
SMALL
GASTEIGER

@<TRIPOS>ATOM
      1  N         10.6150   -8.6210  -32.8510 N.3   121  ILE121     -0.1245
      2  CA        10.8260   -7.5470  -31.8830 C.3   121  ILE121      0.1561
      3  C         12.1070   -6.8160  -32.3360 C.2   121  ILE121      0.2260
      4  O         13.1540   -7.4400  -32.5170 O.2   121  ILE121     -0.2867
      5  CB        11.0030   -8.1460  -30.4510 C.3   121  ILE121      0.0252
      6  CG1        9.7460   -8.9320  -30.0240 C.3   121  ILE121      0.0019
      7  CG2       11.3810   -7.0490  -29.4270 C.3   121  ILE121      0.0019
      8  CD1        9.9790   -9.8980  -28.7790 C.3   121  ILE121      0.0001
      9  N          7.0420  -10.4000  -23.8290 N.3   133  LYS133     -0.1231
     10  CA         8.2620  -11.1860  -23.7160 C.3   133  LYS133      0.1678
     11  C          8.1670  -12.1870  -24.9060 C.2   133  LYS133      0.2434
     12  O          7.0490  -12.5110  -25.3650 O.2   133  LYS133     -0.2733
     13  CB         8.3430  -11.9130  -22.3460 C.3   133  LYS133      0.0284
     14  CG         8.7190  -10.9810  -21.1760 C.3   133  LYS133      0.0035
     15  CD        10.2100  -10.5320  -21.2210 C.3   133  LYS133      0.0206
     16  CE        10.6040   -9.6350  -20.0630 C.3   133  LYS133      0.1093
     17  NZ         9.8880   -8.3270  -20.0930 N.3   133  LYS133     -0.1314
     18  N          9.2950  -12.6030  -25.4930 N.am  134  PRO134     -0.2718
     19  CA         9.2080  -13.4280  -26.7100 C.3   134  PRO134      0.1535
     20  C          8.5810  -14.7830  -26.5330 C.2   134  PRO134      0.2599
     21  O          8.6980  -15.3850  -25.4680 O.2   134  PRO134     -0.2715
     22  CB        10.6650  -13.5540  -27.1830 C.3   134  PRO134      0.0310
     23  CG        11.4160  -12.5050  -26.4190 C.3   134  PRO134      0.0237
     24  CD        10.7030  -12.3430  -25.1220 C.3   134  PRO134      0.0939
     25  N          7.9230  -15.2640  -27.5800 N.am  135  PHE135     -0.1960
     26  CA         7.3460  -16.6160  -27.5400 C.3   135  PHE135      0.1771
     27  C          8.1860  -17.5900  -28.3690 C.2   135  PHE135      0.2619
     28  O          7.9730  -18.7990  -28.3010 O.2   135  PHE135     -0.2715
     29  CB         5.8410  -16.6380  -27.9220 C.3   135  PHE135      0.0574
     30  CG         5.5070  -16.1720  -29.3190 C.ar  135  PHE135     -0.0200
     31  CD1        5.6990  -17.0070  -30.4160 C.ar  135  PHE135     -0.0042
     32  CD2        4.9760  -14.9040  -29.5370 C.ar  135  PHE135     -0.0042
     33  CE1        5.4050  -16.5690  -31.7160 C.ar  135  PHE135     -0.0003
     34  CE2        4.6700  -14.4710  -30.8380 C.ar  135  PHE135     -0.0003
     35  CZ         4.8810  -15.3090  -31.9140 C.ar  135  PHE135     -0.0000
     36  N          9.1400  -17.0630  -29.1620 N.am  136  LYS136     -0.1963
     37  CA        10.0230  -17.8830  -30.0240 C.3   136  LYS136      0.1728
     38  C         11.3280  -17.1300  -30.2810 C.2   136  LYS136      0.2616
     39  O         11.2930  -15.9320  -30.5000 O.2   136  LYS136     -0.2715
     40  CB         9.3050  -18.2180  -31.3590 C.3   136  LYS136      0.0311
     41  CG        10.1580  -18.9250  -32.4220 C.3   136  LYS136      0.0038
     42  CD        10.1950  -20.4330  -32.2310 C.3   136  LYS136      0.0206
     43  CE        11.1380  -21.1140  -33.1990 C.3   136  LYS136      0.1093
     44  NZ        11.3470  -22.5440  -32.8530 N.3   136  LYS136     -0.1314
     45  N         12.4760  -17.8180  -30.2070 N.am  137  TYR137     -0.1974
     46  CA        13.7960  -17.2140  -30.4560 C.3   137  TYR137      0.1639
     47  C         14.3330  -17.8850  -31.6760 C.2   137  TYR137      0.2290
     48  O         14.2880  -19.1210  -31.7940 O.2   137  TYR137     -0.2864
     49  CB        14.7420  -17.4000  -29.2670 C.3   137  TYR137      0.0560
     50  CG        16.0870  -16.6940  -29.3840 C.ar  137  TYR137     -0.0198
     51  CD1       16.1750  -15.3920  -29.8760 C.ar  137  TYR137     -0.0009
     52  CD2       17.2440  -17.2640  -28.8520 C.ar  137  TYR137     -0.0009
     53  CE1       17.3930  -14.7080  -29.9140 C.ar  137  TYR137      0.0417
     54  CE2       18.4590  -16.5700  -28.8460 C.ar  137  TYR137      0.0417
     55  CZ        18.5270  -15.2960  -29.3820 C.ar  137  TYR137      0.1957
     56  OH        19.7230  -14.6180  -29.4190 O.3   137  TYR137     -0.2866
     57  N         22.1040  -13.6020  -37.8400 N.3   240  PHE240     -0.1227
     58  CA        21.5340  -12.6400  -36.8980 C.3   240  PHE240      0.1736
     59  C         20.4640  -13.3750  -36.1130 C.2   240  PHE240      0.2595
     60  O         19.7820  -14.2190  -36.6920 O.2   240  PHE240     -0.2718
     61  CB        20.9090  -11.4420  -37.6350 C.3   240  PHE240      0.0547
     62  CG        20.3450  -10.3750  -36.7270 C.ar  240  PHE240     -0.0202
     63  CD1       21.1780   -9.6380  -35.8860 C.ar  240  PHE240     -0.0042
     64  CD2       18.9890  -10.0730  -36.7410 C.ar  240  PHE240     -0.0042
     65  CE1       20.6540   -8.6500  -35.0440 C.ar  240  PHE240     -0.0003
     66  CE2       18.4680   -9.0940  -35.8910 C.ar  240  PHE240     -0.0003
     67  CZ        19.3080   -8.3780  -35.0600 C.ar  240  PHE240     -0.0000
     68  N         20.2880  -13.0280  -34.8300 N.am  241  ARG241     -0.1966
     69  CA        19.2900  -13.6700  -33.9820 C.3   241  ARG241      0.1729
     70  C         18.2330  -12.6850  -33.5420 C.2   241  ARG241      0.2617
     71  O         18.5490  -11.5490  -33.1920 O.2   241  ARG241     -0.2715
     72  CB        19.9610  -14.3720  -32.7840 C.3   241  ARG241      0.0348
     73  CG        20.7970  -15.5780  -33.2480 C.3   241  ARG241      0.0492
     74  CD        21.3040  -16.4140  -32.1050 C.3   241  ARG241      0.2205
     75  NE        22.3610  -15.7200  -31.3770 N.pl3 241  ARG241     -0.0865
     76  CZ        22.8370  -16.1030  -30.1980 C.cat 241  ARG241      0.5346
     77  NH1       22.3470  -17.1820  -29.5920 N.pl3 241  ARG241      0.1354
     78  NH2       23.7990  -15.4080  -29.6110 N.pl3 241  ARG241      0.1354
     79  N         16.9630  -13.1130  -33.5770 N.am  242  SER242     -0.1936
     80  CA        15.8380  -12.2580  -33.1970 C.3   242  SER242      0.2055
     81  C         14.6920  -13.0900  -32.6470 C.2   242  SER242      0.2643
     82  O         14.6080  -14.2850  -32.9240 O.2   242  SER242     -0.2714
     83  CB        15.3530  -11.4520  -34.4060 C.3   242  SER242      0.2130
     84  OG        15.0280  -12.3110  -35.4890 O.3   242  SER242     -0.2179
     85  N         13.8040  -12.4470  -31.8990 N.am  243  GLY243     -0.1954
     86  CA        12.6620  -13.1400  -31.3170 C.3   243  GLY243      0.1869
     87  C         11.3460  -12.6000  -31.8320 C.2   243  GLY243      0.2309
     88  O         11.2900  -11.4790  -32.3550 O.2   243  GLY243     -0.2863
     89  N          5.2920  -16.3500  -20.2290 N.3   263  LEU263     -0.1245
     90  CA         6.2940  -16.9030  -19.2980 C.3   263  LEU263      0.1561
     91  C          5.8080  -18.2100  -18.6960 C.2   263  LEU263      0.2260
     92  O          6.5730  -19.1670  -18.6540 O.2   263  LEU263     -0.2867
     93  CB         6.6280  -15.9150  -18.1790 C.3   263  LEU263      0.0270
     94  CG         7.4000  -14.6490  -18.6180 C.3   263  LEU263      0.0019
     95  CD1        7.7020  -13.7640  -17.4200 C.3   263  LEU263      0.0001
     96  CD2        8.6930  -15.0110  -19.3250 C.3   263  LEU263      0.0001
     97  N          6.1780  -20.9190  -21.3610 N.3   266  HIS266     -0.1241
     98  CA         7.5700  -21.3530  -21.5400 C.3   266  HIS266      0.1621
     99  C          7.9440  -22.3350  -20.3900 C.2   266  HIS266      0.2264
    100  O          8.4910  -23.4090  -20.6450 O.2   266  HIS266     -0.2867
    101  CB         8.5540  -20.1580  -21.5200 C.3   266  HIS266      0.0745
    102  CG         8.6020  -19.4020  -22.8180 C.ar  266  HIS266      0.0817
    103  ND1        8.8990  -20.0450  -24.0180 N.ar  266  HIS266     -0.2268
    104  CD2        8.3820  -18.0860  -23.0700 C.ar  266  HIS266      0.1154
    105  CE1        8.8650  -19.1050  -24.9490 C.ar  266  HIS266      0.1986
    106  NE2        8.5510  -17.9160  -24.4360 N.ar  266  HIS266     -0.2212
@<TRIPOS>BOND
     1    57    58    1
     2    61    58    1
     3    61    62    1
     4    58    59    1
     5    64    62   ar
     6    64    66   ar
     7    62    63   ar
     8    60    59    2
     9    59    68   am
    10    66    67   ar
    11    63    65   ar
    12    84    83    1
    13    67    65   ar
    14    68    69    1
    15    83    80    1
    16    69    70    1
    17    69    72    1
    18    79    70   am
    19    79    80    1
    20    70    71    2
    21    73    72    1
    22    73    74    1
    23    43    44    1
    24    43    42    1
    25    80    81    1
    26    82    81    2
    27     1     2    1
    28    81    85   am
    29     4     3    2
    30    41    42    1
    31    41    40    1
    32    88    87    2
    33     3     2    1
    34    74    75    1
    35    35    33   ar
    36    35    34   ar
    37    85    86    1
    38     2     5    1
    39    87    86    1
    40    48    47    2
    41    33    31   ar
    42    47    46    1
    43    75    76    2
    44    40    37    1
    45    34    32   ar
    46    39    38    2
    47    46    45    1
    48    46    49    1
    49     5     6    1
    50     5     7    1
    51    31    30   ar
    52    38    45   am
    53    38    37    1
    54    76    78    1
    55    76    77    1
    56     6     8    1
    57    37    36    1
    58    53    51   ar
    59    53    55   ar
    60    51    50   ar
    61    32    30   ar
    62    56    55    1
    63    50    49    1
    64    50    52   ar
    65    55    54   ar
    66    30    29    1
    67    36    27   am
    68    52    54   ar
    69    27    28    2
    70    27    26    1
    71    29    26    1
    72    25    26    1
    73    25    20   am
    74    22    19    1
    75    22    23    1
    76    19    20    1
    77    19    18    1
    78    20    21    2
    79    23    24    1
    80    18    24    1
    81    18    11   am
    82    12    11    2
    83   105   106   ar
    84   105   103   ar
    85    11    10    1
    86   106   104   ar
    87   103   102   ar
    88     9    10    1
    89    10    13    1
    90   104   102   ar
    91   102   101    1
    92    13    14    1
    93    98   101    1
    94    98    97    1
    95    98    99    1
    96    15    14    1
    97    15    16    1
    98   100    99    2
    99    89    90    1
   100    17    16    1
   101    96    94    1
   102    90    91    1
   103    90    93    1
   104    91    92    2
   105    94    93    1
   106    94    95    1
