@<TRIPOS>MOLECULE
tmp/5h8qA01.pdb
 83 79 0 0 0
SMALL
GASTEIGER

@<TRIPOS>ATOM
      1  N         14.6860  -14.4510  -16.0790 N.3   109  ILE109     -0.1245
      2  CA        13.3350  -13.9150  -16.1620 C.3   109  ILE109      0.1561
      3  C         12.3820  -15.0950  -15.9260 C.2   109  ILE109      0.2260
      4  O         12.4550  -16.0990  -16.6350 O.2   109  ILE109     -0.2867
      5  CB        13.0600  -13.2690  -17.5550 C.3   109  ILE109      0.0252
      6  CG1       13.9580  -12.0310  -17.8030 C.3   109  ILE109      0.0019
      7  CG2       11.5400  -12.9070  -17.7050 C.3   109  ILE109      0.0019
      8  CD1       14.0640  -11.5770  -19.3090 C.3   109  ILE109      0.0001
      9  N         15.1250   -9.5970  -22.9290 N.3   122  PRO122     -0.2102
     10  CA        16.2870  -10.4630  -22.6440 C.3   122  PRO122      0.1504
     11  C         17.5260  -10.0530  -23.4630 C.2   122  PRO122      0.2576
     12  O         17.4140   -9.7010  -24.6580 O.2   122  PRO122     -0.2718
     13  CB        15.8060  -11.8420  -23.0990 C.3   122  PRO122      0.0282
     14  CG        14.7660  -11.5370  -24.1870 C.3   122  PRO122      0.0208
     15  CD        14.0520  -10.3390  -23.6380 C.3   122  PRO122      0.0893
     16  N         18.7090  -10.1310  -22.8480 N.am  123  PHE123     -0.1963
     17  CA        19.9620   -9.8330  -23.5560 C.3   123  PHE123      0.1771
     18  C         20.7520  -11.1190  -23.8610 C.2   123  PHE123      0.2619
     19  O         21.6460  -11.1060  -24.6970 O.2   123  PHE123     -0.2715
     20  CB        20.7940   -8.7620  -22.8170 C.3   123  PHE123      0.0574
     21  CG        21.1090   -9.0430  -21.3660 C.ar  123  PHE123     -0.0200
     22  CD1       22.1940   -9.8380  -21.0140 C.ar  123  PHE123     -0.0042
     23  CD2       20.3320   -8.4950  -20.3470 C.ar  123  PHE123     -0.0042
     24  CE1       22.5020  -10.0790  -19.6690 C.ar  123  PHE123     -0.0003
     25  CE2       20.6180   -8.7700  -19.0040 C.ar  123  PHE123     -0.0003
     26  CZ        21.7050   -9.5530  -18.6740 C.ar  123  PHE123     -0.0000
     27  N         20.4010  -12.2310  -23.2010 N.am  124  VAL124     -0.1963
     28  CA        21.0280  -13.5360  -23.3960 C.3   124  VAL124      0.1727
     29  C         19.9580  -14.6170  -23.2140 C.2   124  VAL124      0.2616
     30  O         19.1700  -14.5200  -22.2760 O.2   124  VAL124     -0.2715
     31  CB        22.2600  -13.6990  -22.4290 C.3   124  VAL124      0.0290
     32  CG1       22.3520  -15.0800  -21.7990 C.3   124  VAL124      0.0023
     33  CG2       23.5500  -13.3890  -23.1720 C.3   124  VAL124      0.0023
     34  N         19.9270  -15.6330  -24.0980 N.am  125  GLU125     -0.1977
     35  CA        18.9790  -16.7250  -23.9240 C.3   125  GLU125      0.1602
     36  C         19.4350  -17.6600  -22.7830 C.2   125  GLU125      0.2287
     37  O         20.6200  -17.9620  -22.6540 O.2   125  GLU125     -0.2864
     38  CB        18.7920  -17.5540  -25.2110 C.3   125  GLU125      0.0415
     39  CG        17.7880  -18.6830  -24.9760 C.3   125  GLU125      0.1163
     40  CD        17.3900  -19.5440  -26.1550 C.2   125  GLU125      0.3649
     41  OE1       18.2770  -19.8860  -26.9650 O.co2 125  GLU125     -0.2457
     42  OE2       16.2060  -19.9450  -26.2220 O.co2 125  GLU125     -0.2457
     43  N         12.7880  -22.4220  -21.9350 N.3   234  THR234     -0.1203
     44  CA        13.5440  -21.2530  -22.4390 C.3   234  THR234      0.1994
     45  C         13.0400  -19.9080  -21.9310 C.2   234  THR234      0.2619
     46  O         11.8490  -19.5730  -22.0140 O.2   234  THR234     -0.2717
     47  CB        13.5060  -21.1860  -23.9630 C.3   234  THR234      0.1784
     48  OG1       12.1170  -21.1490  -24.3370 O.3   234  THR234     -0.2211
     49  CG2       14.2290  -22.3480  -24.6360 C.3   234  THR234      0.0376
     50  N         13.9730  -19.1210  -21.4240 N.am  235  THR235     -0.1938
     51  CA        13.7440  -17.7590  -20.9860 C.3   235  THR235      0.2028
     52  C         15.0170  -16.9940  -21.3520 C.2   235  THR235      0.2642
     53  O         15.6460  -17.2920  -22.3690 O.2   235  THR235     -0.2714
     54  CB        13.3210  -17.7360  -19.5010 C.3   235  THR235      0.1808
     55  OG1       13.0240  -16.4220  -19.1370 O.3   235  THR235     -0.2208
     56  CG2       14.3730  -18.2720  -18.5760 C.3   235  THR235      0.0379
     57  N         15.3720  -16.0100  -20.5560 N.am  236  GLY236     -0.1954
     58  CA        16.5740  -15.2250  -20.7880 C.3   236  GLY236      0.1869
     59  C         17.0180  -14.4710  -19.5570 C.2   236  GLY236      0.2309
     60  O         16.2940  -14.4350  -18.5540 O.2   236  GLY236     -0.2863
     61  N         17.8970   -3.3230  -27.3680 N.3   256  LEU256     -0.1245
     62  CA        17.5210   -3.7060  -28.7350 C.3   256  LEU256      0.1561
     63  C         18.4560   -3.0680  -29.7710 C.2   256  LEU256      0.2260
     64  O         18.8320   -3.7370  -30.7240 O.2   256  LEU256     -0.2867
     65  CB        16.0510   -3.3750  -29.0290 C.3   256  LEU256      0.0270
     66  CG        15.0180   -4.2060  -28.2320 C.3   256  LEU256      0.0019
     67  CD1       13.6080   -3.6010  -28.3570 C.3   256  LEU256      0.0001
     68  CD2       15.0640   -5.6790  -28.6280 C.3   256  LEU256      0.0001
     69  N         21.7810   -5.0740  -29.7460 N.3   259  VAL259     -0.1245
     70  CA        21.5860   -6.3360  -30.4820 C.3   259  VAL259      0.1561
     71  C         21.6640   -6.0250  -31.9810 C.2   259  VAL259      0.2260
     72  O         22.4480   -6.6470  -32.7100 O.2   259  VAL259     -0.2867
     73  CB        20.2430   -7.0390  -30.1380 C.3   259  VAL259      0.0252
     74  CG1       19.9930   -8.2050  -31.1010 C.3   259  VAL259      0.0019
     75  CG2       20.2360   -7.5390  -28.6920 C.3   259  VAL259      0.0019
     76  N         26.1500   -6.4290  -29.0960 N.3   264  MET264     -0.1245
     77  CA        25.8850   -7.6210  -28.2880 C.3   264  MET264      0.1570
     78  C         26.7020   -8.8210  -28.7610 C.2   264  MET264      0.2261
     79  O         27.2740   -9.5390  -27.9280 O.2   264  MET264     -0.2867
     80  CB        24.3840   -7.9640  -28.2700 C.3   264  MET264      0.0387
     81  CG        23.6440   -7.4320  -27.0470 C.3   264  MET264      0.0595
     82  SD        24.2800   -7.9530  -25.4220 S.3   264  MET264     -0.1393
     83  CE        24.3050   -9.6730  -25.6590 C.3   264  MET264      0.0692
@<TRIPOS>BOND
     1    72    71    2
     2    71    70    1
     3    74    73    1
     4    64    63    2
     5    70    73    1
     6    70    69    1
     7    73    75    1
     8    63    62    1
     9    76    77    1
    10    65    62    1
    11    65    66    1
    12    78    77    1
    13    78    79    2
    14    62    61    1
    15    68    66    1
    16    67    66    1
    17    77    80    1
    18    80    81    1
    19    81    82    1
    20    41    40   ar
    21    42    40   ar
    22    40    39    1
    23    83    82    1
    24    38    39    1
    25    38    35    1
    26    19    18    2
    27    12    11    2
    28    49    47    1
    29    48    47    1
    30    14    15    1
    31    14    13    1
    32    34    35    1
    33    34    29   am
    34    47    44    1
    35    35    36    1
    36    18    17    1
    37    18    27   am
    38    15     9    1
    39    17    16    1
    40    17    20    1
    41    11    16   am
    42    11    10    1
    43    28    29    1
    44    28    27    1
    45    28    31    1
    46    29    30    2
    47    33    31    1
    48    13    10    1
    49     9    10    1
    50    20    21    1
    51    36    37    2
    52    44    43    1
    53    44    45    1
    54    31    32    1
    55    53    52    2
    56    46    45    2
    57    45    50   am
    58    50    51    1
    59    21    22   ar
    60    21    23   ar
    61    52    51    1
    62    52    57   am
    63    22    24   ar
    64    51    54    1
    65    58    57    1
    66    58    59    1
    67    23    25   ar
    68    24    26   ar
    69    59    60    2
    70    54    55    1
    71    54    56    1
    72     8     6    1
    73    25    26   ar
    74     6     5    1
    75     7     5    1
    76     5     2    1
    77     4     3    2
    78     2     1    1
    79     2     3    1
