@<TRIPOS>MOLECULE
tmp/5h8sB01.pdb
 97 93 0 0 0
SMALL
GASTEIGER

@<TRIPOS>ATOM
      1  N         33.3740    2.6160   73.0350 N.3    92  ILE92      -0.1245
      2  CA        34.4240    1.6470   73.3180 C.3    92  ILE92       0.1561
      3  C         34.2120    0.3800   72.4810 C.2    92  ILE92       0.2260
      4  O         33.2030   -0.3060   72.6330 O.2    92  ILE92      -0.2867
      5  CB        34.4520    1.2800   74.8230 C.3    92  ILE92       0.0252
      6  CG1       34.8140    2.5020   75.6830 C.3    92  ILE92       0.0019
      7  CG2       35.4550    0.1500   75.0670 C.3    92  ILE92       0.0019
      8  CD1       34.3950    2.3870   77.1690 C.3    92  ILE92       0.0001
      9  N         37.4140    3.7800   81.7200 N.3   104  LYS104     -0.1231
     10  CA        36.1490    3.1370   82.0500 C.3   104  LYS104      0.1678
     11  C         35.0210    3.9820   81.4760 C.2   104  LYS104      0.2434
     12  O         35.1780    5.1970   81.2830 O.2   104  LYS104     -0.2733
     13  CB        36.0150    2.9660   83.5620 C.3   104  LYS104      0.0284
     14  CG        37.0020    1.9190   84.1090 C.3   104  LYS104      0.0035
     15  CD        36.6670    0.5430   83.5750 C.3   104  LYS104      0.0206
     16  CE        37.4650   -0.5360   84.3140 C.3   104  LYS104      0.1093
     17  NZ        38.9220   -0.4310   84.0450 N.3   104  LYS104     -0.1314
     18  N         33.8920    3.3530   81.1680 N.am  105  PRO105     -0.2718
     19  CA        32.8300    4.0970   80.4770 C.3   105  PRO105      0.1535
     20  C         32.1950    5.1790   81.3330 C.2   105  PRO105      0.2599
     21  O         32.0040    4.9860   82.5450 O.2   105  PRO105     -0.2715
     22  CB        31.8030    3.0110   80.1370 C.3   105  PRO105      0.0310
     23  CG        32.1450    1.8670   81.0440 C.3   105  PRO105      0.0237
     24  CD        33.6110    1.9060   81.2250 C.3   105  PRO105      0.0939
     25  N         31.8520    6.3060   80.7160 N.am  106  PHE106     -0.1960
     26  CA        31.1570    7.3390   81.4700 C.3   106  PHE106      0.1771
     27  C         29.6550    7.3610   81.1900 C.2   106  PHE106      0.2619
     28  O         28.9090    8.0130   81.9100 O.2   106  PHE106     -0.2715
     29  CB        31.7750    8.7280   81.2030 C.3   106  PHE106      0.0574
     30  CG        31.7040    9.1900   79.7630 C.ar  106  PHE106     -0.0200
     31  CD1       30.5540    9.7890   79.2660 C.ar  106  PHE106     -0.0042
     32  CD2       32.7990    9.0620   78.9230 C.ar  106  PHE106     -0.0042
     33  CE1       30.4930   10.2330   77.9620 C.ar  106  PHE106     -0.0003
     34  CE2       32.7470    9.5080   77.6140 C.ar  106  PHE106     -0.0003
     35  CZ        31.5940   10.0860   77.1300 C.ar  106  PHE106     -0.0000
     36  N         29.2160    6.6490   80.1570 N.am  107  MET107     -0.1963
     37  CA        27.7950    6.5760   79.8060 C.3   107  MET107      0.1736
     38  C         27.5330    5.2550   79.0940 C.2   107  MET107      0.2617
     39  O         28.3360    4.8110   78.2620 O.2   107  MET107     -0.2715
     40  CB        27.4000    7.7660   78.9160 C.3   107  MET107      0.0427
     41  CG        25.9370    7.8300   78.5110 C.3   107  MET107      0.0599
     42  SD        25.5910    9.3950   77.6630 S.3   107  MET107     -0.1393
     43  CE        25.6580   10.5350   79.0040 C.3   107  MET107      0.0692
     44  N         26.4230    4.6130   79.4340 N.am  108  SER108     -0.1950
     45  CA        26.0230    3.3970   78.7470 C.3   108  SER108      0.1924
     46  C         25.0910    3.7010   77.5820 C.2   108  SER108      0.2314
     47  O         24.3650    4.7030   77.5860 O.2   108  SER108     -0.2863
     48  CB        25.3320    2.4260   79.7140 C.3   108  SER108      0.2116
     49  OG        24.2030    3.0510   80.2940 O.3   108  SER108     -0.2180
     50  N         24.7710   -3.7890   74.1730 N.3   217  SER217     -0.1202
     51  CA        25.0310   -3.0520   75.4050 C.3   217  SER217      0.2020
     52  C         26.5020   -2.6930   75.5190 C.2   217  SER217      0.2619
     53  O         27.3700   -3.5640   75.5330 O.2   217  SER217     -0.2717
     54  CB        24.5970   -3.8640   76.6250 C.3   217  SER217      0.2103
     55  OG        24.8010   -3.1110   77.8050 O.3   217  SER217     -0.2182
     56  N         26.7780   -1.4010   75.5960 N.am  218  LYS218     -0.1965
     57  CA        28.1650   -0.9470   75.6170 C.3   218  LYS218      0.1728
     58  C         28.2560    0.4360   76.2270 C.2   218  LYS218      0.2616
     59  O         27.3520    0.8540   76.9450 O.2   218  LYS218     -0.2715
     60  CB        28.7520   -0.9620   74.2020 C.3   218  LYS218      0.0311
     61  CG        27.8930   -0.2460   73.1950 C.3   218  LYS218      0.0038
     62  CD        28.2180   -0.7200   71.7980 C.3   218  LYS218      0.0206
     63  CE        27.4160    0.0640   70.7680 C.3   218  LYS218      0.1093
     64  NZ        27.5490   -0.6050   69.4440 N.3   218  LYS218     -0.1314
     65  N         29.3520    1.1420   75.9610 N.am  219  GLY219     -0.1955
     66  CA        29.5620    2.4280   76.6110 C.3   219  GLY219      0.1869
     67  C         30.4700    3.3680   75.8530 C.2   219  GLY219      0.2309
     68  O         31.1990    2.9460   74.9560 O.2   219  GLY219     -0.2863
     69  N         37.2310    9.4840   85.8210 N.3   238  VAL238     -0.1231
     70  CA        35.9050    9.0460   85.3780 C.3   238  VAL238      0.1692
     71  C         35.2090    8.2790   86.5070 C.2   238  VAL238      0.2591
     72  O         34.0240    8.4830   86.7730 O.2   238  VAL238     -0.2718
     73  CB        35.9880    8.1720   84.1060 C.3   238  VAL238      0.0266
     74  CG1       34.6460    7.4960   83.8310 C.3   238  VAL238      0.0020
     75  CG2       36.4130    9.0210   82.9010 C.3   238  VAL238      0.0020
     76  N         35.9550    7.4160   87.1990 N.am  239  LEU239     -0.1980
     77  CA        35.3570    6.6330   88.2750 C.3   239  LEU239      0.1596
     78  C         34.9540    7.5560   89.4290 C.2   239  LEU239      0.2287
     79  O         33.9280    7.3510   90.0540 O.2   239  LEU239     -0.2864
     80  CB        36.3180    5.5430   88.7610 C.3   239  LEU239      0.0297
     81  CG        36.5620    4.4400   87.7260 C.3   239  LEU239      0.0022
     82  CD1       37.4720    3.3810   88.3210 C.3   239  LEU239      0.0001
     83  CD2       35.2340    3.8150   87.2920 C.3   239  LEU239      0.0001
     84  N         31.7750    9.2780   88.4200 N.3   242  SER242     -0.1217
     85  CA        30.6800    8.3360   88.5040 C.3   242  SER242      0.1889
     86  C         30.2090    8.2140   89.9530 C.2   242  SER242      0.2288
     87  O         29.0120    8.3210   90.2410 O.2   242  SER242     -0.2866
     88  CB        31.1120    6.9700   87.9580 C.3   242  SER242      0.2089
     89  OG        30.1080    5.9980   88.1950 O.3   242  SER242     -0.2183
     90  N         28.1460   12.2780   86.8400 N.3   247  LEU247     -0.1245
     91  CA        27.7020   11.8130   85.5280 C.3   247  LEU247      0.1561
     92  C         26.1740   11.7510   85.4360 C.2   247  LEU247      0.2260
     93  O         25.5980   12.0870   84.4020 O.2   247  LEU247     -0.2867
     94  CB        28.3120   10.4470   85.2120 C.3   247  LEU247      0.0270
     95  CG        29.8420   10.4220   85.2330 C.3   247  LEU247      0.0019
     96  CD1       30.3460    8.9860   84.9520 C.3   247  LEU247      0.0001
     97  CD2       30.4160   11.4130   84.2230 C.3   247  LEU247      0.0001
@<TRIPOS>BOND
     1    64    63    1
     2    63    62    1
     3    62    61    1
     4     3     4    2
     5     3     2    1
     6     1     2    1
     7    61    60    1
     8     2     5    1
     9    50    51    1
    10    60    57    1
    11     5     7    1
    12     5     6    1
    13    68    67    2
    14    51    52    1
    15    51    54    1
    16    52    53    2
    17    52    56   am
    18    56    57    1
    19    57    58    1
    20     6     8    1
    21    67    66    1
    22    65    58   am
    23    65    66    1
    24    58    59    2
    25    54    55    1
    26    35    34   ar
    27    35    33   ar
    28    46    47    2
    29    46    45    1
    30    34    32   ar
    31    42    41    1
    32    42    43    1
    33    33    31   ar
    34    39    38    2
    35    41    40    1
    36    45    44    1
    37    45    48    1
    38    40    37    1
    39    32    30   ar
    40    38    44   am
    41    38    37    1
    42    31    30   ar
    43    48    49    1
    44    30    29    1
    45    37    36    1
    46    22    19    1
    47    22    23    1
    48    36    27   am
    49    19    18    1
    50    19    20    1
    51    25    20   am
    52    25    26    1
    53    23    24    1
    54    18    24    1
    55    18    11   am
    56    27    26    1
    57    27    28    2
    58    29    26    1
    59    12    11    2
    60    20    21    2
    61    11    10    1
    62     9    10    1
    63    10    13    1
    64    75    73    1
    65    13    14    1
    66    15    14    1
    67    15    16    1
    68    74    73    1
    69    17    16    1
    70    73    70    1
    71    97    95    1
    72    93    92    2
    73    96    95    1
    74    94    95    1
    75    94    91    1
    76    70    69    1
    77    70    71    1
    78    92    91    1
    79    91    90    1
    80    71    72    2
    81    71    76   am
    82    76    77    1
    83    83    81    1
    84    81    82    1
    85    81    80    1
    86    88    89    1
    87    88    85    1
    88    77    80    1
    89    77    78    1
    90    84    85    1
    91    85    86    1
    92    78    79    2
    93    86    87    2
