@<TRIPOS>MOLECULE
tmp/5h8wA00.pdb
 232 226 0 0 0
SMALL
GASTEIGER

@<TRIPOS>ATOM
      1  N         88.4120   65.5550    7.1020 N.3   257  GLY257     -0.1225
      2  CA        87.2490   64.8470    6.5870 C.3   257  GLY257      0.1811
      3  C         86.6230   63.8580    7.5600 C.2   257  GLY257      0.2280
      4  O         86.7920   63.9590    8.7780 O.2   257  GLY257     -0.2866
      5  N         82.2070   67.9610    6.3680 N.3   335  GLU335     -0.1245
      6  CA        81.8910   68.4190    5.0060 C.3   335  GLU335      0.1567
      7  C         80.4200   68.8080    4.8670 C.2   335  GLU335      0.2260
      8  O         79.5810   68.3280    5.6290 O.2   335  GLU335     -0.2867
      9  CB        82.2520   67.3400    3.9800 C.3   335  GLU335      0.0388
     10  CG        83.7520   67.0400    3.9260 C.3   335  GLU335      0.1160
     11  CD        84.0920   65.7390    3.2240 C.2   335  GLU335      0.3649
     12  OE1       83.1950   65.0690    2.6670 O.co2 335  GLU335     -0.2457
     13  OE2       85.2900   65.3790    3.2090 O.co2 335  GLU335     -0.2457
     14  N         99.7160   57.8950  -10.5580 N.3   404  SER404     -0.1202
     15  CA        99.0120   58.8060   -9.6640 C.3   404  SER404      0.2020
     16  C         99.0590   58.4040   -8.1720 C.2   404  SER404      0.2619
     17  O         98.4390   59.0740   -7.3510 O.2   404  SER404     -0.2717
     18  CB        97.5670   59.0120  -10.1300 C.3   404  SER404      0.2103
     19  OG        96.7810   57.8290  -10.0710 O.3   404  SER404     -0.2182
     20  N         99.7970   57.3500   -7.8040 N.am  405  LYS405     -0.1965
     21  CA        99.8270   56.8950   -6.3990 C.3   405  LYS405      0.1728
     22  C        100.1440   58.0650   -5.4640 C.2   405  LYS405      0.2616
     23  O        101.1450   58.7540   -5.6500 O.2   405  LYS405     -0.2715
     24  CB       100.8340   55.7620   -6.1790 C.3   405  LYS405      0.0311
     25  CG       100.7270   55.1270   -4.7890 C.3   405  LYS405      0.0038
     26  CD       101.6890   53.9690   -4.5790 C.3   405  LYS405      0.0206
     27  CE       101.2190   53.0630   -3.4440 C.3   405  LYS405      0.1093
     28  NZ       102.3680   52.4900   -2.6950 N.3   405  LYS405     -0.1314
     29  N         99.2800   58.2660   -4.4690 N.am  406  TYR406     -0.1960
     30  CA        99.3030   59.4560   -3.6110 C.3   406  TYR406      0.1771
     31  C        100.6650   59.7150   -2.9790 C.2   406  TYR406      0.2619
     32  O        101.2660   60.7540   -3.2180 O.2   406  TYR406     -0.2715
     33  CB        98.2400   59.3500   -2.5080 C.3   406  TYR406      0.0574
     34  CG        98.2260   60.5160   -1.5380 C.ar  406  TYR406     -0.0198
     35  CD1       97.5330   61.6920   -1.8340 C.ar  406  TYR406     -0.0009
     36  CD2       98.9170   60.4470   -0.3250 C.ar  406  TYR406     -0.0009
     37  CE1       97.5250   62.7610   -0.9450 C.ar  406  TYR406      0.0417
     38  CE2       98.9160   61.5120    0.5710 C.ar  406  TYR406      0.0417
     39  CZ        98.2210   62.6640    0.2560 C.ar  406  TYR406      0.1957
     40  OH        98.2220   63.7100    1.1460 O.3   406  TYR406     -0.2866
     41  N        101.1540   58.7600   -2.1960 N.am  407  ASP407     -0.1971
     42  CA       102.3770   58.9780   -1.4100 C.3   407  ASP407      0.1709
     43  C        103.7000   59.0180   -2.2230 C.2   407  ASP407      0.2293
     44  O        104.7590   59.2370   -1.6400 O.2   407  ASP407     -0.2864
     45  CB       102.4590   58.0390   -0.1700 C.3   407  ASP407      0.1436
     46  CG       102.2390   56.5550   -0.4930 C.2   407  ASP407      0.3671
     47  OD1      102.5560   56.1130   -1.6220 O.co2 407  ASP407     -0.2456
     48  OD2      101.7500   55.8250    0.4080 O.co2 407  ASP407     -0.2456
     49  N         91.7830   60.9850  -12.3050 N.3   437  PRO437     -0.2102
     50  CA        91.0950   60.4930  -11.1130 C.3   437  PRO437      0.1504
     51  C         90.3980   61.5990  -10.3330 C.2   437  PRO437      0.2576
     52  O         89.4150   61.3200   -9.6690 O.2   437  PRO437     -0.2718
     53  CB        92.2290   59.8940  -10.2550 C.3   437  PRO437      0.0282
     54  CG        93.4160   59.7740  -11.1630 C.3   437  PRO437      0.0208
     55  CD        93.2460   60.9020  -12.1460 C.3   437  PRO437      0.0893
     56  N         90.9190   62.8280  -10.4210 N.am  438  SER438     -0.1938
     57  CA        90.4120   63.9650   -9.6680 C.3   438  SER438      0.2055
     58  C         90.4910   65.2690  -10.4720 C.2   438  SER438      0.2643
     59  O         91.2770   65.3750  -11.4030 O.2   438  SER438     -0.2714
     60  CB        91.2510   64.1210   -8.3970 C.3   438  SER438      0.2130
     61  OG        92.5530   64.5840   -8.7290 O.3   438  SER438     -0.2179
     62  N         89.6780   66.2540  -10.0990 N.am  439  TYR439     -0.1959
     63  CA        89.8380   67.6280  -10.6010 C.3   439  TYR439      0.1771
     64  C         91.2180   68.2080  -10.2000 C.2   439  TYR439      0.2620
     65  O         91.8290   68.9470  -10.9640 O.2   439  TYR439     -0.2715
     66  CB        88.7100   68.5380  -10.0930 C.3   439  TYR439      0.0574
     67  CG        87.3290   68.2170  -10.6590 C.ar  439  TYR439     -0.0198
     68  CD1       87.0370   68.4310  -11.9970 C.ar  439  TYR439     -0.0009
     69  CD2       86.3140   67.7080   -9.8510 C.ar  439  TYR439     -0.0009
     70  CE1       85.7920   68.1360  -12.5280 C.ar  439  TYR439      0.0417
     71  CE2       85.0500   67.4230  -10.3630 C.ar  439  TYR439      0.0417
     72  CZ        84.7940   67.6410  -11.7020 C.ar  439  TYR439      0.1957
     73  OH        83.5470   67.3640  -12.2210 O.3   439  TYR439     -0.2866
     74  N         91.6950   67.8500   -9.0080 N.am  440  SER440     -0.1950
     75  CA        93.0260   68.2460   -8.5080 C.3   440  SER440      0.1924
     76  C         94.1510   67.8140   -9.4470 C.2   440  SER440      0.2314
     77  O         94.9310   68.6530   -9.9110 O.2   440  SER440     -0.2863
     78  CB        93.2530   67.6540   -7.1080 C.3   440  SER440      0.2116
     79  OG        94.5540   67.9180   -6.6270 O.3   440  SER440     -0.2180
     80  N         96.4050   70.3290  -11.9280 N.3   444  ARG444     -0.1245
     81  CA        97.8600   70.3320  -11.7800 C.3   444  ARG444      0.1563
     82  C         98.5870   69.8440  -13.0320 C.2   444  ARG444      0.2260
     83  O         99.6570   70.3620  -13.3660 O.2   444  ARG444     -0.2867
     84  CB        98.2820   69.5260  -10.5540 C.3   444  ARG444      0.0307
     85  CG        97.9640   70.2450   -9.2570 C.3   444  ARG444      0.0489
     86  CD        98.4580   69.4450   -8.0730 C.3   444  ARG444      0.2205
     87  NE        97.6420   68.2540   -7.8530 N.pl3 444  ARG444     -0.0865
     88  CZ        97.9520   67.2500   -7.0290 C.cat 444  ARG444      0.5346
     89  NH1       99.0790   67.2650   -6.3120 N.pl3 444  ARG444      0.1354
     90  NH2       97.1200   66.2130   -6.9190 N.pl3 444  ARG444      0.1354
     91  N         84.6670   71.2250  -12.6620 N.3   458  ARG458     -0.1245
     92  CA        83.7840   70.9720  -11.5100 C.3   458  ARG458      0.1563
     93  C         82.6020   71.9420  -11.5200 C.2   458  ARG458      0.2260
     94  O         82.7880   73.1480  -11.6840 O.2   458  ARG458     -0.2867
     95  CB        84.5610   71.0630  -10.1780 C.3   458  ARG458      0.0307
     96  CG        83.7300   70.8450   -8.8970 C.3   458  ARG458      0.0489
     97  CD        84.2740   69.7140   -8.0200 C.3   458  ARG458      0.2205
     98  NE        84.0550   69.8860   -6.5750 N.pl3 458  ARG458     -0.0865
     99  CZ        84.0290   68.8920   -5.6700 C.cat 458  ARG458      0.5346
    100  NH1       84.1670   67.6080   -6.0190 N.pl3 458  ARG458      0.1354
    101  NH2       83.8370   69.1790   -4.3840 N.pl3 458  ARG458      0.1354
    102  N         87.0150   64.0380  -15.8510 N.3   482  VAL482     -0.1245
    103  CA        87.3020   63.4310  -14.5610 C.3   482  VAL482      0.1561
    104  C         86.5270   62.1240  -14.4270 C.2   482  VAL482      0.2260
    105  O         85.4110   62.0020  -14.9290 O.2   482  VAL482     -0.2867
    106  CB        86.9760   64.4060  -13.3930 C.3   482  VAL482      0.0252
    107  CG1       85.4730   64.4710  -13.1110 C.3   482  VAL482      0.0019
    108  CG2       87.7370   64.0210  -12.1310 C.3   482  VAL482      0.0019
    109  N         84.6620   60.5810  -12.2050 N.3   484  GLY484     -0.1225
    110  CA        83.2820   60.5020  -11.7020 C.3   484  GLY484      0.1811
    111  C         82.2650   61.3240  -12.4810 C.2   484  GLY484      0.2280
    112  O         81.0840   61.3840  -12.0920 O.2   484  GLY484     -0.2866
    113  N         95.3600   56.0250  -12.2090 N.3   506  LEU506     -0.1245
    114  CA        94.2520   55.1140  -11.9850 C.3   506  LEU506      0.1561
    115  C         93.2810   55.7020  -10.9840 C.2   506  LEU506      0.2260
    116  O         93.7050   56.2500   -9.9760 O.2   506  LEU506     -0.2867
    117  CB        94.7720   53.7710  -11.4810 C.3   506  LEU506      0.0270
    118  CG        95.4340   52.9640  -12.5890 C.3   506  LEU506      0.0019
    119  CD1       96.2380   51.8230  -11.9980 C.3   506  LEU506      0.0001
    120  CD2       94.4000   52.4470  -13.5860 C.3   506  LEU506      0.0001
    121  N         91.7380   54.9350   -8.3020 N.3   508  PHE508     -0.1228
    122  CA        91.5560   54.2260   -7.0330 C.3   508  PHE508      0.1721
    123  C         90.6850   55.1040   -6.1020 C.2   508  PHE508      0.2437
    124  O         90.8410   56.3330   -6.0910 O.2   508  PHE508     -0.2733
    125  CB        92.9060   53.9550   -6.3370 C.3   508  PHE508      0.0547
    126  CG        93.7050   52.8150   -6.9210 C.ar  508  PHE508     -0.0202
    127  CD1       94.6250   53.0290   -7.9330 C.ar  508  PHE508     -0.0042
    128  CD2       93.5670   51.5300   -6.4240 C.ar  508  PHE508     -0.0042
    129  CE1       95.3770   51.9710   -8.4580 C.ar  508  PHE508     -0.0003
    130  CE2       94.3190   50.4690   -6.9370 C.ar  508  PHE508     -0.0003
    131  CZ        95.2290   50.6960   -7.9550 C.ar  508  PHE508     -0.0000
    132  N         89.7890   54.4840   -5.3020 N.am  509  PRO509     -0.2718
    133  CA        88.9680   55.2830   -4.3840 C.3   509  PRO509      0.1535
    134  C         89.7690   55.8520   -3.2100 C.2   509  PRO509      0.2598
    135  O         90.9050   55.4510   -2.9820 O.2   509  PRO509     -0.2715
    136  CB        87.8990   54.3000   -3.8920 C.3   509  PRO509      0.0310
    137  CG        88.2470   52.9630   -4.4430 C.3   509  PRO509      0.0237
    138  CD        89.5900   53.0410   -5.0920 C.3   509  PRO509      0.0939
    139  N         89.1790   56.8090   -2.4980 N.am  510  ARG510     -0.1964
    140  CA        89.8160   57.4070   -1.3190 C.3   510  ARG510      0.1714
    141  C         89.7010   56.4690   -0.1460 C.2   510  ARG510      0.2458
    142  O         88.7190   55.7450   -0.0440 O.2   510  ARG510     -0.2730
    143  CB        89.1640   58.7300   -0.9520 C.3   510  ARG510      0.0347
    144  CG        89.5700   59.8330   -1.8940 C.3   510  ARG510      0.0492
    145  CD        88.6080   60.9980   -1.8780 C.3   510  ARG510      0.2205
    146  NE        88.3490   61.5200   -0.5390 N.pl3 510  ARG510     -0.0865
    147  CZ        87.2250   61.3610    0.1730 C.cat 510  ARG510      0.5346
    148  NH1       86.1780   60.6580   -0.2860 N.pl3 510  ARG510      0.1354
    149  NH2       87.1490   61.9190    1.3850 N.pl3 510  ARG510      0.1354
    150  N         90.7020   56.4670    0.7470 N.am  511  PRO511     -0.2727
    151  CA        90.5440   55.7310    1.9900 C.3   511  PRO511      0.1402
    152  C         89.7890   56.5780    3.0300 C.2   511  PRO511      0.2269
    153  O         90.3260   56.8450    4.1030 O.2   511  PRO511     -0.2865
    154  CB        91.9970   55.4740    2.4100 C.3   511  PRO511      0.0296
    155  CG        92.7200   56.6880    1.9310 C.3   511  PRO511      0.0237
    156  CD        92.0600   57.0310    0.6200 C.3   511  PRO511      0.0939
    157  N         84.8770   54.0520    2.9340 N.3   515  ASN515     -0.1225
    158  CA        85.6850   53.0360    2.2570 C.3   515  ASN515      0.1785
    159  C         86.4910   52.1770    3.2230 C.2   515  ASN515      0.2597
    160  O         86.5770   50.9810    3.0140 O.2   515  ASN515     -0.2718
    161  CB        86.5930   53.6490    1.1880 C.3   515  ASN515      0.1169
    162  CG        85.8440   53.9860   -0.0850 C.2   515  ASN515      0.2627
    163  OD1       84.9840   53.2250   -0.5230 O.2   515  ASN515     -0.2716
    164  ND2       86.1550   55.1340   -0.6820 N.am  515  ASN515     -0.0877
    165  N         87.0480   52.7750    4.2830 N.am  516  ARG516     -0.1979
    166  CA        87.7200   51.9990    5.3350 C.3   516  ARG516      0.1597
    167  C         86.7410   51.0650    6.0730 C.2   516  ARG516      0.2287
    168  O         87.1520   50.0140    6.5570 O.2   516  ARG516     -0.2864
    169  CB        88.4700   52.9040    6.3340 C.3   516  ARG516      0.0334
    170  CG        89.6520   53.6690    5.7220 C.3   516  ARG516      0.0492
    171  CD        90.5310   54.3690    6.7580 C.3   516  ARG516      0.2205
    172  NE        89.7420   55.1090    7.7570 N.pl3 516  ARG516     -0.0865
    173  CZ        89.3910   56.3960    7.6880 C.cat 516  ARG516      0.5346
    174  NH1       89.7520   57.1700    6.6630 N.pl3 516  ARG516      0.1354
    175  NH2       88.6640   56.9220    8.6720 N.pl3 516  ARG516      0.1354
    176  N         86.0540   48.1000    3.5670 N.3   519  PHE519     -0.1227
    177  CA        87.2200   47.2250    3.6190 C.3   519  PHE519      0.1736
    178  C         87.0910   46.2640    4.7910 C.2   519  PHE519      0.2595
    179  O         87.2140   45.0470    4.6200 O.2   519  PHE519     -0.2718
    180  CB        88.5020   48.0640    3.7350 C.3   519  PHE519      0.0547
    181  CG        89.7790   47.2740    3.6090 C.ar  519  PHE519     -0.0202
    182  CD1       90.2580   46.5010    4.6660 C.ar  519  PHE519     -0.0042
    183  CD2       90.5250   47.3260    2.4420 C.ar  519  PHE519     -0.0042
    184  CE1       91.4480   45.7830    4.5440 C.ar  519  PHE519     -0.0003
    185  CE2       91.7180   46.6150    2.3190 C.ar  519  PHE519     -0.0003
    186  CZ        92.1800   45.8480    3.3710 C.ar  519  PHE519     -0.0000
    187  N         86.8240   46.8010    5.9770 N.am  520  ASP520     -0.1974
    188  CA        86.6710   45.9550    7.1550 C.3   520  ASP520      0.1709
    189  C         85.4610   45.0140    7.0290 C.2   520  ASP520      0.2293
    190  O         85.5490   43.8470    7.4000 O.2   520  ASP520     -0.2864
    191  CB        86.6270   46.7920    8.4430 C.3   520  ASP520      0.1436
    192  CG        87.9940   47.4460    8.7830 C.2   520  ASP520      0.3671
    193  OD1       88.9890   47.2710    8.0380 O.co2 520  ASP520     -0.2456
    194  OD2       88.0800   48.1480    9.8170 O.co2 520  ASP520     -0.2456
    195  N         90.5840   44.2420    0.3060 N.3   530  TRP530     -0.1241
    196  CA        91.3320   44.8790   -0.7840 C.3   530  TRP530      0.1605
    197  C         90.6430   44.6870   -2.1420 C.2   530  TRP530      0.2264
    198  O         90.4480   45.6500   -2.8840 O.2   530  TRP530     -0.2867
    199  CB        92.7930   44.3760   -0.8210 C.3   530  TRP530      0.0550
    200  CG        93.5870   44.8630   -2.0030 C.ar  530  TRP530      0.0003
    201  CD1       93.9510   44.1290   -3.0980 C.ar  530  TRP530      0.0946
    202  CD2       94.0920   46.1890   -2.2240 C.ar  530  TRP530      0.0152
    203  NE1       94.6490   44.9160   -3.9850 N.ar  530  TRP530     -0.2442
    204  CE2       94.7470   46.1840   -3.4750 C.ar  530  TRP530      0.0810
    205  CE3       94.0560   47.3770   -1.4860 C.ar  530  TRP530      0.0012
    206  CZ2       95.3670   47.3150   -3.9990 C.ar  530  TRP530      0.0191
    207  CZ3       94.6730   48.4990   -2.0080 C.ar  530  TRP530      0.0001
    208  CH2       95.3170   48.4620   -3.2540 C.ar  530  TRP530      0.0015
    209  N         86.6470   46.3660   -1.9430 N.3   533  SER533     -0.1202
    210  CA        86.5180   47.8190   -1.7420 C.3   533  SER533      0.2020
    211  C         87.4630   48.6450   -2.6200 C.2   533  SER533      0.2618
    212  O         87.1880   49.8130   -2.8680 O.2   533  SER533     -0.2717
    213  CB        86.7190   48.1930   -0.2700 C.3   533  SER533      0.2103
    214  OG        88.0800   48.1120    0.1140 O.3   533  SER533     -0.2182
    215  N         88.5630   48.0580   -3.0920 N.am  534  VAL534     -0.1979
    216  CA        89.5560   48.8190   -3.8580 C.3   534  VAL534      0.1595
    217  C         89.7140   48.3490   -5.3040 C.2   534  VAL534      0.2287
    218  O         89.5370   49.1550   -6.2420 O.2   534  VAL534     -0.2864
    219  CB        90.9200   48.8330   -3.1600 C.3   534  VAL534      0.0276
    220  CG1       91.8260   49.8960   -3.7760 C.3   534  VAL534      0.0022
    221  CG2       90.7530   49.0540   -1.6530 C.3   534  VAL534      0.0022
    222  N        100.8160   50.7540  -11.7500 N.3   565  ARG565     -0.1245
    223  CA       100.0700   49.7210  -11.0540 C.3   565  ARG565      0.1563
    224  C         99.0200   49.0710  -11.9560 C.2   565  ARG565      0.2260
    225  O         98.2050   48.2830  -11.4850 O.2   565  ARG565     -0.2867
    226  CB        99.3930   50.3510   -9.8300 C.3   565  ARG565      0.0307
    227  CG       100.3220   51.1210   -8.8900 C.3   565  ARG565      0.0489
    228  CD        99.5260   51.9810   -7.9220 C.3   565  ARG565      0.2205
    229  NE        98.9500   53.1690   -8.5750 N.pl3 565  ARG565     -0.0865
    230  CZ        98.0190   53.9670   -8.0470 C.cat 565  ARG565      0.5346
    231  NH1       97.5290   53.7380   -6.8340 N.pl3 565  ARG565      0.1354
    232  NH2       97.5760   55.0240   -8.7350 N.pl3 565  ARG565      0.1354
@<TRIPOS>BOND
     1   102   103    1
     2   105   104    2
     3   103   104    1
     4   103   106    1
     5   120   118    1
     6   106   107    1
     7   106   108    1
     8    83    82    2
     9    82    81    1
    10    91    92    1
    11   118   119    1
    12   118   117    1
    13    70    68   ar
    14    70    72   ar
    15   111   112    2
    16   111   110    1
    17    49    55    1
    18    49    50    1
    19    73    72    1
    20   113   114    1
    21   109   110    1
    22    55    54    1
    23    68    67   ar
    24   114   117    1
    25   114   115    1
    26   224   225    2
    27   224   223    1
    28    80    81    1
    29    81    84    1
    30   222   223    1
    31    72    71   ar
    32    94    93    2
    33    93    92    1
    34    92    95    1
    35    59    58    2
    36    54    53    1
    37    50    51    1
    38    50    53    1
    39   223   226    1
    40   115   116    2
    41    65    64    2
    42    67    66    1
    43    67    69   ar
    44    63    64    1
    45    63    62    1
    46    63    66    1
    47    14    15    1
    48    84    85    1
    49    58    62   am
    50    58    57    1
    51    56    51   am
    52    56    57    1
    53    71    69   ar
    54    51    52    2
    55    64    74   am
    56    95    96    1
    57    18    19    1
    58    18    15    1
    59    77    76    2
    60   226   227    1
    61    57    60    1
    62    15    16    1
    63    76    75    1
    64    85    86    1
    65    74    75    1
    66    96    97    1
    67   227   228    1
    68   232   230    1
    69    61    60    1
    70   229   230    2
    71   229   228    1
    72    75    78    1
    73   129   131   ar
    74   129   127   ar
    75   121   122    1
    76    16    20   am
    77    16    17    2
    78    86    87    1
    79   230   231    1
    80    97    98    1
    81   131   130   ar
    82   127   126   ar
    83    87    88    2
    84    20    21    1
    85    78    79    1
    86   122   125    1
    87   122   123    1
    88    88    90    1
    89    88    89    1
    90   130   128   ar
    91   126   128   ar
    92   126   125    1
    93    98    99    2
    94    21    24    1
    95    21    22    1
    96   218   217    2
    97    24    25    1
    98   123   124    2
    99   123   132   am
   100   100    99    1
   101    99   101    1
   102    23    22    2
   103    22    29   am
   104   217   216    1
   105   132   138    1
   106   132   133    1
   107   138   137    1
   108    25    26    1
   109    26    27    1
   110    29    30    1
   111   137   136    1
   112   133   136    1
   113   133   134    1
   114   206   204   ar
   115   206   208   ar
   116   203   204   ar
   117   203   201   ar
   118   216   219    1
   119   216   215    1
   120   220   219    1
   121    30    31    1
   122    30    33    1
   123   204   202   ar
   124    27    28    1
   125   208   207   ar
   126    32    31    2
   127   134   135    2
   128   134   139   am
   129   219   221    1
   130   201   200   ar
   131   215   211   am
   132    31    41   am
   133   198   197    2
   134   212   211    2
   135   211   210    1
   136    33    34    1
   137   139   140    1
   138   202   200   ar
   139   202   205   ar
   140    43    44    2
   141    43    42    1
   142    41    42    1
   143   197   196    1
   144   207   205   ar
   145   200   199    1
   146   209   210    1
   147   144   145    1
   148   144   143    1
   149   145   146    1
   150    35    34   ar
   151    35    37   ar
   152   210   213    1
   153    47    46   ar
   154    34    36   ar
   155    42    45    1
   156   140   143    1
   157   140   141    1
   158    37    39   ar
   159   199   196    1
   160   196   195    1
   161   164   162   am
   162   146   147    2
   163   163   162    2
   164    46    45    1
   165    46    48   ar
   166    36    38   ar
   167   148   147    1
   168   213   214    1
   169   141   142    2
   170   141   150   am
   171   162   161    1
   172   147   149    1
   173    39    38   ar
   174    39    40    1
   175   156   150    1
   176   156   155    1
   177   150   151    1
   178   161   158    1
   179   155   154    1
   180   151   154    1
   181   151   152    1
   182   158   157    1
   183   158   159    1
   184   185   183   ar
   185   185   186   ar
   186   183   181   ar
   187    12    11   ar
   188   160   159    2
   189   152   153    2
   190    13    11   ar
   191   159   165   am
   192    11    10    1
   193   186   184   ar
   194   176   177    1
   195   181   180    1
   196   181   182   ar
   197   177   180    1
   198   177   178    1
   199    10     9    1
   200     9     6    1
   201   165   166    1
   202   184   182   ar
   203   179   178    2
   204   178   187   am
   205     7     6    1
   206     7     8    2
   207     6     5    1
   208   166   167    1
   209   166   169    1
   210   170   169    1
   211   170   171    1
   212   187   188    1
   213   167   168    2
   214     2     1    1
   215     2     3    1
   216   174   173    1
   217   171   172    1
   218   189   188    1
   219   189   190    2
   220   188   191    1
   221     3     4    2
   222   173   172    2
   223   173   175    1
   224   193   192   ar
   225   191   192    1
   226   192   194   ar
