@<TRIPOS>MOLECULE
tmp/5h8xA00.pdb
 162 161 0 0 0
SMALL
GASTEIGER

@<TRIPOS>ATOM
      1  N        -15.9970   -4.7940   25.2120 N.3    79  GLY79      -0.1210
      2  CA       -16.1180   -4.7380   23.7660 C.3    79  GLY79       0.1956
      3  C        -14.8220   -5.1350   23.0650 C.2    79  GLY79       0.2612
      4  O        -14.2730   -6.2040   23.3410 O.2    79  GLY79      -0.2717
      5  N        -14.3470   -4.2850   22.1530 N.am   80  ILE80      -0.1965
      6  CA       -13.0590   -4.4900   21.4900 C.3    80  ILE80       0.1727
      7  C        -11.9470   -4.3870   22.5240 C.2    80  ILE80       0.2616
      8  O        -11.8220   -3.3750   23.1970 O.2    80  ILE80      -0.2715
      9  CB       -12.8160   -3.4500   20.3730 C.3    80  ILE80       0.0290
     10  CG1      -13.9730   -3.4760   19.3730 C.3    80  ILE80       0.0022
     11  CG2      -11.4490   -3.6720   19.6820 C.3    80  ILE80       0.0023
     12  CD1      -14.1420   -4.8010   18.6920 C.3    80  ILE80       0.0001
     13  N        -11.1410   -5.4320   22.6690 N.am   81  LEU81      -0.1963
     14  CA       -10.0650   -5.3830   23.6540 C.3    81  LEU81       0.1728
     15  C         -8.7270   -4.9490   23.0510 C.2    81  LEU81       0.2616
     16  O         -7.8860   -4.3790   23.7390 O.2    81  LEU81      -0.2715
     17  CB        -9.8830   -6.7480   24.3110 C.3    81  LEU81       0.0311
     18  CG       -11.1650   -7.3550   24.8820 C.3    81  LEU81       0.0022
     19  CD1      -10.8320   -8.7200   25.4450 C.3    81  LEU81       0.0001
     20  CD2      -11.7740   -6.4370   25.9440 C.3    81  LEU81       0.0001
     21  N         -8.5480   -5.2360   21.7650 N.am   82  ALA82      -0.1963
     22  CA        -7.2730   -5.0670   21.0700 C.3    82  ALA82       0.1728
     23  C         -7.4940   -5.3220   19.5840 C.2    82  ALA82       0.2616
     24  O         -8.5370   -5.8360   19.1820 O.2    82  ALA82      -0.2715
     25  CB        -6.2120   -6.0150   21.6410 C.3    82  ALA82       0.0334
     26  N         -6.5290   -4.9480   18.7560 N.am   83  HIS83      -0.1959
     27  CA        -6.5440   -5.3580   17.3540 C.3    83  HIS83       0.1787
     28  C         -5.1330   -5.3650   16.8110 C.2    83  HIS83       0.2620
     29  O         -4.2210   -4.8240   17.4360 O.2    83  HIS83      -0.2715
     30  CB        -7.4820   -4.4740   16.4940 C.3    83  HIS83       0.0785
     31  CG        -7.1630   -3.0120   16.4980 C.ar   83  HIS83       0.0821
     32  ND1       -8.1530   -2.0530   16.4900 N.ar   83  HIS83      -0.2267
     33  CD2       -5.9870   -2.3420   16.4700 C.ar   83  HIS83       0.1154
     34  CE1       -7.6010   -0.8520   16.4830 C.ar   83  HIS83       0.1986
     35  NE2       -6.2870   -0.9960   16.4640 N.ar   83  HIS83      -0.2212
     36  N         -4.9550   -5.9860   15.6530 N.am   84  ALA84      -0.1977
     37  CA        -3.6380   -6.0540   15.0240 C.3    84  ALA84       0.1597
     38  C         -3.7420   -6.0510   13.5140 C.2    84  ALA84       0.2287
     39  O         -4.7790   -6.3820   12.9410 O.2    84  ALA84      -0.2864
     40  CB        -2.8720   -7.2910   15.4970 C.3    84  ALA84       0.0319
     41  N         -3.1430  -13.7010   27.0550 N.3   114  LEU114     -0.1231
     42  CA        -4.0350  -14.3740   26.1240 C.3   114  LEU114      0.1693
     43  C         -4.4800  -13.4550   25.0000 C.2   114  LEU114      0.2591
     44  O         -4.5150  -13.8830   23.8490 O.2   114  LEU114     -0.2718
     45  CB        -5.2550  -14.9390   26.8520 C.3   114  LEU114      0.0284
     46  CG        -4.9920  -16.0730   27.8430 C.3   114  LEU114      0.0019
     47  CD1       -6.2740  -16.4170   28.5910 C.3   114  LEU114      0.0001
     48  CD2       -4.3940  -17.2970   27.1490 C.3   114  LEU114      0.0001
     49  N         -4.7990  -12.2050   25.3100 N.am  115  VAL115     -0.1980
     50  CA        -5.2330  -11.3010   24.2530 C.3   115  VAL115      0.1595
     51  C         -4.0700  -11.0090   23.3030 C.2   115  VAL115      0.2287
     52  O         -4.2450  -11.0160   22.0840 O.2   115  VAL115     -0.2864
     53  CB        -5.8170  -10.0000   24.8280 C.3   115  VAL115      0.0276
     54  CG1       -6.0820   -8.9940   23.7210 C.3   115  VAL115      0.0022
     55  CG2       -7.1060  -10.3230   25.5730 C.3   115  VAL115      0.0022
     56  N         -3.5040  -13.8970   20.8860 N.3   118  HIS118     -0.1226
     57  CA        -4.4660  -13.8310   19.8020 C.3   118  HIS118      0.1752
     58  C         -4.0650  -12.7700   18.7640 C.2   118  HIS118      0.2595
     59  O         -4.0440  -13.0270   17.5630 O.2   118  HIS118     -0.2718
     60  CB        -5.8510  -13.5320   20.3920 C.3   118  HIS118      0.0759
     61  CG        -6.9220  -13.2740   19.3760 C.ar  118  HIS118      0.0818
     62  ND1       -7.8730  -14.2190   19.0450 N.ar  118  HIS118     -0.2268
     63  CD2       -7.2150  -12.1730   18.6430 C.ar  118  HIS118      0.1154
     64  CE1       -8.6940  -13.7110   18.1400 C.ar  118  HIS118      0.1986
     65  NE2       -8.3210  -12.4710   17.8830 N.ar  118  HIS118     -0.2212
     66  N         -3.7640  -11.5630   19.2250 N.am  119  GLU119     -0.1979
     67  CA        -3.4260  -10.4900   18.2990 C.3   119  GLU119      0.1602
     68  C         -2.1940  -10.8210   17.4770 C.2   119  GLU119      0.2287
     69  O         -2.1370  -10.5390   16.2710 O.2   119  GLU119     -0.2864
     70  CB        -3.2260   -9.1750   19.0580 C.3   119  GLU119      0.0415
     71  CG        -4.4930   -8.6840   19.7870 C.3   119  GLU119      0.1163
     72  CD        -5.7400   -8.6090   18.9120 C.2   119  GLU119      0.3649
     73  OE1       -5.6150   -8.4550   17.6740 O.co2 119  GLU119     -0.2457
     74  OE2       -6.8590   -8.6920   19.4880 O.co2 119  GLU119     -0.2457
     75  N         -2.8400  -12.6550   14.3610 N.3   122  HIS122     -0.1241
     76  CA        -3.1330  -11.7280   13.2640 C.3   122  HIS122      0.1621
     77  C         -1.8700  -11.0620   12.7060 C.2   122  HIS122      0.2264
     78  O         -1.6990  -10.9610   11.4870 O.2   122  HIS122     -0.2867
     79  CB        -4.0960  -10.6210   13.7100 C.3   122  HIS122      0.0745
     80  CG        -5.4740  -11.0940   14.0450 C.ar  122  HIS122      0.0817
     81  ND1       -6.1640  -12.0150   13.2800 N.ar  122  HIS122     -0.2268
     82  CD2       -6.2940  -10.7640   15.0690 C.ar  122  HIS122      0.1154
     83  CE1       -7.3550  -12.2180   13.8150 C.ar  122  HIS122      0.1986
     84  NE2       -7.4570  -11.4790   14.9050 N.ar  122  HIS122     -0.2212
     85  N         -9.4720  -15.3890   11.9750 N.3   128  HIS128     -0.1241
     86  CA       -10.1890  -16.0370   13.0560 C.3   128  HIS128      0.1621
     87  C        -10.5130  -17.4810   12.7240 C.2   128  HIS128      0.2264
     88  O        -10.6730  -17.8490   11.5590 O.2   128  HIS128     -0.2867
     89  CB       -11.4710  -15.2670   13.3920 C.3   128  HIS128      0.0745
     90  CG       -11.2140  -14.0020   14.1470 C.ar  128  HIS128      0.0817
     91  ND1      -11.9990  -12.8810   14.0170 N.ar  128  HIS128     -0.2268
     92  CD2      -10.2400  -13.6780   15.0310 C.ar  128  HIS128      0.1154
     93  CE1      -11.5290  -11.9220   14.7940 C.ar  128  HIS128      0.1986
     94  NE2      -10.4590  -12.3810   15.4220 N.ar  128  HIS128     -0.2212
     95  N         -9.7400  -22.7180   20.0250 N.3   134  ALA134     -0.1231
     96  CA        -8.5890  -22.0600   19.4120 C.3   134  ALA134      0.1694
     97  C         -8.3630  -20.6680   19.9850 C.2   134  ALA134      0.2591
     98  O         -9.3120  -19.9350   20.2700 O.2   134  ALA134     -0.2718
     99  CB        -8.7620  -21.9750   17.9080 C.3   134  ALA134      0.0304
    100  N         -7.1010  -20.2940   20.1340 N.am  135  LEU135     -0.1980
    101  CA        -6.7530  -18.9340   20.5110 C.3   135  LEU135      0.1596
    102  C         -7.3230  -17.8980   19.5480 C.2   135  LEU135      0.2287
    103  O         -7.6950  -16.7850   19.9440 O.2   135  LEU135     -0.2864
    104  CB        -5.2380  -18.8140   20.5710 C.3   135  LEU135      0.0297
    105  CG        -4.6090  -17.5430   21.0760 C.3   135  LEU135      0.0022
    106  CD1       -5.1260  -17.2470   22.4650 C.3   135  LEU135      0.0001
    107  CD2       -3.1190  -17.8100   21.0820 C.3   135  LEU135      0.0001
    108  N        -10.1040  -17.9200   18.0430 N.3   137  TYR137     -0.1228
    109  CA       -11.5630  -17.7510   18.0880 C.3   137  TYR137      0.1721
    110  C        -11.8610  -16.2530   18.2830 C.2   137  TYR137      0.2437
    111  O        -11.1000  -15.5630   18.9550 O.2   137  TYR137     -0.2733
    112  CB       -12.1480  -18.6020   19.2090 C.3   137  TYR137      0.0547
    113  CG       -13.6490  -18.6840   19.2090 C.ar  137  TYR137     -0.0200
    114  CD1      -14.3230  -19.4620   18.2750 C.ar  137  TYR137     -0.0009
    115  CD2      -14.3910  -18.0030   20.1560 C.ar  137  TYR137     -0.0009
    116  CE1      -15.7160  -19.5430   18.2780 C.ar  137  TYR137      0.0417
    117  CE2      -15.7780  -18.0760   20.1660 C.ar  137  TYR137      0.0417
    118  CZ       -16.4270  -18.8420   19.2240 C.ar  137  TYR137      0.1957
    119  OH       -17.8140  -18.9060   19.2520 O.3   137  TYR137     -0.2866
    120  N        -12.9460  -15.7250   17.6740 N.am  138  PRO138     -0.2718
    121  CA       -13.1520  -14.2700   17.7030 C.3   138  PRO138      0.1535
    122  C        -13.3720  -13.6700   19.0850 C.2   138  PRO138      0.2599
    123  O        -13.0300  -12.5010   19.2930 O.2   138  PRO138     -0.2715
    124  CB       -14.4140  -14.0810   16.8580 C.3   138  PRO138      0.0310
    125  CG       -14.4450  -15.2710   15.9810 C.3   138  PRO138      0.0237
    126  CD       -13.9210  -16.3940   16.7980 C.3   138  PRO138      0.0939
    127  N        -13.9620  -14.4260   20.0030 N.am  139  ASN139     -0.1959
    128  CA       -14.3380  -13.8810   21.3110 C.3   139  ASN139      0.1819
    129  C        -13.4220  -14.3350   22.4300 C.2   139  ASN139      0.2621
    130  O        -12.9830  -15.4880   22.4460 O.2   139  ASN139     -0.2715
    131  CB       -15.7770  -14.2670   21.6680 C.3   139  ASN139      0.1195
    132  CG       -16.7960  -13.5700   20.7930 C.2   139  ASN139      0.2630
    133  OD1      -16.5320  -12.4930   20.2540 O.2   139  ASN139     -0.2716
    134  ND2      -17.9730  -14.1720   20.6580 N.am  139  ASN139     -0.0877
    135  N        -13.1580  -13.4280   23.3690 N.am  140  TYR140     -0.1960
    136  CA       -12.3230  -13.7050   24.5360 C.3   140  TYR140      0.1771
    137  C        -12.8680  -14.8010   25.4270 C.2   140  TYR140      0.2619
    138  O        -14.0400  -14.8030   25.7840 O.2   140  TYR140     -0.2715
    139  CB       -12.1000  -12.4220   25.3550 C.3   140  TYR140      0.0574
    140  CG       -11.3060  -12.6280   26.6310 C.ar  140  TYR140     -0.0198
    141  CD1       -9.9230  -12.4600   26.6510 C.ar  140  TYR140     -0.0009
    142  CD2      -11.9380  -12.9860   27.8140 C.ar  140  TYR140     -0.0009
    143  CE1       -9.2000  -12.6500   27.8220 C.ar  140  TYR140      0.0417
    144  CE2      -11.2260  -13.1840   28.9800 C.ar  140  TYR140      0.0417
    145  CZ        -9.8590  -13.0120   28.9790 C.ar  140  TYR140      0.1957
    146  OH        -9.1440  -13.1960   30.1370 O.3   140  TYR140     -0.2866
    147  N        -11.9930  -15.7300   25.7880 N.am  141  ALA141     -0.1977
    148  CA       -12.3020  -16.7090   26.8110 C.3   141  ALA141      0.1597
    149  C        -11.0320  -16.9910   27.5910 C.2   141  ALA141      0.2287
    150  O         -9.9370  -16.9970   27.0170 O.2   141  ALA141     -0.2864
    151  CB       -12.8580  -17.9870   26.1920 C.3   141  ALA141      0.0319
    152  N         -8.2790  -19.2520   29.3380 N.3   143  ARG143     -0.1245
    153  CA        -7.6900  -20.5870   29.3040 C.3   143  ARG143      0.1563
    154  C         -6.4550  -20.5520   30.1880 C.2   143  ARG143      0.2260
    155  O         -5.8590  -19.4890   30.3730 O.2   143  ARG143     -0.2867
    156  CB        -7.3070  -21.0010   27.8840 C.3   143  ARG143      0.0307
    157  CG        -6.4880  -19.9550   27.1840 C.3   143  ARG143      0.0489
    158  CD        -6.7970  -19.8730   25.7160 C.3   143  ARG143      0.2205
    159  NE        -8.2320  -19.7430   25.4980 N.pl3 143  ARG143     -0.0865
    160  CZ        -8.7730  -19.3640   24.3470 C.cat 143  ARG143      0.5346
    161  NH1       -7.9870  -19.0430   23.3330 N.pl3 143  ARG143      0.1354
    162  NH2      -10.0910  -19.2750   24.2170 N.pl3 143  ARG143      0.1354
@<TRIPOS>BOND
     1    78    77    2
     2    88    87    2
     3    85    86    1
     4    77    76    1
     5    87    86    1
     6    39    38    2
     7    86    89    1
     8    76    79    1
     9    76    75    1
    10    81    83   ar
    11    81    80   ar
    12    89    90    1
    13    38    37    1
    14    79    80    1
    15    83    84   ar
    16    91    90   ar
    17    91    93   ar
    18    80    82   ar
    19    90    92   ar
    20    93    94   ar
    21    84    82   ar
    22    37    40    1
    23    37    36    1
    24    92    94   ar
    25    36    28   am
    26   125   126    1
    27   125   124    1
    28    69    68    2
    29    35    33   ar
    30    35    34   ar
    31    33    31   ar
    32    34    32   ar
    33    32    31   ar
    34    30    31    1
    35    30    27    1
    36   126   120    1
    37    28    27    1
    38    28    29    2
    39   124   121    1
    40    27    26    1
    41    68    67    1
    42    59    58    2
    43    73    72   ar
    44   120   121    1
    45   120   110   am
    46   121   122    1
    47    65    64   ar
    48    65    63   ar
    49    99    96    1
    50   108   109    1
    51   109   110    1
    52   109   112    1
    53    64    62   ar
    54   114   116   ar
    55   114   113   ar
    56   116   118   ar
    57   110   111    2
    58    67    70    1
    59    67    66    1
    60    63    61   ar
    61    12    10    1
    62    26    23   am
    63    58    66   am
    64    58    57    1
    65    72    74   ar
    66    72    71    1
    67    62    61   ar
    68    70    71    1
    69   122   123    2
    70   122   127   am
    71    24    23    2
    72   113   112    1
    73   113   115   ar
    74   118   119    1
    75   118   117   ar
    76    10     9    1
    77    61    60    1
    78    96    97    1
    79    96    95    1
    80   102   103    2
    81   102   101    1
    82    23    22    1
    83    11     9    1
    84    57    60    1
    85    57    56    1
    86    97   100   am
    87    97    98    2
    88   127   128    1
    89   100   101    1
    90   115   117   ar
    91   133   132    2
    92     9     6    1
    93   101   104    1
    94   104   105    1
    95   134   132   am
    96   132   131    1
    97    22    25    1
    98    22    21    1
    99   105   107    1
   100   105   106    1
   101   128   131    1
   102   128   129    1
   103     6     5    1
   104     6     7    1
   105    21    15   am
   106    52    51    2
   107     5     3   am
   108   129   130    2
   109   129   135   am
   110     7    13   am
   111     7     8    2
   112    13    14    1
   113    15    14    1
   114    15    16    2
   115     3     4    2
   116     3     2    1
   117    51    50    1
   118   161   160    1
   119   135   136    1
   120    14    17    1
   121    54    53    1
   122     2     1    1
   123    44    43    2
   124   162   160    1
   125    50    53    1
   126    50    49    1
   127    17    18    1
   128   160   159    2
   129   136   139    1
   130   136   137    1
   131    53    55    1
   132    18    19    1
   133    18    20    1
   134    43    49   am
   135    43    42    1
   136   139   140    1
   137   137   138    2
   138   137   147   am
   139   159   158    1
   140   158   157    1
   141   147   148    1
   142    42    45    1
   143    42    41    1
   144   151   148    1
   145   140   141   ar
   146   140   142   ar
   147   141   143   ar
   148   148   149    1
   149    45    46    1
   150   150   149    2
   151    48    46    1
   152   157   156    1
   153   142   144   ar
   154   143   145   ar
   155    46    47    1
   156   156   153    1
   157   145   144   ar
   158   145   146    1
   159   153   152    1
   160   153   154    1
   161   154   155    2
