@<TRIPOS>MOLECULE
tmp/5h9iA00.pdb
 96 92 0 0 0
SMALL
GASTEIGER

@<TRIPOS>ATOM
      1  N        104.8000    3.0110   16.3390 N.3    59  GLY59      -0.1210
      2  CA       105.6580    1.9530   16.9320 C.3    59  GLY59       0.1956
      3  C        107.1050    2.3580   16.8590 C.2    59  GLY59       0.2612
      4  O        107.4270    3.3980   16.3840 O.2    59  GLY59      -0.2717
      5  N        107.9340    1.4890   17.2970 N.am   60  MET60      -0.1965
      6  CA       109.3610    1.7440   17.3340 C.3    60  MET60       0.1736
      7  C        110.0370    1.3060   16.0600 C.2    60  MET60       0.2616
      8  O        110.5310    2.0980   15.3410 O.2    60  MET60      -0.2715
      9  CB       109.9740    1.0290   18.5490 C.3    60  MET60       0.0427
     10  CG       111.5060    1.1320   18.6630 C.3    60  MET60       0.0599
     11  SD       112.2080    0.2830   20.2160 S.3    60  MET60      -0.1393
     12  CE       111.9660   -1.3510   19.6600 C.3    60  MET60       0.0692
     13  N        110.0930    0.0120   15.8030 N.am   61  ASN61      -0.1959
     14  CA       110.7090   -0.4720   14.6040 C.3    61  ASN61       0.1804
     15  C        110.2260   -1.9020   14.3000 C.2    61  ASN61       0.2463
     16  O        109.5610   -2.4680   15.1310 O.2    61  ASN61      -0.2730
     17  CB       112.2850   -0.3600   14.6300 C.3    61  ASN61       0.1195
     18  CG       112.9660   -1.4860   15.3750 C.2    61  ASN61       0.2630
     19  OD1      112.6080   -1.8420   16.5110 O.2    61  ASN61      -0.2716
     20  ND2      114.0050   -2.0440   14.7390 N.am   61  ASN61      -0.0877
     21  N        110.4840   -2.4300   13.1040 N.am   62  PRO62      -0.2716
     22  CA       109.8860   -3.7230   12.7610 C.3    62  PRO62       0.1536
     23  C        110.2670   -4.8940   13.6200 C.2    62  PRO62       0.2599
     24  O        111.4040   -4.9280   14.1660 O.2    62  PRO62      -0.2715
     25  CB       110.4700   -3.9870   11.3840 C.3    62  PRO62       0.0310
     26  CG       110.6480   -2.5960   10.7510 C.3    62  PRO62       0.0237
     27  CD       111.1470   -1.7980   11.9440 C.3    62  PRO62       0.0939
     28  N        109.3440   -5.8270   13.8100 N.am   63  GLY63      -0.1955
     29  CA       109.7350   -7.1350   14.3280 C.3    63  GLY63       0.1869
     30  C        110.0990   -7.9510   13.1300 C.2    63  GLY63       0.2309
     31  O        109.6340   -7.7990   11.9810 O.2    63  GLY63      -0.2863
     32  N        106.5700   -6.6030   10.2410 N.3    67  MET67      -0.1245
     33  CA       106.8520   -5.5780    9.1860 C.3    67  MET67       0.1570
     34  C        108.1090   -5.9980    8.3310 C.2    67  MET67       0.2261
     35  O        108.1820   -5.6760    7.1730 O.2    67  MET67      -0.2867
     36  CB       107.0450   -4.1820    9.7670 C.3    67  MET67       0.0387
     37  CG       107.3500   -3.2290    8.7020 C.3    67  MET67       0.0595
     38  SD       107.1140   -1.5260    9.2300 S.3    67  MET67      -0.1393
     39  CE       107.6930   -0.5810    7.8250 C.3    67  MET67       0.0692
     40  N        103.4620   -1.9730    9.3090 N.3    73  PRO73      -0.2102
     41  CA       103.7140   -1.9070   10.7700 C.3    73  PRO73       0.1504
     42  C        102.8870   -2.9320   11.5500 C.2    73  PRO73       0.2575
     43  O        101.7230   -3.1790   11.2690 O.2    73  PRO73      -0.2718
     44  CB       103.2990   -0.4730   11.1840 C.3    73  PRO73       0.0282
     45  CG       103.2290    0.2570    9.8750 C.3    73  PRO73       0.0208
     46  CD       102.9590   -0.7060    8.7610 C.3    73  PRO73       0.0893
     47  N        103.6040   -3.5740   12.5020 N.am   74  PHE74      -0.1977
     48  CA       102.9790   -4.6850   13.2970 C.3    74  PHE74       0.1639
     49  C        102.3480   -5.7300   12.4170 C.2    74  PHE74       0.2290
     50  O        101.4040   -6.3700   12.7610 O.2    74  PHE74      -0.2864
     51  CB       101.9400   -4.0760   14.2940 C.3    74  PHE74       0.0560
     52  CG       102.5590   -3.2260   15.3900 C.ar   74  PHE74      -0.0200
     53  CD1      103.0240   -3.8400   16.5820 C.ar   74  PHE74      -0.0042
     54  CD2      102.6990   -1.8720   15.2260 C.ar   74  PHE74      -0.0042
     55  CE1      103.5100   -3.0390   17.5670 C.ar   74  PHE74      -0.0003
     56  CE2      103.2000   -1.0880   16.2210 C.ar   74  PHE74      -0.0003
     57  CZ       103.5910   -1.6870   17.3660 C.ar   74  PHE74      -0.0000
     58  N        103.7390  -13.1840   14.3300 N.3   111  GLU111     -0.1245
     59  CA       104.1700  -12.2610   15.3260 C.3   111  GLU111      0.1567
     60  C        103.0740  -11.9780   16.3470 C.2   111  GLU111      0.2260
     61  O        101.9930  -11.5080   15.9400 O.2   111  GLU111     -0.2867
     62  CB       104.5750  -10.9100   14.6880 C.3   111  GLU111      0.0388
     63  CG       105.1010   -9.9410   15.7270 C.3   111  GLU111      0.1160
     64  CD       105.2450   -8.5400   15.1560 C.2   111  GLU111      0.3649
     65  OE1      104.4490   -7.6460   15.4420 O.co2 111  GLU111     -0.2457
     66  OE2      106.2580   -8.3300   14.3940 O.co2 111  GLU111     -0.2457
     67  N        102.8740   -9.7370   18.8390 N.3   113  SER113     -0.1217
     68  CA       102.6450   -8.2890   19.0110 C.3   113  SER113      0.1889
     69  C        101.6700   -7.7460   17.9910 C.2   113  SER113      0.2288
     70  O        100.6040   -7.2010   18.3500 O.2   113  SER113     -0.2866
     71  CB       103.9240   -7.4930   18.9590 C.3   113  SER113      0.2089
     72  OG       104.7570   -7.7180   20.0640 O.3   113  SER113     -0.2183
     73  N        105.5740    3.1750   11.9060 N.3   139  ASN139     -0.1240
     74  CA       106.7310    3.0120   12.7930 C.3   139  ASN139      0.1653
     75  C        107.5920    4.2710   12.7410 C.2   139  ASN139      0.2266
     76  O        107.7800    4.8160   11.6760 O.2   139  ASN139     -0.2867
     77  CB       107.6210    1.8550   12.3430 C.3   139  ASN139      0.1155
     78  CG       107.2960    0.6000   13.0500 C.2   139  ASN139      0.2627
     79  OD1      106.7920    0.5810   14.1520 O.2   139  ASN139     -0.2716
     80  ND2      107.4320   -0.5270   12.2840 N.am  139  ASN139     -0.0877
     81  N        102.8330   -1.5640   25.2040 N.3   213  HIS213     -0.1241
     82  CA       103.2210   -2.3460   24.0430 C.3   213  HIS213      0.1621
     83  C        102.6730   -3.7630   24.1650 C.2   213  HIS213      0.2264
     84  O        102.6310   -4.3340   25.2590 O.2   213  HIS213     -0.2867
     85  CB       104.7280   -2.3700   23.9750 C.3   213  HIS213      0.0745
     86  CG       105.2520   -2.8930   22.6960 C.ar  213  HIS213      0.0817
     87  ND1      105.2020   -4.2340   22.3810 N.ar  213  HIS213     -0.2268
     88  CD2      105.7930   -2.2580   21.6350 C.ar  213  HIS213      0.1154
     89  CE1      105.7170   -4.4000   21.1760 C.ar  213  HIS213      0.1986
     90  NE2      106.1150   -3.2350   20.7380 N.ar  213  HIS213     -0.2212
     91  N        103.7530   -6.6960   23.2560 N.3   215  SER215     -0.1217
     92  CA       104.6350   -7.8980   23.3300 C.3   215  SER215      0.1889
     93  C        104.4780   -8.6710   24.6240 C.2   215  SER215      0.2288
     94  O        104.1460   -8.1220   25.7000 O.2   215  SER215     -0.2866
     95  CB       106.0640   -7.6950   22.9580 C.3   215  SER215      0.2089
     96  OG       106.8230   -7.5730   24.0460 O.3   215  SER215     -0.2183
@<TRIPOS>BOND
     1    35    34    2
     2    39    38    1
     3    34    33    1
     4    37    38    1
     5    37    36    1
     6    46    40    1
     7    46    45    1
     8    33    36    1
     9    33    32    1
    10    40    41    1
    11    45    44    1
    12    26    25    1
    13    26    27    1
    14    41    44    1
    15    41    42    1
    16    43    42    2
    17    25    22    1
    18    42    47   am
    19    76    75    2
    20    73    74    1
    21    27    21    1
    22    31    30    2
    23    80    78   am
    24    77    74    1
    25    77    78    1
    26    49    50    2
    27    49    48    1
    28    47    48    1
    29    75    74    1
    30    22    21    1
    31    22    23    1
    32    78    79    2
    33    21    15   am
    34    30    29    1
    35    48    51    1
    36    23    28   am
    37    23    24    2
    38    28    29    1
    39    51    52    1
    40    15    14    1
    41    15    16    2
    42    58    59    1
    43    66    64   ar
    44    14    17    1
    45    14    13    1
    46    17    18    1
    47    62    59    1
    48    62    63    1
    49    20    18   am
    50    64    65   ar
    51    64    63    1
    52    54    52   ar
    53    54    56   ar
    54    59    60    1
    55     8     7    2
    56    18    19    2
    57    52    53   ar
    58    13     7   am
    59    61    60    2
    60     7     6    1
    61    56    57   ar
    62     1     2    1
    63     4     3    2
    64    53    55   ar
    65     3     2    1
    66     3     5   am
    67     5     6    1
    68     6     9    1
    69    57    55   ar
    70    69    70    2
    71    69    68    1
    72     9    10    1
    73    10    11    1
    74    67    68    1
    75    71    68    1
    76    71    72    1
    77    12    11    1
    78    90    89   ar
    79    90    88   ar
    80    89    87   ar
    81    88    86   ar
    82    87    86   ar
    83    86    85    1
    84    95    92    1
    85    95    96    1
    86    91    92    1
    87    92    93    1
    88    85    82    1
    89    82    83    1
    90    82    81    1
    91    83    84    2
    92    93    94    2
