@<TRIPOS>MOLECULE
tmp/5h9lA00.pdb
 223 213 0 0 0
SMALL
GASTEIGER

@<TRIPOS>ATOM
      1  N        -18.3910    1.9970  -11.7810 N.3    24  PHE24      -0.1227
      2  CA       -17.0160    2.4160  -12.0510 C.3    24  PHE24       0.1736
      3  C        -16.1000    1.2540  -12.4560 C.2    24  PHE24       0.2595
      4  O        -15.3420    1.3510  -13.4320 O.2    24  PHE24      -0.2718
      5  CB       -16.4020    3.1320  -10.8420 C.3    24  PHE24       0.0547
      6  CG       -14.9660    3.4830  -11.0490 C.ar   24  PHE24      -0.0202
      7  CD1      -14.6230    4.5210  -11.8940 C.ar   24  PHE24      -0.0042
      8  CD2      -13.9540    2.7460  -10.4600 C.ar   24  PHE24      -0.0042
      9  CE1      -13.2900    4.8340  -12.1190 C.ar   24  PHE24      -0.0003
     10  CE2      -12.6260    3.0550  -10.6690 C.ar   24  PHE24      -0.0003
     11  CZ       -12.2900    4.0960  -11.5210 C.ar   24  PHE24      -0.0000
     12  N        -16.1500    0.1770  -11.6810 N.am   25  PHE25      -0.1976
     13  CA       -15.2940   -0.9850  -11.9000 C.3    25  PHE25       0.1639
     14  C        -15.8920   -1.9150  -12.9490 C.2    25  PHE25       0.2290
     15  O        -16.1810   -3.0860  -12.6830 O.2    25  PHE25      -0.2864
     16  CB       -15.0680   -1.7300  -10.5870 C.3    25  PHE25       0.0560
     17  CG       -14.2710   -0.9540   -9.5740 C.ar   25  PHE25      -0.0200
     18  CD1      -12.9070   -0.7660   -9.7480 C.ar   25  PHE25      -0.0042
     19  CD2      -14.8760   -0.4170   -8.4450 C.ar   25  PHE25      -0.0042
     20  CE1      -12.1630   -0.0640   -8.8190 C.ar   25  PHE25      -0.0003
     21  CE2      -14.1360    0.2890   -7.5100 C.ar   25  PHE25      -0.0003
     22  CZ       -12.7750    0.4630   -7.6970 C.ar   25  PHE25      -0.0000
     23  N        -10.4230    1.4920  -18.7000 N.3    29  TRP29      -0.1241
     24  CA       -10.1080    2.8810  -18.3820 C.3    29  TRP29       0.1605
     25  C         -8.6830    3.1890  -18.8470 C.2    29  TRP29       0.2264
     26  O         -7.7420    2.5060  -18.4290 O.2    29  TRP29      -0.2867
     27  CB       -10.2040    3.1340  -16.8800 C.3    29  TRP29       0.0550
     28  CG       -11.5910    3.2700  -16.3010 C.ar   29  TRP29       0.0003
     29  CD1      -12.2420    2.3650  -15.5090 C.ar   29  TRP29       0.0946
     30  CD2      -12.4680    4.4000  -16.4200 C.ar   29  TRP29       0.0152
     31  NE1      -13.4740    2.8490  -15.1490 N.ar   29  TRP29      -0.2442
     32  CE2      -13.6320    4.1030  -15.6810 C.ar   29  TRP29       0.0810
     33  CE3      -12.3740    5.6330  -17.0720 C.ar   29  TRP29       0.0012
     34  CZ2      -14.7060    4.9960  -15.5820 C.ar   29  TRP29       0.0191
     35  CZ3      -13.4330    6.5150  -16.9810 C.ar   29  TRP29       0.0001
     36  CH2      -14.5800    6.1970  -16.2360 C.ar   29  TRP29       0.0015
     37  N          1.6800   14.1880  -11.7190 N.3    36  ASP36      -0.1239
     38  CA         3.1080   13.8790  -11.8030 C.3    36  ASP36       0.1674
     39  C          3.2480   12.8210  -12.8620 C.2    36  ASP36       0.2266
     40  O          2.4010   11.9430  -12.9470 O.2    36  ASP36      -0.2867
     41  CB         3.6750   13.3510  -10.4850 C.3    36  ASP36       0.1410
     42  CG         3.4190   14.2690   -9.3110 C.2    36  ASP36       0.3668
     43  OD1        3.1990   15.4800   -9.5110 O.co2  36  ASP36      -0.2456
     44  OD2        3.4500   13.7630   -8.1720 O.co2  36  ASP36      -0.2456
     45  N          6.1190   10.2710  -15.3630 N.3    38  GLU38      -0.1245
     46  CA         7.4410    9.7350  -15.6300 C.3    38  GLU38       0.1567
     47  C          7.8330   10.0450  -17.0590 C.2    38  GLU38       0.2260
     48  O          7.0040   10.4980  -17.8550 O.2    38  GLU38      -0.2867
     49  CB         7.4640    8.2190  -15.4180 C.3    38  GLU38       0.0388
     50  CG         6.7840    7.7270  -14.1580 C.3    38  GLU38       0.1160
     51  CD         6.4580    6.2480  -14.2310 C.2    38  GLU38       0.3649
     52  OE1        6.3740    5.7150  -15.3580 O.co2  38  GLU38      -0.2457
     53  OE2        6.2880    5.6170  -13.1660 O.co2  38  GLU38      -0.2457
     54  N         -6.2930    0.1500  -18.1800 N.3    46  TYR46      -0.1241
     55  CA        -6.7230   -0.6100  -17.0220 C.3    46  TYR46       0.1605
     56  C         -7.9810   -1.3900  -17.3720 C.2    46  TYR46       0.2264
     57  O         -9.0290   -0.8160  -17.6350 O.2    46  TYR46      -0.2867
     58  CB        -6.9400    0.3350  -15.8320 C.3    46  TYR46       0.0534
     59  CG        -5.6530    0.8720  -15.2390 C.ar   46  TYR46      -0.0201
     60  CD1       -4.8800    1.8080  -15.9150 C.ar   46  TYR46      -0.0009
     61  CD2       -5.2120    0.4470  -13.9850 C.ar   46  TYR46      -0.0009
     62  CE1       -3.6870    2.2960  -15.3710 C.ar   46  TYR46       0.0417
     63  CE2       -4.0270    0.9390  -13.4330 C.ar   46  TYR46       0.0417
     64  CZ        -3.2770    1.8590  -14.1200 C.ar   46  TYR46       0.1957
     65  OH        -2.1030    2.3290  -13.5830 O.3    46  TYR46      -0.2866
     66  N        -10.9090   -3.9430  -16.2060 N.3    48  THR48      -0.1218
     67  CA       -11.5740   -4.3420  -14.9730 C.3    48  THR48       0.1862
     68  C        -12.3370   -5.6460  -15.1530 C.2    48  THR48       0.2287
     69  O        -12.8090   -5.9690  -16.2570 O.2    48  THR48      -0.2866
     70  CB       -12.5660   -3.2840  -14.4720 C.3    48  THR48       0.1770
     71  OG1      -13.6950   -3.2340  -15.3490 O.3    48  THR48      -0.2211
     72  CG2      -11.9120   -1.9130  -14.3850 C.3    48  THR48       0.0375
     73  N         -8.2980   -6.2450  -11.4670 N.3    54  LEU54      -0.1245
     74  CA        -7.9020   -5.4520  -12.6150 C.3    54  LEU54       0.1561
     75  C         -6.5780   -5.9210  -13.1850 C.2    54  LEU54       0.2260
     76  O         -5.8000   -6.6210  -12.5350 O.2    54  LEU54      -0.2867
     77  CB        -7.8680   -3.9600  -12.2660 C.3    54  LEU54       0.0270
     78  CG        -6.9680   -3.3500  -11.1960 C.3    54  LEU54       0.0019
     79  CD1       -5.5720   -3.0910  -11.7380 C.3    54  LEU54       0.0001
     80  CD2       -7.5860   -2.0590  -10.6900 C.3    54  LEU54       0.0001
     81  N         -3.4390   -4.3320  -15.8810 N.3    56  PHE56      -0.1241
     82  CA        -2.9940   -3.2500  -16.7550 C.3    56  PHE56       0.1605
     83  C         -1.5970   -3.5120  -17.2690 C.2    56  PHE56       0.2264
     84  O         -0.8540   -4.3120  -16.7150 O.2    56  PHE56      -0.2867
     85  CB        -3.0660   -1.8820  -16.0570 C.3    56  PHE56       0.0534
     86  CG        -2.0660   -1.6800  -14.9370 C.ar   56  PHE56      -0.0203
     87  CD1       -2.3650   -2.0910  -13.6480 C.ar   56  PHE56      -0.0042
     88  CD2       -0.8590   -1.0260  -15.1600 C.ar   56  PHE56      -0.0042
     89  CE1       -1.4740   -1.8990  -12.6120 C.ar   56  PHE56      -0.0003
     90  CE2        0.0410   -0.8240  -14.1200 C.ar   56  PHE56      -0.0003
     91  CZ        -0.2730   -1.2690  -12.8430 C.ar   56  PHE56      -0.0000
     92  N          4.8930   -0.6590  -16.4520 N.3    59  LYS59      -0.1245
     93  CA         6.1860   -0.1830  -16.9440 C.3    59  LYS59       0.1561
     94  C          7.0240   -1.2740  -17.5900 C.2    59  LYS59       0.2260
     95  O          7.6940   -1.0410  -18.5950 O.2    59  LYS59      -0.2867
     96  CB         6.9820    0.4570  -15.8020 C.3    59  LYS59       0.0271
     97  CG         6.6060    1.8990  -15.5170 C.3    59  LYS59       0.0035
     98  CD         7.1800    2.3870  -14.1990 C.3    59  LYS59       0.0206
     99  CE         6.5170    1.6920  -13.0210 C.3    59  LYS59       0.1093
    100  NZ         6.9530    2.2530  -11.7110 N.3    59  LYS59      -0.1314
    101  N         -4.0620   -7.0090  -10.2930 N.3    65  CYS65      -0.1235
    102  CA        -4.3740   -6.4850   -8.9660 C.3    65  CYS65       0.1677
    103  C         -5.7050   -6.9810   -8.4390 C.2    65  CYS65       0.2270
    104  O         -6.6380   -7.2400   -9.1960 O.2    65  CYS65      -0.2867
    105  CB        -4.4020   -4.9560   -8.9640 C.3    65  CYS65       0.0956
    106  SG        -2.8990   -4.1240   -9.5380 S.3    65  CYS65      -0.0801
    107  N         -5.3610   -2.0760   -3.2310 N.3    79  PHE79      -0.1241
    108  CA        -5.0780   -3.0820   -4.2520 C.3    79  PHE79       0.1605
    109  C         -3.7710   -3.8090   -3.9950 C.2    79  PHE79       0.2264
    110  O         -2.7280   -3.1950   -3.7570 O.2    79  PHE79      -0.2867
    111  CB        -5.0700   -2.4440   -5.6490 C.3    79  PHE79       0.0534
    112  CG        -6.4450   -2.1670   -6.1790 C.ar   79  PHE79      -0.0203
    113  CD1       -7.1030   -0.9810   -5.8750 C.ar   79  PHE79      -0.0042
    114  CD2       -7.1070   -3.1180   -6.9300 C.ar   79  PHE79      -0.0042
    115  CE1       -8.4020   -0.7460   -6.3490 C.ar   79  PHE79      -0.0003
    116  CE2       -8.4030   -2.8910   -7.3970 C.ar   79  PHE79      -0.0003
    117  CZ        -9.0470   -1.7100   -7.1040 C.ar   79  PHE79      -0.0000
    118  N         -1.1070   -6.0240   -5.8160 N.3    81  CYS81      -0.1235
    119  CA        -0.7180   -6.1820   -7.2180 C.3    81  CYS81       0.1677
    120  C          0.5100   -7.0660   -7.3740 C.2    81  CYS81       0.2270
    121  O          1.4090   -7.0640   -6.5260 O.2    81  CYS81      -0.2867
    122  CB        -0.4370   -4.8260   -7.8630 C.3    81  CYS81       0.0956
    123  SG        -1.8210   -3.6550   -7.8380 S.3    81  CYS81      -0.0801
    124  N          3.2470   -5.4750   -4.8260 N.3    89  PHE89      -0.1241
    125  CA         3.1200   -4.2190   -4.1020 C.3    89  PHE89       0.1605
    126  C          1.6780   -3.9270   -3.7410 C.2    89  PHE89       0.2264
    127  O          0.7560   -4.5350   -4.2750 O.2    89  PHE89      -0.2867
    128  CB         3.7200   -3.0620   -4.9160 C.3    89  PHE89       0.0534
    129  CG         3.0130   -2.7820   -6.2140 C.ar   89  PHE89      -0.0203
    130  CD1        3.3600   -3.4640   -7.3690 C.ar   89  PHE89      -0.0042
    131  CD2        2.0200   -1.8180   -6.2740 C.ar   89  PHE89      -0.0042
    132  CE1        2.7250   -3.1920   -8.5610 C.ar   89  PHE89      -0.0003
    133  CE2        1.3600   -1.5390   -7.4620 C.ar   89  PHE89      -0.0003
    134  CZ         1.7180   -2.2310   -8.6100 C.ar   89  PHE89      -0.0000
    135  N         -1.2050   -0.7100   -3.3250 N.3    91  SER91      -0.1217
    136  CA        -1.5120    0.6690   -3.6880 C.3    91  SER91       0.1889
    137  C         -2.9230    1.0350   -3.2450 C.2    91  SER91       0.2288
    138  O         -3.8020    0.1730   -3.2150 O.2    91  SER91      -0.2866
    139  CB        -1.3680    0.8700   -5.1940 C.3    91  SER91       0.2089
    140  OG        -1.4540    2.2440   -5.5530 O.3    91  SER91      -0.2183
    141  N         -6.3240    3.7850   -3.5390 N.3    93  MET93      -0.1245
    142  CA        -6.9500    4.7630   -4.4140 C.3    93  MET93       0.1570
    143  C         -8.3450    5.1590   -3.9580 C.2    93  MET93       0.2261
    144  O         -9.0130    4.4060   -3.2550 O.2    93  MET93      -0.2867
    145  CB        -7.0150    4.2210   -5.8440 C.3    93  MET93       0.0387
    146  CG        -7.7740    2.8920   -5.9480 C.3    93  MET93       0.0595
    147  SD        -8.9020    2.7880   -7.3290 S.3    93  MET93      -0.1393
    148  CE        -9.7620    4.2090   -6.7370 C.3    93  MET93       0.0692
    149  N         -8.9970   10.2870  -10.1790 N.3   106  LEU106     -0.1245
    150  CA        -8.6440    9.4520   -9.0250 C.3   106  LEU106      0.1561
    151  C         -7.4750   10.0180   -8.2620 C.2   106  LEU106      0.2260
    152  O         -6.6470   10.7450   -8.8250 O.2   106  LEU106     -0.2867
    153  CB        -8.2930    8.0330   -9.4730 C.3   106  LEU106      0.0270
    154  CG        -9.4200    7.0110   -9.6180 C.3   106  LEU106      0.0019
    155  CD1      -10.4180    7.4820  -10.6700 C.3   106  LEU106      0.0001
    156  CD2       -8.8780    5.6290   -9.9740 C.3   106  LEU106      0.0001
    157  N         -4.3030    8.4400   -5.9590 N.3   108  ARG108     -0.1245
    158  CA        -3.6140    7.1840   -5.7190 C.3   108  ARG108      0.1563
    159  C         -2.4440    7.4590   -4.7840 C.2   108  ARG108      0.2260
    160  O         -1.7780    8.4830   -4.9020 O.2   108  ARG108     -0.2867
    161  CB        -3.1330    6.5540   -7.0300 C.3   108  ARG108      0.0307
    162  CG        -2.4960    5.1820   -6.8490 C.3   108  ARG108      0.0489
    163  CD        -2.3490    4.4050   -8.1460 C.3   108  ARG108      0.2205
    164  NE        -1.4160    5.0490   -9.0540 N.pl3 108  ARG108     -0.0865
    165  CZ        -1.2670    4.7250  -10.3380 C.cat 108  ARG108      0.5346
    166  NH1       -2.0020    3.7570  -10.8790 N.pl3 108  ARG108      0.1354
    167  NH2       -0.4020    5.3830  -11.0860 N.pl3 108  ARG108      0.1354
    168  N          5.1560    1.8540   -1.0660 N.3   112  TYR112     -0.1241
    169  CA         6.0250    1.1120   -1.9820 C.3   112  TYR112      0.1605
    170  C          7.4040    0.8470   -1.3790 C.2   112  TYR112      0.2264
    171  O          8.4360    1.0640   -2.0220 O.2   112  TYR112     -0.2867
    172  CB         6.1500    1.8610   -3.3180 C.3   112  TYR112      0.0534
    173  CG         4.8090    2.3090   -3.8550 C.ar  112  TYR112     -0.0201
    174  CD1        3.8590    1.3840   -4.2820 C.ar  112  TYR112     -0.0009
    175  CD2        4.4770    3.6520   -3.9110 C.ar  112  TYR112     -0.0009
    176  CE1        2.6200    1.7910   -4.7580 C.ar  112  TYR112      0.0417
    177  CE2        3.2400    4.0670   -4.3830 C.ar  112  TYR112      0.0417
    178  CZ         2.3160    3.1300   -4.8080 C.ar  112  TYR112      0.1957
    179  OH         1.0910    3.5220   -5.2690 O.3   112  TYR112     -0.2866
    180  N          4.2300    8.0900   -1.8240 N.3   118  LYS118     -0.1231
    181  CA         4.2440    8.6790   -3.1490 C.3   118  LYS118      0.1693
    182  C          2.8120    8.6860   -3.6550 C.2   118  LYS118      0.2592
    183  O          2.1630    7.6380   -3.7030 O.2   118  LYS118     -0.2718
    184  CB         5.1470    7.9090   -4.1140 C.3   118  LYS118      0.0285
    185  CG         6.6070    7.8640   -3.6970 C.3   118  LYS118      0.0035
    186  CD         7.5400    7.4340   -4.8300 C.3   118  LYS118      0.0206
    187  CE         6.8040    6.7640   -5.9810 C.3   118  LYS118      0.1093
    188  NZ         7.7020    6.5660   -7.1550 N.3   118  LYS118     -0.1314
    189  N          2.2950    9.8550   -4.0030 N.am  119  ASP119     -0.1960
    190  CA         0.8980    9.9290   -4.4070 C.3   119  ASP119      0.1840
    191  C          0.7460   10.6610   -5.7360 C.2   119  ASP119      0.2622
    192  O          1.7270   11.1500   -6.2990 O.2   119  ASP119     -0.2715
    193  CB         0.0240   10.5570   -3.2970 C.3   119  ASP119      0.1450
    194  CG         0.3240   12.0200   -3.0260 C.2   119  ASP119      0.3671
    195  OD1        1.1740   12.6280   -3.7060 O.co2 119  ASP119     -0.2456
    196  OD2       -0.3230   12.5840   -2.1100 O.co2 119  ASP119     -0.2456
    197  N         -0.4750   10.7190   -6.2400 N.am  120  ASN120     -0.1972
    198  CA        -0.7230   11.3190   -7.5510 C.3   120  ASN120      0.1688
    199  C         -2.2020   11.5580   -7.7310 C.2   120  ASN120      0.2292
    200  O         -3.0140   10.8910   -7.0880 O.2   120  ASN120     -0.2864
    201  CB        -0.2200   10.4020   -8.6750 C.3   120  ASN120      0.1181
    202  CG         0.3270   11.1630   -9.8770 C.2   120  ASN120      0.2629
    203  OD1        0.1170   12.3630  -10.0350 O.2   120  ASN120     -0.2716
    204  ND2        1.0440   10.4450  -10.7410 N.am  120  ASN120     -0.0877
    205  N         -4.8810   11.3170  -10.9360 N.3   122  LEU122     -0.1245
    206  CA        -4.9050   10.5790  -12.1970 C.3   122  LEU122      0.1561
    207  C         -6.1940   10.8780  -12.9190 C.2   122  LEU122      0.2260
    208  O         -7.2630   10.8180  -12.3180 O.2   122  LEU122     -0.2867
    209  CB        -4.8080    9.0720  -11.9510 C.3   122  LEU122      0.0270
    210  CG        -3.6600    8.5770  -11.0630 C.3   122  LEU122      0.0019
    211  CD1       -3.7880    7.0750  -10.8110 C.3   122  LEU122      0.0001
    212  CD2       -2.3260    8.8960  -11.6760 C.3   122  LEU122      0.0001
    213  N         -8.4840    9.3380  -15.7810 N.3   124  PHE124     -0.1241
    214  CA        -8.8080    8.2130  -16.6470 C.3   124  PHE124      0.1605
    215  C         -9.9180    8.5870  -17.6140 C.2   124  PHE124      0.2264
    216  O        -10.8200    9.3800  -17.2960 O.2   124  PHE124     -0.2867
    217  CB        -9.2380    7.0000  -15.8170 C.3   124  PHE124      0.0534
    218  CG        -8.1360    6.3990  -14.9910 C.ar  124  PHE124     -0.0203
    219  CD1       -7.8180    6.9260  -13.7440 C.ar  124  PHE124     -0.0042
    220  CD2       -7.4210    5.3050  -15.4540 C.ar  124  PHE124     -0.0042
    221  CE1       -6.7990    6.3650  -12.9890 C.ar  124  PHE124     -0.0003
    222  CE2       -6.4060    4.7540  -14.7110 C.ar  124  PHE124     -0.0003
    223  CZ        -6.1120    5.2680  -13.4720 C.ar  124  PHE124     -0.0000
@<TRIPOS>BOND
     1    25    26    2
     2    25    24    1
     3    23    24    1
     4    95    94    2
     5    24    27    1
     6    54    55    1
     7    48    47    2
     8    57    56    2
     9   215   216    2
    10   215   214    1
    11    94    93    1
    12    56    55    1
    13    83    82    1
    14    83    84    2
    15    33    35   ar
    16    33    30   ar
    17    47    46    1
    18    55    58    1
    19    35    36   ar
    20    93    92    1
    21    93    96    1
    22    27    28    1
    23    82    85    1
    24    82    81    1
    25   214   217    1
    26   214   213    1
    27    30    28   ar
    28    30    32   ar
    29    28    29   ar
    30    69    68    2
    31    36    34   ar
    32    66    67    1
    33    85    86    1
    34    60    62   ar
    35    60    59   ar
    36    58    59    1
    37   217   218    1
    38    96    97    1
    39    32    34   ar
    40    32    31   ar
    41    46    49    1
    42    46    45    1
    43    97    98    1
    44    29    31   ar
    45   220   218   ar
    46   220   222   ar
    47    49    50    1
    48    62    64   ar
    49    52    51   ar
    50    71    70    1
    51    59    61   ar
    52    88    86   ar
    53    88    90   ar
    54    68    67    1
    55   218   219   ar
    56    67    70    1
    57    86    87   ar
    58   222   223   ar
    59    70    72    1
    60    51    50    1
    61    51    53   ar
    62    98    99    1
    63    64    65    1
    64    64    63   ar
    65    90    91   ar
    66    61    63   ar
    67   219   221   ar
    68    87    89   ar
    69   223   221   ar
    70     4     3    2
    71    75    74    1
    72    75    76    2
    73    99   100    1
    74    14    15    2
    75    14    13    1
    76    40    39    2
    77   207   208    2
    78   207   206    1
    79    39    38    1
    80    91    89   ar
    81    74    77    1
    82    74    73    1
    83     3     2    1
    84     3    12   am
    85    77    78    1
    86   206   209    1
    87   206   205    1
    88     9     7   ar
    89     9    11   ar
    90     2     1    1
    91     2     5    1
    92   209   210    1
    93    13    12    1
    94    13    16    1
    95     7     6   ar
    96    38    37    1
    97    38    41    1
    98    79    78    1
    99   212   210    1
   100    11    10   ar
   101    78    80    1
   102   167   165    1
   103   210   211    1
   104     6     5    1
   105     6     8   ar
   106   166   165    1
   107   204   202   am
   108   155   154    1
   109    10     8   ar
   110    16    17    1
   111    41    42    1
   112   165   164    2
   113   101   102    1
   114   149   150    1
   115   203   202    2
   116   156   154    1
   117   202   201    1
   118    18    17   ar
   119    18    20   ar
   120   154   153    1
   121    17    19   ar
   122   106   105    1
   123   106   123    1
   124    43    42   ar
   125   153   150    1
   126    42    44   ar
   127   104   103    2
   128   164   163    1
   129   150   151    1
   130   102   105    1
   131   102   103    1
   132   152   151    2
   133    20    22   ar
   134   201   198    1
   135   134   132   ar
   136   134   133   ar
   137   132   130   ar
   138    19    21   ar
   139   163   162    1
   140   122   123    1
   141   122   119    1
   142   199   198    1
   143   199   200    2
   144    22    21   ar
   145   198   197    1
   146   133   131   ar
   147   116   117   ar
   148   116   114   ar
   149   120   119    1
   150   120   121    2
   151   130   129   ar
   152   147   148    1
   153   147   146    1
   154   119   118    1
   155   188   187    1
   156   117   115   ar
   157   161   162    1
   158   161   158    1
   159   114   112   ar
   160   115   113   ar
   161   192   191    2
   162   131   129   ar
   163   197   191   am
   164   129   128    1
   165   112   113   ar
   166   112   111    1
   167   187   186    1
   168   157   158    1
   169   146   145    1
   170   145   142    1
   171   191   190    1
   172   158   159    1
   173   111   108    1
   174   140   139    1
   175   179   178    1
   176   139   136    1
   177   128   125    1
   178   160   159    2
   179   186   185    1
   180   124   125    1
   181   178   176   ar
   182   178   177   ar
   183   176   174   ar
   184   142   143    1
   185   142   141    1
   186   190   189    1
   187   190   193    1
   188   177   175   ar
   189   174   173   ar
   190   127   126    2
   191   108   109    1
   192   108   107    1
   193   184   185    1
   194   184   181    1
   195   125   126    1
   196   189   182   am
   197   109   110    2
   198   143   144    2
   199   175   173   ar
   200   173   172    1
   201   195   194   ar
   202   183   182    2
   203   136   135    1
   204   136   137    1
   205   182   181    1
   206   172   169    1
   207   193   194    1
   208   137   138    2
   209   181   180    1
   210   194   196   ar
   211   171   170    2
   212   169   170    1
   213   169   168    1
