@<TRIPOS>MOLECULE
tmp/5h9mB01.pdb
 113 111 0 0 0
SMALL
GASTEIGER

@<TRIPOS>ATOM
      1  N         68.1380   28.7910  -16.5520 N.3    38  CYS38      -0.1221
      2  CA        66.6840   28.8730  -16.6350 C.3    38  CYS38       0.1794
      3  C         66.0310   27.5630  -16.1640 C.2    38  CYS38       0.2443
      4  O         66.3790   26.4990  -16.6560 O.2    38  CYS38      -0.2733
      5  CB        66.2580   29.2120  -18.0570 C.3    38  CYS38       0.0970
      6  SG        64.4800   29.4690  -18.2010 S.3    38  CYS38      -0.0800
      7  N         65.1110   27.6260  -15.1820 N.am   39  PRO39      -0.2718
      8  CA        64.4360   26.3850  -14.8110 C.3    39  PRO39       0.1535
      9  C         63.3580   25.9820  -15.8300 C.2    39  PRO39       0.2599
     10  O         62.8020   26.8360  -16.5600 O.2    39  PRO39      -0.2715
     11  CB        63.7920   26.7270  -13.4570 C.3    39  PRO39       0.0310
     12  CG        63.5840   28.2040  -13.5030 C.3    39  PRO39       0.0237
     13  CD        64.7150   28.7530  -14.3130 C.3    39  PRO39       0.0939
     14  N         63.0670   24.6820  -15.8670 N.am   40  GLY40      -0.1941
     15  CA        61.9900   24.1580  -16.7080 C.3    40  GLY40       0.2014
     16  C         62.2480   24.1340  -18.2050 C.2    40  GLY40       0.2638
     17  O         61.3210   23.8670  -18.9740 O.2    40  GLY40      -0.2714
     18  N         63.4870   24.3920  -18.6310 N.am   41  ALA41      -0.1977
     19  CA        63.8440   24.4170  -20.0580 C.3    41  ALA41       0.1597
     20  C         64.8230   23.2880  -20.3580 C.2    41  ALA41       0.2287
     21  O         65.5750   22.8560  -19.4730 O.2    41  ALA41      -0.2864
     22  CB        64.4480   25.7650  -20.4430 C.3    41  ALA41       0.0319
     23  N         61.0770   34.3420  -24.2490 N.3    62  SER62      -0.1202
     24  CA        59.9120   34.3530  -23.3540 C.3    62  SER62       0.2020
     25  C         60.2210   34.9740  -21.9900 C.2    62  SER62       0.2619
     26  O         59.3110   35.3510  -21.2610 O.2    62  SER62      -0.2717
     27  CB        59.3810   32.9310  -23.1520 C.3    62  SER62       0.2103
     28  OG        59.1330   32.3130  -24.4020 O.3    62  SER62      -0.2182
     29  N         61.5060   35.0540  -21.6490 N.am   63  ILE63      -0.1965
     30  CA        61.9670   35.6270  -20.3920 C.3    63  ILE63       0.1727
     31  C         62.0050   37.1330  -20.5920 C.2    63  ILE63       0.2616
     32  O         62.8210   37.6590  -21.3720 O.2    63  ILE63      -0.2715
     33  CB        63.3720   35.0980  -20.0380 C.3    63  ILE63       0.0290
     34  CG1       63.3190   33.5800  -19.8410 C.3    63  ILE63       0.0022
     35  CG2       63.9210   35.7180  -18.7530 C.3    63  ILE63       0.0023
     36  CD1       64.6310   32.9580  -19.4480 C.3    63  ILE63       0.0001
     37  N         61.1360   37.8260  -19.8890 N.am   64  THR64      -0.1951
     38  CA        61.0790   39.2780  -20.0040 C.3    64  THR64       0.1897
     39  C         62.2120   39.8560  -19.1810 C.2    64  THR64       0.2313
     40  O         62.6450   39.2570  -18.1860 O.2    64  THR64      -0.2863
     41  CB        59.7150   39.8110  -19.5530 C.3    64  THR64       0.1794
     42  OG1       59.4550   39.3860  -18.2170 O.3    64  THR64      -0.2208
     43  CG2       58.6210   39.2910  -20.4710 C.3    64  THR64       0.0378
     44  N         56.9980   42.0750  -11.1840 N.3    73  PHE73      -0.1241
     45  CA        57.1340   40.7940  -11.8940 C.3    73  PHE73       0.1605
     46  C         55.6900   40.3170  -12.0270 C.2    73  PHE73       0.2264
     47  O         55.1010   39.9230  -11.0320 O.2    73  PHE73      -0.2867
     48  CB        58.0150   39.8660  -11.0060 C.3    73  PHE73       0.0534
     49  CG        58.1720   38.4290  -11.4720 C.ar   73  PHE73      -0.0203
     50  CD1       57.7550   37.9880  -12.7280 C.ar   73  PHE73      -0.0042
     51  CD2       58.7870   37.5160  -10.6160 C.ar   73  PHE73      -0.0042
     52  CE1       57.9270   36.6630  -13.1080 C.ar   73  PHE73      -0.0003
     53  CE2       58.9750   36.1920  -10.9940 C.ar   73  PHE73      -0.0003
     54  CZ        58.5490   35.7670  -12.2410 C.ar   73  PHE73      -0.0000
     55  N         51.6530   35.9010  -15.4460 N.3    76  THR76      -0.1203
     56  CA        50.3340   35.7530  -16.0430 C.3    76  THR76       0.1994
     57  C         49.8500   34.3100  -15.9950 C.2    76  THR76       0.2617
     58  O         50.6430   33.3900  -16.0790 O.2    76  THR76      -0.2717
     59  CB        50.2950   36.2400  -17.5050 C.3    76  THR76       0.1784
     60  OG1       51.2040   35.4550  -18.2750 O.3    76  THR76      -0.2211
     61  CG2       50.6930   37.6890  -17.5750 C.3    76  THR76       0.0376
     62  N         48.5330   34.1420  -15.8860 N.am   77  ASP77      -0.1973
     63  CA        47.8710   32.8320  -16.0580 C.3    77  ASP77       0.1709
     64  C         48.2490   31.8370  -14.9480 C.2    77  ASP77       0.2293
     65  O         48.6120   30.6800  -15.2080 O.2    77  ASP77      -0.2864
     66  CB        48.1730   32.2600  -17.4490 C.3    77  ASP77       0.1436
     67  CG        47.9120   33.2840  -18.5500 C.2    77  ASP77       0.3671
     68  OD1       46.7530   33.7190  -18.6320 O.co2  77  ASP77      -0.2456
     69  OD2       48.8680   33.7090  -19.2590 O.co2  77  ASP77      -0.2456
     70  N         46.8990   28.1120  -14.7420 N.3    80  LEU80      -0.1245
     71  CA        47.3630   27.0310  -15.6160 C.3    80  LEU80       0.1561
     72  C         47.6330   25.7840  -14.7650 C.2    80  LEU80       0.2260
     73  O         48.0960   25.9080  -13.6290 O.2    80  LEU80      -0.2867
     74  CB        48.6530   27.4140  -16.3590 C.3    80  LEU80       0.0270
     75  CG        48.5540   28.3120  -17.5910 C.3    80  LEU80       0.0019
     76  CD1       49.8910   28.9720  -17.8780 C.3    80  LEU80       0.0001
     77  CD2       48.0950   27.5260  -18.8100 C.3    80  LEU80       0.0001
     78  N         54.4030   24.6890  -13.4700 N.3    84  VAL84      -0.1231
     79  CA        54.6350   25.8460  -14.3300 C.3    84  VAL84       0.1692
     80  C         55.7750   26.6970  -13.7420 C.2    84  VAL84       0.2592
     81  O         55.8600   26.8600  -12.5180 O.2    84  VAL84      -0.2718
     82  CB        53.3500   26.6820  -14.4680 C.3    84  VAL84       0.0266
     83  CG1       53.5870   27.9170  -15.3410 C.3    84  VAL84       0.0020
     84  CG2       52.2480   25.8350  -15.0600 C.3    84  VAL84       0.0020
     85  N         56.6520   27.2090  -14.6130 N.am   85  ASP85      -0.1960
     86  CA        57.6960   28.1640  -14.2270 C.3    85  ASP85       0.1840
     87  C         57.4190   29.5190  -14.8890 C.2    85  ASP85       0.2622
     88  O         57.0250   29.5800  -16.0610 O.2    85  ASP85      -0.2715
     89  CB        59.0820   27.6830  -14.6770 C.3    85  ASP85       0.1450
     90  CG        59.6690   26.6120  -13.7710 C.2    85  ASP85       0.3671
     91  OD1       60.0270   26.9360  -12.6110 O.co2  85  ASP85      -0.2456
     92  OD2       59.8170   25.4610  -14.2320 O.co2  85  ASP85      -0.2456
     93  N         57.6080   30.6020  -14.1370 N.am   86  TRP86      -0.1960
     94  CA        57.6670   31.9480  -14.6910 C.3    86  TRP86       0.1771
     95  C         59.0670   32.4460  -14.3800 C.2    86  TRP86       0.2619
     96  O         59.5390   32.2730  -13.2610 O.2    86  TRP86      -0.2715
     97  CB        56.6390   32.8610  -14.0210 C.3    86  TRP86       0.0590
     98  CG        55.1950   32.5780  -14.3090 C.ar   86  TRP86       0.0006
     99  CD1       54.4110   33.2480  -15.1770 C.ar   86  TRP86       0.0946
    100  CD2       54.3470   31.6150  -13.6650 C.ar   86  TRP86       0.0152
    101  NE1       53.1270   32.7420  -15.1620 N.ar   86  TRP86      -0.2442
    102  CE2       53.0610   31.7460  -14.2320 C.ar   86  TRP86       0.0810
    103  CE3       54.5530   30.6450  -12.6920 C.ar   86  TRP86       0.0012
    104  CZ2       51.9860   30.9380  -13.8580 C.ar   86  TRP86       0.0191
    105  CZ3       53.4810   29.8480  -12.3140 C.ar   86  TRP86       0.0001
    106  CH2       52.2070   30.0040  -12.9030 C.ar   86  TRP86       0.0015
    107  N         59.7490   33.0220  -15.3730 N.am   87  VAL87      -0.1977
    108  CA        61.1140   33.5320  -15.1810 C.3    87  VAL87       0.1596
    109  C         61.2120   34.9110  -15.8240 C.2    87  VAL87       0.2287
    110  O         60.7040   35.1330  -16.9230 O.2    87  VAL87      -0.2864
    111  CB        62.1810   32.6240  -15.8300 C.3    87  VAL87       0.0276
    112  CG1       63.5860   33.1040  -15.4980 C.3    87  VAL87       0.0022
    113  CG2       62.0000   31.1810  -15.3920 C.3    87  VAL87       0.0022
@<TRIPOS>BOND
     1    28    27    1
     2    23    24    1
     3    24    27    1
     4    24    25    1
     5    25    29   am
     6    25    26    2
     7    29    30    1
     8    32    31    2
     9    31    30    1
    10    31    37   am
    11    43    41    1
    12    22    19    1
    13    30    33    1
    14    20    19    1
    15    20    21    2
    16    19    18    1
    17    33    34    1
    18    33    35    1
    19    38    37    1
    20    38    41    1
    21    38    39    1
    22    34    36    1
    23    41    42    1
    24    69    67   ar
    25    39    40    2
    26    17    16    2
    27    77    75    1
    28    68    67   ar
    29    18    16   am
    30    67    66    1
    31    60    59    1
    32    16    15    1
    33     6     5    1
    34     5     2    1
    35    76    75    1
    36    75    74    1
    37    61    59    1
    38    59    56    1
    39    66    63    1
    40   110   109    2
    41    15    14    1
    42     4     3    2
    43     2     1    1
    44     2     3    1
    45    10     9    2
    46    74    71    1
    47     3     7   am
    48    58    57    2
    49    88    87    2
    50    63    62    1
    51    63    64    1
    52    56    57    1
    53    56    55    1
    54    57    62   am
    55    14     9   am
    56     9     8    1
    57   111   112    1
    58   111   113    1
    59   111   108    1
    60   109   108    1
    61    71    72    1
    62    71    70    1
    63   107   108    1
    64   107    95   am
    65    83    82    1
    66    65    64    2
    67     7     8    1
    68     7    13    1
    69    99   101   ar
    70    99    98   ar
    71   101   102   ar
    72    84    82    1
    73    87    86    1
    74    87    93   am
    75     8    11    1
    76    72    73    2
    77    94    95    1
    78    94    93    1
    79    94    97    1
    80    89    86    1
    81    89    90    1
    82    85    86    1
    83    85    80   am
    84    82    79    1
    85    95    96    2
    86    79    80    1
    87    79    78    1
    88    13    12    1
    89    98    97    1
    90    98   100   ar
    91   102   104   ar
    92   102   100   ar
    93    92    90   ar
    94   104   106   ar
    95    90    91   ar
    96    80    81    2
    97   100   103   ar
    98    12    11    1
    99    52    50   ar
   100    52    54   ar
   101   106   105   ar
   102    50    49   ar
   103   103   105   ar
   104    54    53   ar
   105    46    45    1
   106    46    47    2
   107    45    44    1
   108    45    48    1
   109    49    48    1
   110    49    51   ar
   111    53    51   ar
