@<TRIPOS>MOLECULE
tmp/5h9oA05.pdb
 136 135 0 0 0
SMALL
GASTEIGER

@<TRIPOS>ATOM
      1  N         30.0400   -9.0160  -34.5730 N.3   314  TRP314     -0.1241
      2  CA        29.1960   -8.6630  -35.6850 C.3   314  TRP314      0.1605
      3  C         28.2680   -7.6380  -35.0380 C.2   314  TRP314      0.2264
      4  O         27.3660   -8.0580  -34.3330 O.2   314  TRP314     -0.2867
      5  CB        28.4090   -9.9030  -36.1450 C.3   314  TRP314      0.0550
      6  CG        27.4680   -9.6670  -37.2850 C.ar  314  TRP314      0.0003
      7  CD1       27.3850   -8.5700  -38.0940 C.ar  314  TRP314      0.0946
      8  CD2       26.5150  -10.6090  -37.7770 C.ar  314  TRP314      0.0152
      9  NE1       26.3610   -8.7360  -38.9970 N.ar  314  TRP314     -0.2442
     10  CE2       25.8300   -9.9950  -38.8430 C.ar  314  TRP314      0.0810
     11  CE3       26.1310  -11.9010  -37.3770 C.ar  314  TRP314      0.0012
     12  CZ2       24.7430  -10.5990  -39.4620 C.ar  314  TRP314      0.0191
     13  CZ3       25.0270  -12.4750  -37.9640 C.ar  314  TRP314      0.0001
     14  CH2       24.3960  -11.8620  -39.0460 C.ar  314  TRP314      0.0015
     15  N         33.2710   -7.0720  -39.3230 N.3   342  ASP342     -0.1225
     16  CA        32.3800   -8.0750  -39.9070 C.3   342  ASP342      0.1805
     17  C         31.6100   -7.4420  -41.0680 C.2   342  ASP342      0.2597
     18  O         31.9300   -6.3210  -41.4510 O.2   342  ASP342     -0.2718
     19  CB        31.5080   -8.7000  -38.8160 C.3   342  ASP342      0.1424
     20  CG        31.0770  -10.1250  -39.0640 C.2   342  ASP342      0.3668
     21  OD1       30.7430  -10.4570  -40.2160 O.co2 342  ASP342     -0.2456
     22  OD2       30.9270  -10.8650  -38.0990 O.co2 342  ASP342     -0.2456
     23  N         30.6240   -8.1500  -41.6330 N.am  343  ILE343     -0.1980
     24  CA        29.9580   -7.8180  -42.8910 C.3   343  ILE343      0.1595
     25  C         29.3160   -6.4360  -42.9540 C.2   343  ILE343      0.2287
     26  O         29.1300   -5.9340  -44.0590 O.2   343  ILE343     -0.2864
     27  CB        28.9500   -8.8920  -43.3370 C.3   343  ILE343      0.0276
     28  CG1       27.8420   -9.1520  -42.3010 C.3   343  ILE343      0.0022
     29  CG2       29.6870  -10.2110  -43.6470 C.3   343  ILE343      0.0022
     30  CD1       26.8150  -10.1660  -42.7370 C.3   343  ILE343      0.0001
     31  N         36.3450   -8.6610  -43.1690 N.3   379  ILE379     -0.1245
     32  CA        35.7340   -9.8620  -43.7620 C.3   379  ILE379      0.1561
     33  C         35.5740   -9.7020  -45.2940 C.2   379  ILE379      0.2260
     34  O         35.2230   -8.6180  -45.7860 O.2   379  ILE379     -0.2867
     35  CB        34.3830  -10.1930  -43.0740 C.3   379  ILE379      0.0252
     36  CG1       33.9400  -11.6250  -43.3850 C.3   379  ILE379      0.0019
     37  CG2       33.2870   -9.1760  -43.4270 C.3   379  ILE379      0.0019
     38  CD1       32.8500  -12.1230  -42.5070 C.3   379  ILE379      0.0001
     39  N         24.2030  -13.1880  -47.8180 N.3   416  TRP416     -0.1241
     40  CA        24.1150  -11.8730  -47.1210 C.3   416  TRP416      0.1605
     41  C         23.7250  -10.6750  -47.9780 C.2   416  TRP416      0.2264
     42  O         22.9230   -9.8510  -47.5160 O.2   416  TRP416     -0.2867
     43  CB        25.4100  -11.5030  -46.3730 C.3   416  TRP416      0.0550
     44  CG        25.8760  -12.4920  -45.3410 C.ar  416  TRP416      0.0003
     45  CD1       27.1250  -13.0150  -45.2350 C.ar  416  TRP416      0.0946
     46  CD2       25.1270  -13.0220  -44.2450 C.ar  416  TRP416      0.0152
     47  NE1       27.2050  -13.8250  -44.1340 N.ar  416  TRP416     -0.2442
     48  CE2       25.9890  -13.8620  -43.5200 C.ar  416  TRP416      0.0810
     49  CE3       23.7980  -12.8710  -43.7990 C.ar  416  TRP416      0.0012
     50  CZ2       25.5840  -14.5220  -42.3650 C.ar  416  TRP416      0.0191
     51  CZ3       23.3940  -13.5460  -42.6620 C.ar  416  TRP416      0.0001
     52  CH2       24.2960  -14.3190  -41.9320 C.ar  416  TRP416      0.0015
     53  N         39.5470  -12.0430  -43.3770 N.3   453  TRP453     -0.1241
     54  CA        38.7620  -13.1400  -42.8530 C.3   453  TRP453      0.1605
     55  C         37.8380  -13.6490  -43.9820 C.2   453  TRP453      0.2264
     56  O         37.0760  -12.8630  -44.5280 O.2   453  TRP453     -0.2867
     57  CB        37.9570  -12.6040  -41.6610 C.3   453  TRP453      0.0550
     58  CG        36.8810  -13.4960  -41.1380 C.ar  453  TRP453      0.0003
     59  CD1       36.8190  -14.8560  -41.2230 C.ar  453  TRP453      0.0946
     60  CD2       35.7930  -13.0930  -40.2980 C.ar  453  TRP453      0.0152
     61  NE1       35.7610  -15.3260  -40.4960 N.ar  453  TRP453     -0.2442
     62  CE2       35.0800  -14.2580  -39.9610 C.ar  453  TRP453      0.0810
     63  CE3       35.3730  -11.8610  -39.7750 C.ar  453  TRP453      0.0012
     64  CZ2       33.9650  -14.2280  -39.1470 C.ar  453  TRP453      0.0191
     65  CZ3       34.2690  -11.8370  -38.9500 C.ar  453  TRP453      0.0001
     66  CH2       33.5460  -13.0010  -38.6910 C.ar  453  TRP453      0.0015
     67  N         34.8320  -16.0720  -44.6460 N.3   455  ASP455     -0.1225
     68  CA        33.7530  -16.7930  -44.0170 C.3   455  ASP455      0.1805
     69  C         32.8210  -17.3130  -45.1100 C.2   455  ASP455      0.2597
     70  O         32.9470  -16.9270  -46.2700 O.2   455  ASP455     -0.2718
     71  CB        33.0030  -15.8400  -43.0790 C.3   455  ASP455      0.1424
     72  CG        31.9950  -16.4560  -42.1670 C.2   455  ASP455      0.3668
     73  OD1       32.0430  -17.6800  -41.9680 O.co2 455  ASP455     -0.2456
     74  OD2       31.1210  -15.7390  -41.7300 O.co2 455  ASP455     -0.2456
     75  N         31.9110  -18.2060  -44.7530 N.am  456  MET456     -0.1979
     76  CA        30.8480  -18.6870  -45.6430 C.3   456  MET456      0.1605
     77  C         31.4010  -19.3980  -46.8800 C.2   456  MET456      0.2287
     78  O         30.7370  -19.4200  -47.9190 O.2   456  MET456     -0.2864
     79  CB        29.9780  -17.4800  -46.1140 C.3   456  MET456      0.0413
     80  CG        29.5300  -16.5220  -45.0240 C.3   456  MET456      0.0598
     81  SD        28.4900  -17.2960  -43.8000 S.3   456  MET456     -0.1393
     82  CE        27.0480  -17.3730  -44.5990 C.3   456  MET456      0.0692
     83  N         36.7500  -20.3360  -42.5580 N.3   515  ARG515     -0.1245
     84  CA        35.8060  -21.2100  -41.8780 C.3   515  ARG515      0.1563
     85  C         35.8810  -22.6090  -42.4290 C.2   515  ARG515      0.2260
     86  O         35.9780  -23.5580  -41.6600 O.2   515  ARG515     -0.2867
     87  CB        34.3760  -20.6670  -41.9730 C.3   515  ARG515      0.0307
     88  CG        33.5000  -21.3130  -40.9020 C.3   515  ARG515      0.0489
     89  CD        32.1670  -20.6420  -40.6780 C.3   515  ARG515      0.2205
     90  NE        31.3100  -20.7840  -41.8520 N.pl3 515  ARG515     -0.0865
     91  CZ        30.0600  -20.3540  -41.9360 C.cat 515  ARG515      0.5346
     92  NH1       29.5070  -19.6930  -40.9310 N.pl3 515  ARG515      0.1354
     93  NH2       29.3590  -20.5680  -43.0280 N.pl3 515  ARG515      0.1354
     94  N         38.8280  -21.6370  -37.5590 N.3   528  TRP528     -0.1241
     95  CA        38.1250  -21.6180  -36.2800 C.3   528  TRP528      0.1605
     96  C         36.9010  -22.4850  -36.3890 C.2   528  TRP528      0.2264
     97  O         36.5310  -22.8870  -37.4940 O.2   528  TRP528     -0.2867
     98  CB        37.8550  -20.2090  -35.7560 C.3   528  TRP528      0.0550
     99  CG        36.5330  -19.6300  -36.0900 C.ar  528  TRP528      0.0003
    100  CD1       35.5020  -19.4090  -35.2280 C.ar  528  TRP528      0.0946
    101  CD2       36.0660  -19.2160  -37.3850 C.ar  528  TRP528      0.0152
    102  NE1       34.4120  -18.8970  -35.9050 N.ar  528  TRP528     -0.2442
    103  CE2       34.7440  -18.7200  -37.2120 C.ar  528  TRP528      0.0810
    104  CE3       36.6440  -19.1680  -38.6610 C.ar  528  TRP528      0.0012
    105  CZ2       33.9920  -18.2290  -38.2590 C.ar  528  TRP528      0.0191
    106  CZ3       35.8920  -18.6410  -39.6950 C.ar  528  TRP528      0.0001
    107  CH2       34.5800  -18.1850  -39.4870 C.ar  528  TRP528      0.0015
    108  N         30.3290  -21.0450  -35.7540 N.3   531  ASP531     -0.1239
    109  CA        29.2920  -20.4180  -34.9580 C.3   531  ASP531      0.1674
    110  C         28.8760  -21.2820  -33.7830 C.2   531  ASP531      0.2266
    111  O         27.8800  -22.0220  -33.8050 O.2   531  ASP531     -0.2867
    112  CB        28.1180  -20.0040  -35.8270 C.3   531  ASP531      0.1410
    113  CG        28.4490  -19.0360  -36.9290 C.2   531  ASP531      0.3668
    114  OD1       29.5110  -18.3860  -36.8450 O.co2 531  ASP531     -0.2456
    115  OD2       27.6510  -18.9470  -37.8970 O.co2 531  ASP531     -0.2456
    116  N         29.6420  -17.5910  -29.9680 N.3   564  PHE564     -0.1241
    117  CA        29.0650  -16.6860  -30.9850 C.3   564  PHE564      0.1605
    118  C         27.6160  -16.3350  -30.6780 C.2   564  PHE564      0.2264
    119  O         27.2770  -15.1560  -30.5360 O.2   564  PHE564     -0.2867
    120  CB        29.1990  -17.3280  -32.3680 C.3   564  PHE564      0.0534
    121  CG        28.5880  -16.5300  -33.4780 C.ar  564  PHE564     -0.0203
    122  CD1       29.1390  -15.3180  -33.8610 C.ar  564  PHE564     -0.0042
    123  CD2       27.5040  -17.0180  -34.1850 C.ar  564  PHE564     -0.0042
    124  CE1       28.6290  -14.6190  -34.9280 C.ar  564  PHE564     -0.0003
    125  CE2       27.0340  -16.3450  -35.2920 C.ar  564  PHE564     -0.0003
    126  CZ        27.5700  -15.1310  -35.6290 C.ar  564  PHE564     -0.0000
    127  N         34.4920  -13.1780  -30.3580 N.3   589  HIS589     -0.1241
    128  CA        33.5550  -12.8290  -31.4200 C.3   589  HIS589      0.1621
    129  C         32.1320  -13.1200  -30.9300 C.2   589  HIS589      0.2264
    130  O         31.9400  -13.8920  -30.0010 O.2   589  HIS589     -0.2867
    131  CB        33.9150  -13.6060  -32.6960 C.3   589  HIS589      0.0745
    132  CG        33.0920  -13.2250  -33.8870 C.ar  589  HIS589      0.0817
    133  ND1       33.0130  -11.9170  -34.3220 N.ar  589  HIS589     -0.2268
    134  CD2       32.2530  -13.9800  -34.6240 C.ar  589  HIS589      0.1154
    135  CE1       32.1940  -11.9300  -35.3540 C.ar  589  HIS589      0.1986
    136  NE2       31.7220  -13.1520  -35.5780 N.ar  589  HIS589     -0.2212
@<TRIPOS>BOND
     1    41    42    2
     2    41    40    1
     3    78    77    2
     4    39    40    1
     5    40    43    1
     6    77    76    1
     7    43    44    1
     8    70    69    2
     9    79    76    1
    10    79    80    1
    11    34    33    2
    12    76    75    1
    13    44    45   ar
    14    44    46   ar
    15    33    32    1
    16    45    47   ar
    17    69    75   am
    18    69    68    1
    19    80    81    1
    20    67    68    1
    21    82    81    1
    22    56    55    2
    23    46    49   ar
    24    46    48   ar
    25    47    48   ar
    26    26    25    2
    27    68    71    1
    28    55    54    1
    29    49    51   ar
    30    32    31    1
    31    32    35    1
    32    29    27    1
    33    48    50   ar
    34    37    35    1
    35    36    35    1
    36    36    38    1
    37    53    54    1
    38    27    24    1
    39    27    28    1
    40    71    72    1
    41    93    91    1
    42    25    24    1
    43    24    23    1
    44    54    57    1
    45    30    28    1
    46    51    52   ar
    47    83    84    1
    48    85    84    1
    49    85    86    2
    50    50    52   ar
    51    72    73   ar
    52    72    74   ar
    53    87    84    1
    54    87    88    1
    55    91    90    2
    56    91    92    1
    57    90    89    1
    58    57    58    1
    59    23    17   am
    60    18    17    2
    61    59    58   ar
    62    59    61   ar
    63    58    60   ar
    64    17    16    1
    65    88    89    1
    66    61    62   ar
    67    60    62   ar
    68    60    63   ar
    69    21    20   ar
    70    62    64   ar
    71    16    15    1
    72    16    19    1
    73    63    65   ar
    74   106   107   ar
    75   106   104   ar
    76   107   105   ar
    77    12    14   ar
    78    12    10   ar
    79    64    66   ar
    80    20    19    1
    81    20    22   ar
    82    14    13   ar
    83     9    10   ar
    84     9     7   ar
    85    65    66   ar
    86    10     8   ar
    87   104   101   ar
    88   105   103   ar
    89     7     6   ar
    90    13    11   ar
    91   115   113   ar
    92     8    11   ar
    93     8     6   ar
    94    94    95    1
    95    97    96    2
    96   101   103   ar
    97   101    99   ar
    98     6     5    1
    99   103   102   ar
   100   113   114   ar
   101   113   112    1
   102    96    95    1
   103    95    98    1
   104     5     2    1
   105    99    98    1
   106    99   100   ar
   107   102   100   ar
   108   112   109    1
   109   108   109    1
   110     2     3    1
   111     2     1    1
   112   126   125   ar
   113   126   124   ar
   114   136   135   ar
   115   136   134   ar
   116   135   133   ar
   117   125   123   ar
   118     3     4    2
   119   109   110    1
   120   124   122   ar
   121   134   132   ar
   122   133   132   ar
   123   123   121   ar
   124   132   131    1
   125   122   121   ar
   126   111   110    2
   127   121   120    1
   128   131   128    1
   129   120   117    1
   130   128   129    1
   131   128   127    1
   132   117   118    1
   133   117   116    1
   134   129   130    2
   135   118   119    2
