@<TRIPOS>MOLECULE
tmp/5h9qB00.pdb
 112 104 0 0 0
SMALL
GASTEIGER

@<TRIPOS>ATOM
      1  N         25.6950  -17.2670   27.4200 N.3    28  ARG28      -0.1245
      2  CA        24.4170  -17.9480   27.5640 C.3    28  ARG28       0.1563
      3  C         23.2830  -16.9320   27.6630 C.2    28  ARG28       0.2260
      4  O         23.5070  -15.7740   28.0090 O.2    28  ARG28      -0.2867
      5  CB        24.4120  -18.8370   28.8120 C.3    28  ARG28       0.0307
      6  CG        25.3920  -19.9940   28.7710 C.3    28  ARG28       0.0489
      7  CD        25.6590  -20.5960   30.1420 C.3    28  ARG28       0.2205
      8  NE        26.7520  -21.5620   30.0560 N.pl3  28  ARG28      -0.0865
      9  CZ        27.1310  -22.3670   31.0410 C.cat  28  ARG28       0.5346
     10  NH1       26.5050  -22.3350   32.2110 N.pl3  28  ARG28       0.1354
     11  NH2       28.1380  -23.2090   30.8510 N.pl3  28  ARG28       0.1354
     12  N         18.6820  -16.9440   28.5680 N.3    30  HIS30      -0.1241
     13  CA        17.6030  -17.8200   28.9760 C.3    30  HIS30       0.1621
     14  C         16.2440  -17.1650   28.8390 C.2    30  HIS30       0.2264
     15  O         16.1090  -15.9420   28.8550 O.2    30  HIS30      -0.2867
     16  CB        17.8100  -18.2910   30.4190 C.3    30  HIS30       0.0745
     17  CG        17.9610  -17.1750   31.4000 C.ar   30  HIS30       0.0817
     18  ND1       19.1910  -16.6770   31.7810 N.ar   30  HIS30      -0.2268
     19  CD2       17.0390  -16.4490   32.0760 C.ar   30  HIS30       0.1154
     20  CE1       19.0180  -15.7000   32.6510 C.ar   30  HIS30       0.1986
     21  NE2       17.7190  -15.5370   32.8440 N.ar   30  HIS30      -0.2212
     22  N         12.4710  -23.3130   32.0510 N.3    46  HIS46      -0.1241
     23  CA        13.7390  -22.6120   31.9120 C.3    46  HIS46       0.1621
     24  C         14.4040  -23.1000   30.6250 C.2    46  HIS46       0.2264
     25  O         14.7860  -24.2660   30.5220 O.2    46  HIS46      -0.2867
     26  CB        14.6230  -22.8590   33.1420 C.3    46  HIS46       0.0745
     27  CG        15.9950  -22.2660   33.0470 C.ar   46  HIS46       0.0817
     28  ND1       16.2410  -20.9220   33.2290 N.ar   46  HIS46      -0.2268
     29  CD2       17.1990  -22.8420   32.8220 C.ar   46  HIS46       0.1154
     30  CE1       17.5370  -20.6930   33.1060 C.ar   46  HIS46       0.1986
     31  NE2       18.1420  -21.8420   32.8630 N.ar   46  HIS46      -0.2212
     32  N         17.4500  -22.5840   28.1190 N.3    48  ASN48      -0.1240
     33  CA        18.7750  -22.0170   28.3160 C.3    48  ASN48       0.1653
     34  C         19.7870  -22.4380   27.2500 C.2    48  ASN48       0.2266
     35  O         20.4980  -23.4280   27.4220 O.2    48  ASN48      -0.2867
     36  CB        19.2670  -22.4090   29.7170 C.3    48  ASN48       0.1155
     37  CG        20.5920  -21.7780   30.0890 C.2    48  ASN48       0.2627
     38  OD1       21.3110  -22.3030   30.9390 O.2    48  ASN48      -0.2716
     39  ND2       20.9160  -20.6440   29.4790 N.am   48  ASN48      -0.0877
     40  N         23.2240  -22.3810   25.5570 N.3    50  ARG50      -0.1245
     41  CA        24.5670  -22.1260   26.0520 C.3    50  ARG50       0.1563
     42  C         25.5500  -22.1400   24.8900 C.2    50  ARG50       0.2260
     43  O         25.9170  -23.1970   24.3840 O.2    50  ARG50      -0.2867
     44  CB        24.9530  -23.1580   27.1200 C.3    50  ARG50       0.0307
     45  CG        23.9540  -23.2220   28.2780 C.3    50  ARG50       0.0489
     46  CD        24.4250  -24.0930   29.4440 C.3    50  ARG50       0.2205
     47  NE        23.4220  -24.1100   30.5070 N.pl3  50  ARG50      -0.0865
     48  CZ        23.5140  -24.8150   31.6320 C.cat  50  ARG50       0.5346
     49  NH1       24.5720  -25.5800   31.8630 N.pl3  50  ARG50       0.1354
     50  NH2       22.5370  -24.7580   32.5270 N.pl3  50  ARG50       0.1354
     51  N         25.4770  -26.1110   23.8050 N.3    55  GLU55      -0.1245
     52  CA        24.4150  -26.9930   24.2670 C.3    55  GLU55       0.1567
     53  C         23.1560  -26.1950   24.5810 C.2    55  GLU55       0.2260
     54  O         23.1770  -24.9660   24.5830 O.2    55  GLU55      -0.2867
     55  CB        24.8680  -27.7720   25.5050 C.3    55  GLU55       0.0388
     56  CG        25.2780  -26.8800   26.6690 C.3    55  GLU55       0.1160
     57  CD        26.0520  -27.6300   27.7360 C.2    55  GLU55       0.3649
     58  OE1       26.0160  -28.8780   27.7300 O.co2  55  GLU55      -0.2457
     59  OE2       26.6990  -26.9690   28.5790 O.co2  55  GLU55      -0.2457
     60  N         20.0340  -26.3070   27.6220 N.3    57  VAL57      -0.1245
     61  CA        19.4910  -26.9360   28.8110 C.3    57  VAL57       0.1561
     62  C         18.0470  -26.5010   29.0290 C.2    57  VAL57       0.2260
     63  O         17.7250  -25.3160   28.9410 O.2    57  VAL57      -0.2867
     64  CB        20.3320  -26.6030   30.0640 C.3    57  VAL57       0.0252
     65  CG1       19.5870  -26.9910   31.3430 C.3    57  VAL57       0.0019
     66  CG2       21.6850  -27.2970   29.9860 C.3    57  VAL57       0.0019
     67  N         15.0090  -26.9190   32.0000 N.3    59  ASN59      -0.1240
     68  CA        14.7900  -27.3310   33.3850 C.3    59  ASN59       0.1653
     69  C         13.6400  -26.5660   34.0160 C.2    59  ASN59       0.2266
     70  O         13.0860  -25.6440   33.4160 O.2    59  ASN59      -0.2867
     71  CB        16.0650  -27.1380   34.2180 C.3    59  ASN59       0.1155
     72  CG        16.1900  -28.1530   35.3550 C.2    59  ASN59       0.2627
     73  OD1       15.2100  -28.7820   35.7630 O.2    59  ASN59      -0.2716
     74  ND2       17.4020  -28.3120   35.8680 N.am   59  ASN59      -0.0877
     75  N         16.5680  -26.4990   41.3870 N.3    66  TRP66      -0.1241
     76  CA        16.4250  -26.9400   40.0040 C.3    66  TRP66       0.1605
     77  C         16.0820  -28.4200   39.9190 C.2    66  TRP66       0.2264
     78  O         16.4640  -29.2040   40.7830 O.2    66  TRP66      -0.2867
     79  CB        17.7070  -26.6520   39.2180 C.3    66  TRP66       0.0550
     80  CG        17.9420  -25.1930   39.0170 C.ar   66  TRP66       0.0003
     81  CD1       18.8590  -24.4120   39.6550 C.ar   66  TRP66       0.0946
     82  CD2       17.2300  -24.3280   38.1220 C.ar   66  TRP66       0.0152
     83  NE1       18.7660  -23.1140   39.2110 N.ar   66  TRP66      -0.2442
     84  CE2       17.7720  -23.0370   38.2690 C.ar   66  TRP66       0.0810
     85  CE3       16.1860  -24.5230   37.2090 C.ar   66  TRP66       0.0012
     86  CZ2       17.3100  -21.9440   37.5370 C.ar   66  TRP66       0.0191
     87  CZ3       15.7260  -23.4370   36.4840 C.ar   66  TRP66       0.0001
     88  CH2       16.2890  -22.1650   36.6520 C.ar   66  TRP66       0.0015
     89  N         17.7160  -31.9410   34.5680 N.3    69  GLU69      -0.1245
     90  CA        18.0320  -31.2540   33.3190 C.3    69  GLU69       0.1567
     91  C         17.6810  -32.0910   32.0980 C.2    69  GLU69       0.2260
     92  O         18.0500  -33.2610   32.0090 O.2    69  GLU69      -0.2867
     93  CB        19.5150  -30.8810   33.2540 C.3    69  GLU69       0.0388
     94  CG        19.9410  -29.7810   34.2070 C.3    69  GLU69       0.1160
     95  CD        21.3260  -29.2530   33.8940 C.2    69  GLU69       0.3649
     96  OE1       22.1350  -29.9980   33.2980 O.co2  69  GLU69      -0.2457
     97  OE2       21.6070  -28.0870   34.2380 O.co2  69  GLU69      -0.2457
     98  N         18.9060  -31.9520   28.6620 N.3    71  ARG71      -0.1245
     99  CA        19.9880  -31.2880   27.9550 C.3    71  ARG71       0.1563
    100  C         20.4920  -32.1000   26.7780 C.2    71  ARG71       0.2260
    101  O         20.2310  -33.2990   26.6710 O.2    71  ARG71      -0.2867
    102  CB        21.1480  -31.0110   28.9090 C.3    71  ARG71       0.0307
    103  CG        21.6480  -32.2500   29.6290 C.3    71  ARG71       0.0489
    104  CD        23.0930  -32.0880   30.0680 C.3    71  ARG71       0.2205
    105  NE        23.2880  -30.9510   30.9630 N.pl3  71  ARG71      -0.0865
    106  CZ        24.1750  -29.9840   30.7550 C.cat  71  ARG71       0.5346
    107  NH1       24.9490  -30.0120   29.6810 N.pl3  71  ARG71       0.1354
    108  NH2       24.2900  -28.9890   31.6230 N.pl3  71  ARG71       0.1354
    109  N         20.2350  -12.9840   30.6170 N.3   122  GLY122     -0.1225
    110  CA        21.5070  -13.4600   30.1080 C.3   122  GLY122      0.1811
    111  C         22.0140  -12.6180   28.9510 C.2   122  GLY122      0.2280
    112  O         21.6500  -11.4520   28.8180 O.2   122  GLY122     -0.2866
@<TRIPOS>BOND
     1    51    52    1
     2    52    53    1
     3    52    55    1
     4    43    42    2
     5    53    54    2
     6    42    41    1
     7    55    56    1
     8    40    41    1
     9    41    44    1
    10    56    57    1
    11   101   100    2
    12   100    99    1
    13    44    45    1
    14    34    35    2
    15    34    33    1
    16     1     2    1
    17     2     3    1
    18     2     5    1
    19    60    61    1
    20     3     4    2
    21    58    57   ar
    22    57    59   ar
    23    99    98    1
    24    99   102    1
    25    32    33    1
    26    45    46    1
    27    33    36    1
    28    12    13    1
    29     6     5    1
    30     6     7    1
    31    61    62    1
    32    61    64    1
    33   112   111    2
    34    14    15    2
    35    14    13    1
    36   102   103    1
    37    63    62    2
    38   111   110    1
    39    13    16    1
    40    46    47    1
    41    39    37   am
    42   103   104    1
    43   107   106    1
    44    36    37    1
    45    66    64    1
    46     8     7    1
    47     8     9    2
    48    64    65    1
    49   104   105    1
    50    37    38    2
    51   110   109    1
    52    16    17    1
    53    47    48    2
    54    25    24    2
    55    24    23    1
    56   106   105    2
    57   106   108    1
    58    11     9    1
    59     9    10    1
    60    17    18   ar
    61    17    19   ar
    62    48    49    1
    63    48    50    1
    64    18    20   ar
    65    23    22    1
    66    23    26    1
    67    67    68    1
    68    92    91    2
    69    19    21   ar
    70    91    90    1
    71    20    21   ar
    72    29    31   ar
    73    29    27   ar
    74    31    30   ar
    75    27    26    1
    76    27    28   ar
    77    30    28   ar
    78    93    90    1
    79    93    94    1
    80    96    95   ar
    81    90    89    1
    82    68    69    1
    83    68    71    1
    84    70    69    2
    85    95    94    1
    86    95    97   ar
    87    71    72    1
    88    72    73    2
    89    72    74   am
    90    87    88   ar
    91    87    85   ar
    92    88    86   ar
    93    85    82   ar
    94    86    84   ar
    95    82    84   ar
    96    82    80   ar
    97    84    83   ar
    98    80    79    1
    99    80    81   ar
   100    83    81   ar
   101    79    76    1
   102    77    76    1
   103    77    78    2
   104    76    75    1
