@<TRIPOS>MOLECULE
tmp/5h9rA00.pdb
 129 120 0 0 0
SMALL
GASTEIGER

@<TRIPOS>ATOM
      1  N          5.9980  -12.5070   -7.3380 N.3    32  ARG32      -0.1231
      2  CA         5.5780  -11.1830   -6.9090 C.3    32  ARG32       0.1694
      3  C          6.7190  -10.1800   -6.8930 C.2    32  ARG32       0.2592
      4  O          7.8870  -10.5490   -6.7770 O.2    32  ARG32      -0.2718
      5  CB         4.9370  -11.2680   -5.5200 C.3    32  ARG32       0.0321
      6  CG         5.8510  -11.7990   -4.4360 C.3    32  ARG32       0.0489
      7  CD         5.0400  -12.0050   -3.1710 C.3    32  ARG32       0.2205
      8  NE         5.8550  -12.3710   -2.0210 N.pl3  32  ARG32      -0.0865
      9  CZ         5.3890  -12.4100   -0.7750 C.cat  32  ARG32       0.5346
     10  NH1        4.1200  -12.0970   -0.5310 N.pl3  32  ARG32       0.1354
     11  NH2        6.1900  -12.7520    0.2240 N.pl3  32  ARG32       0.1354
     12  N          6.3540   -8.9110   -7.0370 N.am   33  ILE33      -0.1966
     13  CA         7.2650   -7.7690   -6.9050 C.3    33  ILE33       0.1727
     14  C          6.5730   -6.7740   -5.9870 C.2    33  ILE33       0.2616
     15  O          5.3490   -6.7340   -5.9580 O.2    33  ILE33      -0.2715
     16  CB         7.5500   -7.1110   -8.2650 C.3    33  ILE33       0.0290
     17  CG1        8.0680   -8.1420   -9.2720 C.3    33  ILE33       0.0022
     18  CG2        8.5130   -5.9080   -8.1270 C.3    33  ILE33       0.0023
     19  CD1        8.0260   -7.6270  -10.7000 C.3    33  ILE33       0.0001
     20  N          7.3290   -5.9770   -5.2310 N.am   34  ALA34      -0.1977
     21  CA         6.7060   -4.9080   -4.4550 C.3    34  ALA34       0.1597
     22  C          7.5790   -3.6690   -4.3620 C.2    34  ALA34       0.2287
     23  O          8.7890   -3.7610   -4.1550 O.2    34  ALA34      -0.2864
     24  CB         6.3490   -5.4060   -3.0430 C.3    34  ALA34       0.0319
     25  N          7.4990   -0.1880   -2.0410 N.3    36  ASP36      -0.1239
     26  CA         6.8770    0.3350   -0.8330 C.3    36  ASP36       0.1674
     27  C          7.4100    1.7260   -0.4950 C.2    36  ASP36       0.2266
     28  O          8.5370    1.8760   -0.0210 O.2    36  ASP36      -0.2867
     29  CB         7.1120   -0.6260    0.3400 C.3    36  ASP36       0.1410
     30  CG         6.3430   -1.9200    0.1900 C.2    36  ASP36       0.3668
     31  OD1        5.1060   -1.8720    0.3340 O.co2  36  ASP36      -0.2456
     32  OD2        6.9650   -2.9790   -0.0650 O.co2  36  ASP36      -0.2456
     33  N          1.9570    1.0640   -1.6080 N.3    46  HIS46      -0.1241
     34  CA         2.4000   -0.3060   -1.8420 C.3    46  HIS46       0.1621
     35  C          1.9690   -0.6470   -3.2480 C.2    46  HIS46       0.2264
     36  O          0.7850   -0.5870   -3.5390 O.2    46  HIS46      -0.2867
     37  CB         1.7300   -1.2230   -0.8090 C.3    46  HIS46       0.0745
     38  CG         2.0040   -2.6910   -0.9570 C.ar   46  HIS46       0.0817
     39  ND1        3.2290   -3.2610   -0.6890 N.ar   46  HIS46      -0.2268
     40  CD2        1.1690   -3.7150   -1.2530 C.ar   46  HIS46       0.1154
     41  CE1        3.1450   -4.5740   -0.8470 C.ar   46  HIS46       0.1986
     42  NE2        1.9030   -4.8750   -1.1710 N.ar   46  HIS46      -0.2212
     43  N          2.2120   -3.6420   -5.9240 N.3    48  ASN48      -0.1240
     44  CA         2.4800   -5.0770   -5.7590 C.3    48  ASN48       0.1653
     45  C          1.9730   -5.9430   -6.9070 C.2    48  ASN48       0.2266
     46  O          0.8760   -6.4990   -6.8310 O.2    48  ASN48      -0.2867
     47  CB         1.8510   -5.5260   -4.4220 C.3    48  ASN48       0.1155
     48  CG         1.9990   -7.0300   -4.1330 C.2    48  ASN48       0.2627
     49  OD1        1.1210   -7.6240   -3.4940 O.2    48  ASN48      -0.2716
     50  ND2        3.0970   -7.6360   -4.5710 N.am   48  ASN48      -0.0877
     51  N          1.3880   -9.1520   -8.7750 N.3    50  ARG50      -0.1245
     52  CA         1.2490  -10.5600   -8.4020 C.3    50  ARG50       0.1563
     53  C          1.1210  -11.3900   -9.6670 C.2    50  ARG50       0.2260
     54  O          0.2240  -11.1510  -10.4710 O.2    50  ARG50      -0.2867
     55  CB         0.0270  -10.7550   -7.5060 C.3    50  ARG50       0.0307
     56  CG         0.1330   -9.9730   -6.1970 C.3    50  ARG50       0.0489
     57  CD        -1.1130  -10.1210   -5.3410 C.3    50  ARG50       0.2205
     58  NE        -1.0150   -9.2820   -4.1510 N.pl3  50  ARG50      -0.0865
     59  CZ        -1.8910   -9.2690   -3.1570 C.cat  50  ARG50       0.5346
     60  NH1       -2.9590  -10.0610   -3.2000 N.pl3  50  ARG50       0.1354
     61  NH2       -1.7010   -8.4510   -2.1250 N.pl3  50  ARG50       0.1354
     62  N         -2.0280  -14.9310   -8.6730 N.3    53  GLU53      -0.1245
     63  CA        -3.0980  -14.8690   -7.7000 C.3    53  GLU53       0.1567
     64  C         -4.3080  -15.5720   -8.2900 C.2    53  GLU53       0.2260
     65  O         -4.9650  -15.0400   -9.1830 O.2    53  GLU53      -0.2867
     66  CB        -3.4340  -13.4290   -7.3330 C.3    53  GLU53       0.0388
     67  CG        -4.2280  -13.3340   -6.0410 C.3    53  GLU53       0.1160
     68  CD        -4.8580  -11.9800   -5.8480 C.2    53  GLU53       0.3649
     69  OE1       -5.5140  -11.4910   -6.7900 O.co2  53  GLU53      -0.2457
     70  OE2       -4.7030  -11.4080   -4.7530 O.co2  53  GLU53      -0.2457
     71  N         -1.7520   -5.1440   -7.2700 N.3    60  VAL60      -0.1245
     72  CA        -2.4650   -4.7100   -6.0790 C.3    60  VAL60       0.1561
     73  C         -1.7690   -3.4910   -5.4930 C.2    60  VAL60       0.2260
     74  O         -0.5580   -3.5140   -5.2820 O.2    60  VAL60      -0.2867
     75  CB        -2.5300   -5.8140   -5.0210 C.3    60  VAL60       0.0252
     76  CG1       -3.2110   -5.2880   -3.7700 C.3    60  VAL60       0.0019
     77  CG2       -3.2790   -7.0240   -5.5790 C.3    60  VAL60       0.0019
     78  N         -2.0170   -0.4970   -2.3030 N.3    62  ASN62      -0.1240
     79  CA        -2.6410   -0.2670   -1.0090 C.3    62  ASN62       0.1653
     80  C         -1.7730    0.6200   -0.1270 C.2    62  ASN62       0.2266
     81  O         -0.6740    1.0130   -0.5100 O.2    62  ASN62      -0.2867
     82  CB        -2.9200   -1.6080   -0.3220 C.3    62  ASN62       0.1155
     83  CG        -4.0990   -1.5560    0.6530 C.2    62  ASN62       0.2627
     84  OD1       -4.6010   -0.4880    1.0050 O.2    62  ASN62      -0.2716
     85  ND2       -4.5460   -2.7300    1.0890 N.am   62  ASN62      -0.0877
     86  N         -3.5240   -2.9590    6.7420 N.3    69  TRP69      -0.1241
     87  CA        -3.7630   -2.6370    5.3350 C.3    69  TRP69       0.1605
     88  C         -5.1590   -2.0550    5.1280 C.2    69  TRP69       0.2264
     89  O         -6.1170   -2.4350    5.8100 O.2    69  TRP69      -0.2867
     90  CB        -3.5700   -3.8740    4.4480 C.3    69  TRP69       0.0550
     91  CG        -2.1490   -4.3050    4.3380 C.ar   69  TRP69       0.0003
     92  CD1       -1.5700   -5.3790    4.9430 C.ar   69  TRP69       0.0946
     93  CD2       -1.1080   -3.6490    3.6010 C.ar   69  TRP69       0.0152
     94  NE1       -0.2340   -5.4440    4.6230 N.ar   69  TRP69      -0.2442
     95  CE2        0.0740   -4.3910    3.7980 C.ar   69  TRP69       0.0810
     96  CE3       -1.0630   -2.5090    2.7890 C.ar   69  TRP69       0.0012
     97  CZ2        1.2910   -4.0340    3.2160 C.ar   69  TRP69       0.0191
     98  CZ3        0.1550   -2.1480    2.2140 C.ar   69  TRP69       0.0001
     99  CH2        1.3120   -2.9110    2.4290 C.ar   69  TRP69       0.0015
    100  N         -7.8520   -2.2610   -0.9630 N.3    72  GLU72      -0.1245
    101  CA        -7.0000   -2.4630   -2.1200 C.3    72  GLU72       0.1567
    102  C         -7.5410   -1.7800   -3.3620 C.2    72  GLU72       0.2260
    103  O         -8.7450   -1.6770   -3.5550 O.2    72  GLU72      -0.2867
    104  CB        -6.8290   -3.9560   -2.4070 C.3    72  GLU72       0.0388
    105  CG        -6.0310   -4.6810   -1.3460 C.3    72  GLU72       0.1160
    106  CD        -5.8680   -6.1570   -1.6340 C.2    72  GLU72       0.3649
    107  OE1       -6.5460   -6.6710   -2.5570 O.co2  72  GLU72      -0.2457
    108  OE2       -5.0520   -6.8010   -0.9380 O.co2  72  GLU72      -0.2457
    109  N         -7.0490   -2.4270   -7.3760 N.3    74  ARG74      -0.1245
    110  CA        -6.4970   -3.4530   -8.2490 C.3    74  ARG74       0.1563
    111  C         -6.4840   -3.0240   -9.7050 C.2    74  ARG74       0.2260
    112  O         -7.4100   -2.3740  -10.1930 O.2    74  ARG74      -0.2867
    113  CB        -7.2730   -4.7520   -8.0760 C.3    74  ARG74       0.0307
    114  CG        -6.9400   -5.4120   -6.7600 C.3    74  ARG74       0.0489
    115  CD        -7.8490   -6.5720   -6.4230 C.3    74  ARG74       0.2205
    116  NE        -7.3360   -7.2630   -5.2460 N.pl3  74  ARG74      -0.0865
    117  CZ        -6.7790   -8.4640   -5.2730 C.cat  74  ARG74       0.5346
    118  NH1       -6.6960   -9.1320   -6.4210 N.pl3  74  ARG74       0.1354
    119  NH2       -6.3250   -9.0090   -4.1540 N.pl3  74  ARG74       0.1354
    120  N         11.3400   -4.9230   -3.3110 N.3   125  SER125     -0.1202
    121  CA        11.4740   -6.3270   -2.9500 C.3   125  SER125      0.2020
    122  C         10.8370   -7.2360   -3.9820 C.2   125  SER125      0.2619
    123  O         10.1640   -6.7790   -4.9120 O.2   125  SER125     -0.2717
    124  CB        10.8480   -6.5930   -1.5850 C.3   125  SER125      0.2103
    125  OG         9.4590   -6.3250   -1.6170 O.3   125  SER125     -0.2182
    126  N         11.0480   -8.5340   -3.8100 N.am  126  GLY126     -0.1956
    127  CA        10.3780   -9.5000   -4.6510 C.3   126  GLY126      0.1869
    128  C         11.2720  -10.1380   -5.6820 C.2   126  GLY126      0.2309
    129  O         12.5020  -10.0870   -5.5950 O.2   126  GLY126     -0.2863
@<TRIPOS>BOND
     1    19    17    1
     2    54    53    2
     3   112   111    2
     4   111   110    1
     5    53    52    1
     6    17    16    1
     7    65    64    2
     8    51    52    1
     9    62    63    1
    10    52    55    1
    11    64    63    1
    12    16    18    1
    13    16    13    1
    14   110   113    1
    15   110   109    1
    16   113   114    1
    17    63    66    1
    18    55    56    1
    19     1     2    1
    20    66    67    1
    21    71    72    1
    22    12    13    1
    23    12     3   am
    24     2     3    1
    25     2     5    1
    26    45    46    2
    27    45    44    1
    28    13    14    1
    29     3     4    2
    30    69    68   ar
    31   114   115    1
    32   115   116    1
    33   118   117    1
    34    56    57    1
    35    72    73    1
    36    72    75    1
    37    67    68    1
    38    14    15    2
    39    14    20   am
    40    43    44    1
    41    68    70   ar
    42    44    47    1
    43   128   129    2
    44   128   127    1
    45    77    75    1
    46     5     6    1
    47    73    74    2
    48    57    58    1
    49   117   116    2
    50   117   119    1
    51    20    21    1
    52    75    76    1
    53   123   122    2
    54   127   126    1
    55    50    48   am
    56    21    22    1
    57    21    24    1
    58     6     7    1
    59    47    48    1
    60    22    23    2
    61    58    59    2
    62    48    49    2
    63   122   126   am
    64   122   121    1
    65   103   102    2
    66    36    35    2
    67   102   101    1
    68   120   121    1
    69    35    34    1
    70    60    59    1
    71     7     8    1
    72    59    61    1
    73   121   124    1
    74   107   106   ar
    75   104   101    1
    76   104   105    1
    77    78    79    1
    78   101   100    1
    79    25    26    1
    80     8     9    2
    81    34    33    1
    82    34    37    1
    83   106   105    1
    84   106   108   ar
    85   125   124    1
    86    40    42   ar
    87    40    38   ar
    88    42    41   ar
    89    79    82    1
    90    79    80    1
    91    38    37    1
    92    38    39   ar
    93    41    39   ar
    94    26    27    1
    95    26    29    1
    96     9    10    1
    97     9    11    1
    98    81    80    2
    99    27    28    2
   100    82    83    1
   101    32    30   ar
   102    30    31   ar
   103    30    29    1
   104    83    84    2
   105    83    85   am
   106    98    99   ar
   107    98    96   ar
   108    99    97   ar
   109    96    93   ar
   110    97    95   ar
   111    93    95   ar
   112    93    91   ar
   113    95    94   ar
   114    91    90    1
   115    91    92   ar
   116    90    87    1
   117    94    92   ar
   118    88    87    1
   119    88    89    2
   120    87    86    1
