@<TRIPOS>MOLECULE
tmp/5h9sB00.pdb
 98 91 0 0 0
SMALL
GASTEIGER

@<TRIPOS>ATOM
      1  N        -25.9130  -16.8760  -28.5020 N.3    29  ARG29      -0.1245
      2  CA       -24.6430  -17.5710  -28.5480 C.3    29  ARG29       0.1563
      3  C        -23.5120  -16.5800  -28.8000 C.2    29  ARG29       0.2260
      4  O        -23.7480  -15.4540  -29.2340 O.2    29  ARG29      -0.2867
      5  CB       -24.6660  -18.6470  -29.6350 C.3    29  ARG29       0.0307
      6  CG       -24.9560  -18.1100  -31.0240 C.3    29  ARG29       0.0489
      7  CD       -25.2480  -19.2400  -32.0000 C.3    29  ARG29       0.2205
      8  NE       -26.5000  -19.9330  -31.7010 N.pl3  29  ARG29      -0.0865
      9  CZ       -26.9930  -20.9310  -32.4290 C.cat  29  ARG29       0.5346
     10  NH1      -26.3400  -21.3590  -33.5010 N.pl3  29  ARG29       0.1354
     11  NH2      -28.1400  -21.5040  -32.0860 N.pl3  29  ARG29       0.1354
     12  N        -12.4810  -23.0840  -32.9790 N.3    47  HIS47      -0.1241
     13  CA       -13.7530  -22.3870  -32.9090 C.3    47  HIS47       0.1621
     14  C        -14.4270  -22.9180  -31.6530 C.2    47  HIS47       0.2264
     15  O        -14.7300  -24.1030  -31.5750 O.2    47  HIS47      -0.2867
     16  CB       -14.5990  -22.6610  -34.1690 C.3    47  HIS47       0.0745
     17  CG       -16.0180  -22.1930  -34.0800 C.ar   47  HIS47       0.0817
     18  ND1      -16.3710  -20.8570  -34.1280 N.ar   47  HIS47      -0.2268
     19  CD2      -17.1830  -22.8800  -33.9910 C.ar   47  HIS47       0.1154
     20  CE1      -17.6840  -20.7460  -34.0590 C.ar   47  HIS47       0.1986
     21  NE2      -18.2030  -21.9620  -33.9790 N.ar   47  HIS47      -0.2212
     22  N        -17.6510  -22.3350  -29.1820 N.3    49  ASN49      -0.1240
     23  CA       -18.9550  -21.7040  -29.4340 C.3    49  ASN49       0.1653
     24  C        -20.0520  -22.0930  -28.4450 C.2    49  ASN49       0.2266
     25  O        -20.8530  -22.9870  -28.7150 O.2    49  ASN49      -0.2867
     26  CB       -19.3910  -22.0340  -30.8740 C.3    49  ASN49       0.1155
     27  CG       -20.7400  -21.4330  -31.2620 C.2    49  ASN49       0.2627
     28  OD1      -21.4630  -22.0260  -32.0640 O.2    49  ASN49      -0.2716
     29  ND2      -21.0770  -20.2590  -30.7230 N.am   49  ASN49      -0.0877
     30  N        -23.5310  -22.0020  -26.8340 N.3    51  ARG51      -0.1245
     31  CA       -24.8460  -21.6620  -27.3580 C.3    51  ARG51       0.1563
     32  C        -25.8810  -21.7540  -26.2510 C.2    51  ARG51       0.2260
     33  O        -26.2610  -22.8460  -25.8330 O.2    51  ARG51      -0.2867
     34  CB       -25.2270  -22.5810  -28.5200 C.3    51  ARG51       0.0307
     35  CG       -24.2460  -22.5460  -29.6800 C.3    51  ARG51       0.0489
     36  CD       -24.5470  -23.6400  -30.6900 C.3    51  ARG51       0.2205
     37  NE       -23.6030  -23.6130  -31.8010 N.pl3  51  ARG51      -0.0865
     38  CZ       -23.5840  -24.4970  -32.7910 C.cat  51  ARG51       0.5346
     39  NH1      -24.4610  -25.4930  -32.8160 N.pl3  51  ARG51       0.1354
     40  NH2      -22.6840  -24.3850  -33.7560 N.pl3  51  ARG51       0.1354
     41  N        -25.7150  -25.8410  -25.5390 N.3    56  GLU56      -0.1245
     42  CA       -24.5830  -26.6700  -25.9330 C.3    56  GLU56       0.1567
     43  C        -23.3290  -25.8150  -25.9720 C.2    56  GLU56       0.2260
     44  O        -23.4030  -24.5840  -25.8860 O.2    56  GLU56      -0.2867
     45  CB       -24.8000  -27.3110  -27.3080 C.3    56  GLU56       0.0388
     46  CG       -26.1100  -28.0420  -27.5120 C.3    56  GLU56       0.1160
     47  CD       -26.3380  -28.3920  -28.9710 C.2    56  GLU56       0.3649
     48  OE1      -25.7060  -27.7480  -29.8370 O.co2  56  GLU56      -0.2457
     49  OE2      -27.1430  -29.3070  -29.2540 O.co2  56  GLU56      -0.2457
     50  N        -20.2060  -25.9740  -28.7250 N.3    58  VAL58      -0.1245
     51  CA       -19.6020  -26.6430  -29.8700 C.3    58  VAL58       0.1561
     52  C        -18.1380  -26.2350  -30.0360 C.2    58  VAL58       0.2260
     53  O        -17.8040  -25.0530  -29.9820 O.2    58  VAL58      -0.2867
     54  CB       -20.3810  -26.3350  -31.1740 C.3    58  VAL58       0.0252
     55  CG1      -19.6010  -26.8030  -32.4050 C.3    58  VAL58       0.0019
     56  CG2      -21.7620  -26.9850  -31.1330 C.3    58  VAL58       0.0019
     57  N        -15.0250  -26.7130  -32.8930 N.3    60  ASN60      -0.1240
     58  CA       -14.7140  -27.1880  -34.2300 C.3    60  ASN60       0.1653
     59  C        -13.5140  -26.4590  -34.7960 C.2    60  ASN60       0.2266
     60  O        -12.9700  -25.5400  -34.1720 O.2    60  ASN60      -0.2867
     61  CB       -15.9120  -27.0190  -35.1590 C.3    60  ASN60       0.1155
     62  CG       -15.9380  -28.0500  -36.2740 C.2    60  ASN60       0.2627
     63  OD1      -14.9100  -28.6210  -36.6430 O.2    60  ASN60      -0.2716
     64  ND2      -17.1180  -28.2910  -36.8160 N.am   60  ASN60      -0.0877
     65  N        -16.2500  -26.5730  -42.3090 N.3    67  TRP67      -0.1241
     66  CA       -16.1630  -26.9830  -40.9100 C.3    67  TRP67       0.1605
     67  C        -15.6980  -28.4270  -40.8160 C.2    67  TRP67       0.2264
     68  O        -15.7440  -29.1670  -41.7960 O.2    67  TRP67      -0.2867
     69  CB       -17.5120  -26.8220  -40.2000 C.3    67  TRP67       0.0550
     70  CG       -17.9190  -25.3970  -39.9870 C.ar   67  TRP67       0.0003
     71  CD1      -18.9190  -24.7240  -40.6260 C.ar   67  TRP67       0.0946
     72  CD2      -17.3290  -24.4650  -39.0720 C.ar   67  TRP67       0.0152
     73  NE1      -18.9890  -23.4310  -40.1660 N.ar   67  TRP67      -0.2442
     74  CE2      -18.0240  -23.2470  -39.2080 C.ar   67  TRP67       0.0810
     75  CE3      -16.2790  -24.5430  -38.1510 C.ar   67  TRP67       0.0012
     76  CZ2      -17.7000  -22.1130  -38.4640 C.ar   67  TRP67       0.0191
     77  CZ3      -15.9650  -23.4170  -37.4050 C.ar   67  TRP67       0.0001
     78  CH2      -16.6740  -22.2210  -37.5660 C.ar   67  TRP67       0.0015
     79  N        -17.6800  -31.7360  -35.3580 N.3    70  GLU70      -0.1245
     80  CA       -17.9610  -31.0100  -34.1230 C.3    70  GLU70       0.1567
     81  C        -17.6540  -31.8600  -32.8950 C.2    70  GLU70       0.2260
     82  O        -17.9770  -33.0460  -32.8590 O.2    70  GLU70      -0.2867
     83  CB       -19.4200  -30.5520  -34.0700 C.3    70  GLU70       0.0388
     84  CG       -19.7700  -29.4340  -35.0280 C.3    70  GLU70       0.1160
     85  CD       -21.2440  -29.0710  -34.9800 C.2    70  GLU70       0.3649
     86  OE1      -22.0670  -29.9630  -34.6860 O.co2  70  GLU70      -0.2457
     87  OE2      -21.5800  -27.8960  -35.2340 O.co2  70  GLU70      -0.2457
     88  N        -18.4770  -31.6110  -28.7010 N.3    72  ARG72      -0.1245
     89  CA       -19.3330  -30.8860  -27.7640 C.3    72  ARG72       0.1563
     90  C        -18.8810  -31.0810  -26.3250 C.2    72  ARG72       0.2260
     91  O        -18.3540  -32.1380  -25.9680 O.2    72  ARG72      -0.2867
     92  CB       -20.7870  -31.3280  -27.9080 C.3    72  ARG72       0.0307
     93  CG       -21.5570  -30.5630  -28.9610 C.3    72  ARG72       0.0489
     94  CD       -22.9350  -31.1680  -29.1940 C.3    72  ARG72       0.2205
     95  NE       -23.7120  -30.3320  -30.1010 N.pl3  72  ARG72      -0.0865
     96  CZ       -23.5380  -30.3050  -31.4170 C.cat  72  ARG72       0.5346
     97  NH1      -22.6190  -31.0790  -31.9800 N.pl3  72  ARG72       0.1354
     98  NH2      -24.2800  -29.5020  -32.1710 N.pl3  72  ARG72       0.1354
@<TRIPOS>BOND
     1    65    66    1
     2    68    67    2
     3    66    67    1
     4    66    69    1
     5    71    73   ar
     6    71    70   ar
     7    69    70    1
     8    73    74   ar
     9    70    72   ar
    10    74    72   ar
    11    74    76   ar
    12    72    75   ar
    13    76    78   ar
    14    75    77   ar
    15    78    77   ar
    16    64    62   am
    17    63    62    2
    18    62    61    1
    19    79    80    1
    20    87    85   ar
    21    61    58    1
    22    84    85    1
    23    84    83    1
    24    85    86   ar
    25    59    58    1
    26    59    60    2
    27    58    57    1
    28    16    17    1
    29    16    13    1
    30    18    17   ar
    31    18    20   ar
    32    80    83    1
    33    80    81    1
    34    17    19   ar
    35    20    21   ar
    36    19    21   ar
    37    40    38    1
    38    10     9    1
    39    12    13    1
    40    13    14    1
    41    81    82    2
    42    39    38    1
    43    38    37    2
    44     9    11    1
    45     9     8    2
    46    55    54    1
    47    98    96    1
    48    28    27    2
    49     7     8    1
    50     7     6    1
    51    97    96    1
    52    37    36    1
    53    14    15    2
    54    96    95    2
    55    27    26    1
    56    27    29   am
    57    54    56    1
    58    54    51    1
    59     6     5    1
    60    26    23    1
    61    36    35    1
    62    95    94    1
    63    52    53    2
    64    52    51    1
    65    51    50    1
    66    48    47   ar
    67    35    34    1
    68     5     2    1
    69    23    22    1
    70    23    24    1
    71    49    47   ar
    72     4     3    2
    73    94    93    1
    74    47    46    1
    75    93    92    1
    76     3     2    1
    77    25    24    2
    78    88    89    1
    79     2     1    1
    80    34    31    1
    81    92    89    1
    82    89    90    1
    83    46    45    1
    84    31    30    1
    85    31    32    1
    86    45    42    1
    87    90    91    2
    88    32    33    2
    89    43    42    1
    90    43    44    2
    91    42    41    1
