@<TRIPOS>MOLECULE
tmp/5h9yA04.pdb
 83 80 0 0 0
SMALL
GASTEIGER

@<TRIPOS>ATOM
      1  N        121.2150    2.0780  130.4790 N.3   186  SER186     -0.1202
      2  CA       121.6750    3.4560  130.7010 C.3   186  SER186      0.2020
      3  C        123.0480    3.7550  130.0940 C.2   186  SER186      0.2619
      4  O        123.9720    4.2220  130.7790 O.2   186  SER186     -0.2717
      5  CB       121.6180    3.8390  132.1820 C.3   186  SER186      0.2103
      6  OG       122.2320    2.8480  132.9710 O.3   186  SER186     -0.2182
      7  N        123.1730    3.4820  128.8000 N.am  187  GLY187     -0.1956
      8  CA       124.4030    3.7830  128.0970 C.3   187  GLY187      0.1869
      9  C        124.5200    5.2720  127.8310 C.2   187  GLY187      0.2309
     10  O        123.5140    5.9980  127.7150 O.2   187  GLY187     -0.2863
     11  N        122.2880    9.7000  125.0820 N.3   227  ALA227     -0.1231
     12  CA       121.9500    8.6480  126.0230 C.3   227  ALA227      0.1694
     13  C        121.1490    7.5920  125.2860 C.2   227  ALA227      0.2592
     14  O        120.3410    7.9200  124.4100 O.2   227  ALA227     -0.2718
     15  CB       121.1510    9.2250  127.1830 C.3   227  ALA227      0.0304
     16  N        121.3670    6.3260  125.6200 N.am  228  PHE228     -0.1962
     17  CA       120.5620    5.2840  125.0220 C.3   228  PHE228      0.1771
     18  C        120.4620    4.0620  125.9080 C.2   228  PHE228      0.2620
     19  O        121.3460    3.7950  126.7350 O.2   228  PHE228     -0.2715
     20  CB       121.0480    4.8990  123.6080 C.3   228  PHE228      0.0574
     21  CG       122.5390    4.7620  123.4740 C.ar  228  PHE228     -0.0200
     22  CD1      123.2610    3.9260  124.3150 C.ar  228  PHE228     -0.0042
     23  CD2      123.2100    5.4450  122.4690 C.ar  228  PHE228     -0.0042
     24  CE1      124.6370    3.7980  124.1770 C.ar  228  PHE228     -0.0003
     25  CE2      124.5880    5.3220  122.3210 C.ar  228  PHE228     -0.0003
     26  CZ       125.3020    4.5020  123.1800 C.ar  228  PHE228     -0.0000
     27  N        119.3630    3.3400  125.7340 N.am  229  THR229     -0.1951
     28  CA       119.2320    1.9970  126.2620 C.3   229  THR229      0.1897
     29  C        118.8830    1.1370  125.0610 C.2   229  THR229      0.2313
     30  O        118.0360    1.5180  124.2510 O.2   229  THR229     -0.2863
     31  CB       118.1000    1.9190  127.2960 C.3   229  THR229      0.1794
     32  OG1      118.4950    2.6240  128.4810 O.3   229  THR229     -0.2208
     33  CG2      117.7730    0.4520  127.6490 C.3   229  THR229      0.0378
     34  N        116.1980    2.9310  122.3980 N.3   236  HIS236     -0.1241
     35  CA       115.5360    4.0890  122.9930 C.3   236  HIS236      0.1621
     36  C        116.6390    5.0670  123.3480 C.2   236  HIS236      0.2264
     37  O        117.5540    4.7170  124.0990 O.2   236  HIS236     -0.2867
     38  CB       114.7970    3.6930  124.2720 C.3   236  HIS236      0.0745
     39  CG       114.1930    2.3200  124.2290 C.ar  236  HIS236      0.0817
     40  ND1      112.8920    2.0870  123.8410 N.ar  236  HIS236     -0.2268
     41  CD2      114.7180    1.1110  124.5510 C.ar  236  HIS236      0.1154
     42  CE1      112.6390    0.7880  123.9200 C.ar  236  HIS236      0.1986
     43  NE2      113.7290    0.1770  124.3460 N.ar  236  HIS236     -0.2212
     44  N        118.2380    9.5620  123.1600 N.3   238  ASN238     -0.1240
     45  CA       117.9890   10.9950  123.0650 C.3   238  ASN238      0.1653
     46  C        119.2750   11.8010  123.1030 C.2   238  ASN238      0.2266
     47  O        120.2970   11.3210  123.5910 O.2   238  ASN238     -0.2867
     48  CB       117.0970   11.4400  124.2360 C.3   238  ASN238      0.1155
     49  CG       117.6760   11.0490  125.5950 C.2   238  ASN238      0.2627
     50  OD1      117.4200    9.9510  126.1030 O.2   238  ASN238     -0.2716
     51  ND2      118.4670   11.9460  126.1870 N.am  238  ASN238     -0.0877
     52  N        115.3720   18.0130  124.5730 N.3   384  TYR384     -0.1241
     53  CA       115.3460   17.7890  126.0050 C.3   384  TYR384      0.1605
     54  C        115.9220   19.0320  126.6810 C.2   384  TYR384      0.2264
     55  O        117.1110   19.0740  127.0510 O.2   384  TYR384     -0.2867
     56  CB       116.1490   16.5540  126.3780 C.3   384  TYR384      0.0534
     57  CG       115.3160   15.4180  126.9440 C.ar  384  TYR384     -0.0201
     58  CD1      114.5320   15.6000  128.0760 C.ar  384  TYR384     -0.0009
     59  CD2      115.3290   14.1620  126.3490 C.ar  384  TYR384     -0.0009
     60  CE1      113.7820   14.5430  128.6100 C.ar  384  TYR384      0.0417
     61  CE2      114.5830   13.1130  126.8630 C.ar  384  TYR384      0.0417
     62  CZ       113.8170   13.3100  127.9970 C.ar  384  TYR384      0.1957
     63  OH       113.0790   12.2630  128.5150 O.3   384  TYR384     -0.2866
     64  N        109.7890   15.5210  127.9670 N.3   390  ASP390     -0.1239
     65  CA       109.1320   14.4730  127.1900 C.3   390  ASP390      0.1674
     66  C        107.6150   14.4710  127.4110 C.2   390  ASP390      0.2266
     67  O        106.8830   13.7340  126.7360 O.2   390  ASP390     -0.2867
     68  CB       109.7370   13.0950  127.4800 C.3   390  ASP390      0.1410
     69  CG       109.6080   12.6940  128.9340 C.2   390  ASP390      0.3668
     70  OD1      109.4740   11.4830  129.1930 O.co2 390  ASP390     -0.2456
     71  OD2      109.6480   13.5770  129.8190 O.co2 390  ASP390     -0.2456
     72  N        113.7700   12.6680  121.6800 N.3   397  TYR397     -0.1241
     73  CA       113.8640   11.2660  122.0820 C.3   397  TYR397      0.1605
     74  C        113.2710   10.4050  120.9930 C.2   397  TYR397      0.2264
     75  O        112.2000   10.7230  120.4610 O.2   397  TYR397     -0.2867
     76  CB       113.0930   11.0480  123.3840 C.3   397  TYR397      0.0534
     77  CG       112.8970    9.6000  123.7770 C.ar  397  TYR397     -0.0201
     78  CD1      111.7440    8.9160  123.4130 C.ar  397  TYR397     -0.0009
     79  CD2      113.8620    8.9190  124.5190 C.ar  397  TYR397     -0.0009
     80  CE1      111.5500    7.5950  123.7690 C.ar  397  TYR397      0.0417
     81  CE2      113.6790    7.5950  124.8880 C.ar  397  TYR397      0.0417
     82  CZ       112.5150    6.9400  124.5120 C.ar  397  TYR397      0.1957
     83  OH       112.3130    5.6200  124.8690 O.3   397  TYR397     -0.2866
@<TRIPOS>BOND
     1    75    74    2
     2    74    73    1
     3    72    73    1
     4    73    76    1
     5    25    23   ar
     6    25    26   ar
     7    34    35    1
     8    23    21   ar
     9    35    36    1
    10    35    38    1
    11    45    46    1
    12    45    44    1
    13    45    48    1
    14    46    47    2
    15    26    24   ar
    16    36    37    2
    17    76    77    1
    18    78    80   ar
    19    78    77   ar
    20    21    20    1
    21    21    22   ar
    22    20    17    1
    23    80    82   ar
    24    77    79   ar
    25    40    42   ar
    26    40    39   ar
    27    42    43   ar
    28    24    22   ar
    29    39    38    1
    30    39    41   ar
    31    48    49    1
    32    30    29    2
    33    43    41   ar
    34    14    13    2
    35    82    83    1
    36    82    81   ar
    37    79    81   ar
    38    52    53    1
    39    17    16    1
    40    17    18    1
    41    29    28    1
    42    11    12    1
    43    13    16   am
    44    13    12    1
    45    49    50    2
    46    49    51   am
    47    27    18   am
    48    27    28    1
    49    18    19    2
    50    53    56    1
    51    53    54    1
    52    12    15    1
    53    28    31    1
    54    59    61   ar
    55    59    57   ar
    56    56    57    1
    57    54    55    2
    58    67    66    2
    59    61    62   ar
    60    57    58   ar
    61    65    66    1
    62    65    68    1
    63    65    64    1
    64    31    33    1
    65    31    32    1
    66    68    69    1
    67    10     9    2
    68     9     8    1
    69    62    63    1
    70    62    60   ar
    71    58    60   ar
    72     8     7    1
    73     7     3   am
    74    69    70   ar
    75    69    71   ar
    76     3     2    1
    77     3     4    2
    78     1     2    1
    79     2     5    1
    80     5     6    1
