@<TRIPOS>MOLECULE
tmp/5ha4A00.pdb
 98 92 0 0 0
SMALL
GASTEIGER

@<TRIPOS>ATOM
      1  N        -18.4460   16.6450   39.0950 N.3    62  TYR62      -0.1241
      2  CA       -17.2900   15.8090   38.8200 C.3    62  TYR62       0.1605
      3  C        -16.4530   16.4190   37.7120 C.2    62  TYR62       0.2264
      4  O        -16.9100   17.2440   36.9160 O.2    62  TYR62      -0.2867
      5  CB       -17.6440   14.3360   38.5010 C.3    62  TYR62       0.0534
      6  CG       -18.3200   14.0110   37.1810 C.ar   62  TYR62      -0.0201
      7  CD1      -17.6910   14.2320   35.9580 C.ar   62  TYR62      -0.0009
      8  CD2      -19.5650   13.4050   37.1730 C.ar   62  TYR62      -0.0009
      9  CE1      -18.3120   13.9050   34.7680 C.ar   62  TYR62       0.0417
     10  CE2      -20.1950   13.0720   35.9950 C.ar   62  TYR62       0.0417
     11  CZ       -19.5650   13.3200   34.7950 C.ar   62  TYR62       0.1957
     12  OH       -20.2130   12.9810   33.6270 O.3    62  TYR62      -0.2866
     13  N        -17.0160    9.6380   26.5690 N.3    76  GLY76      -0.1225
     14  CA       -18.2110    9.8830   27.3620 C.3    76  GLY76       0.1811
     15  C        -18.7400    8.7460   28.2190 C.2    76  GLY76       0.2280
     16  O        -19.9250    8.7660   28.5610 O.2    76  GLY76      -0.2866
     17  N        -19.4680    9.2130   32.8760 N.3    79  VAL79      -0.1245
     18  CA       -20.7230    9.5640   33.5420 C.3    79  VAL79       0.1561
     19  C        -21.3870    8.3140   34.1190 C.2    79  VAL79       0.2260
     20  O        -21.9720    8.3520   35.2130 O.2    79  VAL79      -0.2867
     21  CB       -21.6510   10.3220   32.5700 C.3    79  VAL79       0.0252
     22  CG1      -21.9020    9.5140   31.3010 C.3    79  VAL79       0.0019
     23  CG2      -22.9640   10.7190   33.2480 C.3    79  VAL79       0.0019
     24  N        -21.1110   19.1430   35.4580 N.3   101  THR101     -0.1203
     25  CA       -19.9490   18.6890   34.7000 C.3   101  THR101      0.1994
     26  C        -19.3860   19.8550   33.8930 C.2   101  THR101      0.2618
     27  O        -19.9350   20.9600   33.8830 O.2   101  THR101     -0.2717
     28  CB       -20.3000   17.5340   33.7500 C.3   101  THR101      0.1784
     29  OG1      -20.9510   18.0620   32.5880 O.3   101  THR101     -0.2211
     30  CG2      -21.2400   16.5340   34.4230 C.3   101  THR101      0.0376
     31  N        -18.2850   19.5900   33.1910 N.am  102  LYS102     -0.1965
     32  CA       -17.6950   20.6070   32.3330 C.3   102  LYS102      0.1728
     33  C        -18.6000   20.9470   31.1620 C.2   102  LYS102      0.2616
     34  O        -18.4550   22.0220   30.5750 O.2   102  LYS102     -0.2715
     35  CB       -16.3160   20.1370   31.8240 C.3   102  LYS102      0.0311
     36  CG       -16.3430   18.8390   31.0250 C.3   102  LYS102      0.0038
     37  CD       -14.9480   18.3390   30.8040 C.3   102  LYS102      0.0206
     38  CE       -14.9510   17.1970   29.8040 C.3   102  LYS102      0.1093
     39  NZ       -13.5990   16.6470   29.5300 N.3   102  LYS102     -0.1314
     40  N        -19.5350   20.0640   30.8130 N.am  103  ALA103     -0.1977
     41  CA       -20.4800   20.3300   29.7360 C.3   103  ALA103      0.1597
     42  C        -21.8440   20.7700   30.2440 C.2   103  ALA103      0.2287
     43  O        -22.7950   20.8220   29.4600 O.2   103  ALA103     -0.2864
     44  CB       -20.6330   19.0950   28.8470 C.3   103  ALA103      0.0319
     45  N        -25.1570   20.5780   33.1480 N.3   105  ILE105     -0.1231
     46  CA       -25.9130   19.6580   33.9950 C.3   105  ILE105      0.1692
     47  C        -26.1330   18.3490   33.2480 C.2   105  ILE105      0.2591
     48  O        -26.5190   18.3440   32.0740 O.2   105  ILE105     -0.2718
     49  CB       -27.2530   20.2850   34.4130 C.3   105  ILE105      0.0266
     50  CG1      -27.0280   21.4900   35.3340 C.3   105  ILE105      0.0019
     51  CG2      -28.1580   19.2400   35.0900 C.3   105  ILE105      0.0020
     52  CD1      -26.4640   21.1090   36.7030 C.3   105  ILE105      0.0001
     53  N        -25.8960   17.2330   33.9240 N.am  106  VAL106     -0.1980
     54  CA       -26.2320   15.9190   33.3930 C.3   106  VAL106      0.1595
     55  C        -27.0560   15.1870   34.4450 C.2   106  VAL106      0.2287
     56  O        -26.8030   15.3240   35.6480 O.2   106  VAL106     -0.2864
     57  CB       -24.9790   15.1060   33.0110 C.3   106  VAL106      0.0276
     58  CG1      -25.3870   13.8430   32.2740 C.3   106  VAL106      0.0022
     59  CG2      -24.0400   15.9510   32.1520 C.3   106  VAL106      0.0022
     60  N        -27.8780    7.5350   29.6910 N.3   118  VAL118     -0.1231
     61  CA       -27.2380    8.8490   29.6470 C.3   118  VAL118      0.1692
     62  C        -27.7310    9.6370   28.4350 C.2   118  VAL118      0.2592
     63  O        -27.7170    9.1260   27.3090 O.2   118  VAL118     -0.2718
     64  CB       -25.7010    8.7450   29.5860 C.3   118  VAL118      0.0266
     65  CG1      -25.0920   10.1430   29.5510 C.3   118  VAL118      0.0020
     66  CG2      -25.1500    7.9520   30.7520 C.3   118  VAL118      0.0020
     67  N        -28.1030   10.9000   28.6590 N.am  119  ASN119     -0.1960
     68  CA       -28.4240   11.8340   27.5750 C.3   119  ASN119      0.1819
     69  C        -27.1110   12.3290   26.9670 C.2   119  ASN119      0.2621
     70  O        -26.3530   13.0580   27.6150 O.2   119  ASN119     -0.2715
     71  CB       -29.2780   12.9790   28.1290 C.3   119  ASN119      0.1195
     72  CG       -29.6600   14.0230   27.0810 C.2   119  ASN119      0.2630
     73  OD1      -28.9910   14.2010   26.0610 O.2   119  ASN119     -0.2716
     74  ND2      -30.7510   14.7390   27.3550 N.am  119  ASN119     -0.0877
     75  N        -26.8190   11.9120   25.7340 N.am  120  MET120     -0.1963
     76  CA       -25.5710   12.2650   25.0710 C.3   120  MET120      0.1736
     77  C        -25.6960   13.5150   24.1940 C.2   120  MET120      0.2617
     78  O        -24.7620   13.8310   23.4460 O.2   120  MET120     -0.2715
     79  CB       -25.0730   11.0750   24.2380 C.3   120  MET120      0.0427
     80  CG       -24.8110    9.7890   25.0600 C.3   120  MET120      0.0599
     81  SD       -23.4740    9.9670   26.2580 S.3   120  MET120     -0.1393
     82  CE       -22.0120    9.8930   25.2310 C.3   120  MET120      0.0692
     83  N        -26.8260   14.2170   24.2600 N.am  121  GLY121     -0.1955
     84  CA       -26.9920   15.4630   23.5370 C.3   121  GLY121      0.1869
     85  C        -27.3950   15.2590   22.0890 C.2   121  GLY121      0.2309
     86  O        -27.6370   14.1490   21.6190 O.2   121  GLY121     -0.2863
     87  N        -20.5400   14.4370   18.1190 N.3   158  MET158     -0.1230
     88  CA       -21.1980   14.1550   19.3930 C.3   158  MET158      0.1702
     89  C        -20.5510   14.9640   20.5140 C.2   158  MET158      0.2592
     90  O        -20.4340   14.5020   21.6450 O.2   158  MET158     -0.2718
     91  CB       -21.1420   12.6630   19.7120 C.3   158  MET158      0.0401
     92  CG       -21.9320   11.7720   18.7360 C.3   158  MET158      0.0596
     93  SD       -23.7120   12.1130   18.7500 S.3   158  MET158     -0.1393
     94  CE       -24.1080   11.9240   20.4930 C.3   158  MET158      0.0692
     95  N        -20.1580   16.1990   20.2100 N.am  159  GLY159     -0.1957
     96  CA       -19.2410   16.9500   21.0350 C.3   159  GLY159      0.1869
     97  C        -17.8070   16.8060   20.5750 C.2   159  GLY159      0.2309
     98  O        -16.9960   17.7130   20.7800 O.2   159  GLY159     -0.2863
@<TRIPOS>BOND
     1    87    88    1
     2    92    93    1
     3    92    91    1
     4    93    94    1
     5    88    91    1
     6    88    89    1
     7    95    89   am
     8    95    96    1
     9    89    90    2
    10    97    98    2
    11    97    96    1
    12    86    85    2
    13    85    84    1
    14    78    77    2
    15    84    83    1
    16    77    83   am
    17    77    76    1
    18    79    80    1
    19    79    76    1
    20    80    81    1
    21    76    75    1
    22    82    81    1
    23    75    69   am
    24    73    72    2
    25    13    14    1
    26    69    68    1
    27    69    70    2
    28    72    74   am
    29    72    71    1
    30    63    62    2
    31    14    15    1
    32    68    71    1
    33    68    67    1
    34    15    16    2
    35    62    67   am
    36    62    61    1
    37    44    41    1
    38    43    42    2
    39    39    38    1
    40    65    64    1
    41    64    61    1
    42    64    66    1
    43    61    60    1
    44    41    42    1
    45    41    40    1
    46    38    37    1
    47    34    33    2
    48    37    36    1
    49    40    33   am
    50    36    35    1
    51    33    32    1
    52    22    21    1
    53    35    32    1
    54    48    47    2
    55    59    57    1
    56    58    57    1
    57    32    31    1
    58    21    23    1
    59    21    18    1
    60    29    28    1
    61    17    18    1
    62    57    54    1
    63    45    46    1
    64    31    26   am
    65    47    53   am
    66    47    46    1
    67    54    53    1
    68    54    55    1
    69    18    19    1
    70    12    11    1
    71    28    30    1
    72    28    25    1
    73    27    26    2
    74    26    25    1
    75    46    49    1
    76    19    20    2
    77    49    51    1
    78    49    50    1
    79    55    56    2
    80    25    24    1
    81     9    11   ar
    82     9     7   ar
    83    11    10   ar
    84    50    52    1
    85     7     6   ar
    86    10     8   ar
    87     4     3    2
    88     8     6   ar
    89     6     5    1
    90     3     2    1
    91     5     2    1
    92     2     1    1
