@<TRIPOS>MOLECULE
tmp/5ha7A01.pdb
 146 149 0 0 0
SMALL
GASTEIGER

@<TRIPOS>ATOM
      1  N         14.1720    2.3020    4.4770 N.3    21  TRP21      -0.1241
      2  CA        13.4630    1.6380    3.3480 C.3    21  TRP21       0.1605
      3  C         12.1230    1.1960    3.8840 C.2    21  TRP21       0.2264
      4  O         12.0690    0.4990    4.9030 O.2    21  TRP21      -0.2867
      5  CB        14.2950    0.4270    2.8610 C.3    21  TRP21       0.0550
      6  CG        13.5550   -0.3810    1.7900 C.ar   21  TRP21       0.0003
      7  CD1       12.7580    0.1040    0.8080 C.ar   21  TRP21       0.0946
      8  CD2       13.5300   -1.7990    1.6840 C.ar   21  TRP21       0.0152
      9  NE1       12.2000   -0.9580    0.0650 N.ar   21  TRP21      -0.2442
     10  CE2       12.7120   -2.1300    0.5650 C.ar   21  TRP21       0.0810
     11  CE3       14.1940   -2.8130    2.3480 C.ar   21  TRP21       0.0012
     12  CZ2       12.4730   -3.4490    0.2080 C.ar   21  TRP21       0.0191
     13  CZ3       13.9630   -4.1140    1.9900 C.ar   21  TRP21       0.0001
     14  CH2       13.1490   -4.4250    0.9190 C.ar   21  TRP21       0.0015
     15  N         15.9350    5.7480   -4.0120 N.3    48  VAL48      -0.1231
     16  CA        14.8660    4.7860   -4.3420 C.3    48  VAL48       0.1692
     17  C         13.8410    4.5870   -3.2270 C.2    48  VAL48       0.2592
     18  O         12.7390    4.1000   -3.4550 O.2    48  VAL48      -0.2718
     19  CB        15.4950    3.4360   -4.8300 C.3    48  VAL48       0.0266
     20  CG1       16.0450    2.6340   -3.6850 C.3    48  VAL48       0.0020
     21  CG2       14.4980    2.6240   -5.6690 C.3    48  VAL48       0.0020
     22  N         14.1910    4.9610   -1.9790 N.am   49  TYR49      -0.1962
     23  CA        13.2410    4.8570   -0.8930 C.3    49  TYR49       0.1771
     24  C         12.1380    5.9410   -0.9490 C.2    49  TYR49       0.2619
     25  O         11.1140    5.7940   -0.2530 O.2    49  TYR49      -0.2715
     26  CB        13.9230    4.8470    0.4950 C.3    49  TYR49       0.0574
     27  CG        14.9860    3.7830    0.6770 C.ar   49  TYR49      -0.0198
     28  CD1       15.0570    2.6540   -0.1400 C.ar   49  TYR49      -0.0009
     29  CD2       15.9170    3.9070    1.6930 C.ar   49  TYR49      -0.0009
     30  CE1       16.0940    1.7510   -0.0190 C.ar   49  TYR49       0.0417
     31  CE2       16.9310    2.9800    1.8500 C.ar   49  TYR49       0.0417
     32  CZ        17.0130    1.9100    1.0060 C.ar   49  TYR49       0.1957
     33  OH        18.0300    1.0070    1.1290 O.3    49  TYR49      -0.2866
     34  N         12.3590    6.9870   -1.7640 N.am   50  GLN50      -0.1977
     35  CA        11.2860    7.9100   -2.1390 C.3    50  GLN50       0.1601
     36  C         10.8030    8.7250   -0.9430 C.2    50  GLN50       0.2287
     37  O          9.6520    9.1350   -0.9350 O.2    50  GLN50      -0.2864
     38  CB        10.0780    7.1650   -2.7790 C.3    50  GLN50       0.0394
     39  CG        10.2940    6.5540   -4.1800 C.3    50  GLN50       0.0908
     40  CD         8.9680    6.3740   -4.9370 C.2    50  GLN50       0.2608
     41  OE1        8.4340    7.3120   -5.5350 O.2    50  GLN50      -0.2717
     42  NE2        8.4210    5.1960   -4.8670 N.am   50  GLN50      -0.0878
     43  N         21.0800    5.2280   -7.2930 N.3    80  TRP80      -0.1241
     44  CA        20.1910    4.1910   -7.7760 C.3    80  TRP80       0.1605
     45  C         20.6650    3.6440   -9.1590 C.2    80  TRP80       0.2264
     46  O         21.4550    4.2850   -9.8500 O.2    80  TRP80      -0.2867
     47  CB        18.7350    4.6710   -7.8150 C.3    80  TRP80       0.0550
     48  CG        17.8130    3.5620   -8.1750 C.ar   80  TRP80       0.0003
     49  CD1       17.0890    3.4810   -9.3640 C.ar   80  TRP80       0.0946
     50  CD2       17.7130    2.2770   -7.5800 C.ar   80  TRP80       0.0152
     51  NE1       16.4640    2.2800   -9.4460 N.ar   80  TRP80      -0.2442
     52  CE2       16.8360    1.5130   -8.3700 C.ar   80  TRP80       0.0810
     53  CE3       18.1900    1.7160   -6.3650 C.ar   80  TRP80       0.0012
     54  CZ2       16.4890    0.1970   -8.0420 C.ar   80  TRP80       0.0191
     55  CZ3       17.8600    0.4020   -6.0670 C.ar   80  TRP80       0.0001
     56  CH2       16.9730   -0.3090   -6.8510 C.ar   80  TRP80       0.0015
     57  N         24.3250    1.5880   -5.0190 N.3   111  HIS111     -0.1226
     58  CA        23.2800    0.7920   -4.3440 C.3   111  HIS111      0.1752
     59  C         23.3090   -0.6870   -4.7090 C.2   111  HIS111      0.2596
     60  O         23.1960   -1.5360   -3.8620 O.2   111  HIS111     -0.2718
     61  CB        21.9320    1.4020   -4.6440 C.3   111  HIS111      0.0759
     62  CG        20.8450    1.0970   -3.6450 C.ar  111  HIS111      0.0818
     63  ND1       19.8460    1.9900   -3.3520 N.ar  111  HIS111     -0.2268
     64  CD2       20.6040    0.0040   -2.8730 C.ar  111  HIS111      0.1154
     65  CE1       19.0320    1.4720   -2.4470 C.ar  111  HIS111      0.1986
     66  NE2       19.4490    0.2450   -2.1750 N.ar  111  HIS111     -0.2212
     67  N         23.4720   -0.9690   -6.0020 N.am  112  TRP112     -0.1976
     68  CA        23.6900   -2.3040   -6.5220 C.3   112  TRP112      0.1640
     69  C         24.7150   -2.2700   -7.6590 C.2   112  TRP112      0.2290
     70  O         24.8410   -1.2690   -8.3660 O.2   112  TRP112     -0.2864
     71  CB        22.3770   -2.8530   -7.1470 C.3   112  TRP112      0.0576
     72  CG        21.3090   -3.1300   -6.1190 C.ar  112  TRP112      0.0006
     73  CD1       20.4490   -2.2430   -5.5920 C.ar  112  TRP112      0.0946
     74  CD2       21.0380   -4.3870   -5.4930 C.ar  112  TRP112      0.0152
     75  NE1       19.6530   -2.8610   -4.6640 N.ar  112  TRP112     -0.2442
     76  CE2       19.9900   -4.1840   -4.5900 C.ar  112  TRP112      0.0810
     77  CE3       21.6020   -5.6680   -5.6000 C.ar  112  TRP112      0.0012
     78  CZ2       19.4920   -5.2040   -3.7860 C.ar  112  TRP112      0.0191
     79  CZ3       21.1100   -6.6890   -4.8230 C.ar  112  TRP112      0.0001
     80  CH2       20.0550   -6.4470   -3.9030 C.ar  112  TRP112      0.0015
     81  N         12.6080    0.4630  -11.8890 N.3   123  PHE123     -0.1241
     82  CA        12.9060   -0.9100  -12.2700 C.3   123  PHE123      0.1605
     83  C         12.3690   -1.1270  -13.6910 C.2   123  PHE123      0.2264
     84  O         11.2720   -1.6730  -13.8590 O.2   123  PHE123     -0.2867
     85  CB        12.2900   -1.9270  -11.3660 C.3   123  PHE123      0.0534
     86  CG        12.8710   -1.9470   -9.9780 C.ar  123  PHE123     -0.0203
     87  CD1       12.4330   -1.0610   -9.0360 C.ar  123  PHE123     -0.0042
     88  CD2       13.8430   -2.8740   -9.6410 C.ar  123  PHE123     -0.0042
     89  CE1       12.9310   -1.0970   -7.7310 C.ar  123  PHE123     -0.0003
     90  CE2       14.3660   -2.9090   -8.3490 C.ar  123  PHE123     -0.0003
     91  CZ        13.9200   -2.0110   -7.4070 C.ar  123  PHE123     -0.0000
     92  N         11.4410   -2.7920  -16.8470 N.3   125  LEU125     -0.1245
     93  CA        11.2950   -4.2340  -17.1000 C.3   125  LEU125      0.1561
     94  C         11.0740   -4.5030  -18.5790 C.2   125  LEU125      0.2260
     95  O         10.4620   -3.6790  -19.2460 O.2   125  LEU125     -0.2867
     96  CB        10.0980   -4.7740  -16.3260 C.3   125  LEU125      0.0270
     97  CG        10.1910   -4.8150  -14.7910 C.3   125  LEU125      0.0019
     98  CD1        9.0390   -5.6280  -14.2140 C.3   125  LEU125      0.0001
     99  CD2       11.5040   -5.4290  -14.3270 C.3   125  LEU125      0.0001
    100  N         22.5480   -4.8790    6.5780 N.3   210  TYR210     -0.1241
    101  CA        21.1390   -4.5240    6.3750 C.3   210  TYR210      0.1605
    102  C         20.1740   -5.6840    6.6050 C.2   210  TYR210      0.2264
    103  O         20.5630   -6.8480    6.6810 O.2   210  TYR210     -0.2867
    104  CB        20.9350   -3.8240    4.9980 C.3   210  TYR210      0.0534
    105  CG        20.9130   -4.6100    3.6750 C.ar  210  TYR210     -0.0201
    106  CD1       19.9040   -5.5610    3.4190 C.ar  210  TYR210     -0.0009
    107  CD2       21.8470   -4.3910    2.6880 C.ar  210  TYR210     -0.0009
    108  CE1       19.8140   -6.1620    2.1790 C.ar  210  TYR210      0.0417
    109  CE2       21.7450   -4.9970    1.4300 C.ar  210  TYR210      0.0417
    110  CZ        20.6950   -5.8730    1.1920 C.ar  210  TYR210      0.1957
    111  OH        20.5350   -6.5010   -0.0240 O.3   210  TYR210     -0.2866
    112  N          7.9240   -6.3900    0.7930 N.3   219  PRO219     -0.2102
    113  CA         6.5690   -6.5230    0.1930 C.3   219  PRO219      0.1504
    114  C          6.2940   -7.9190   -0.4190 C.2   219  PRO219      0.2575
    115  O          5.1500   -8.2680   -0.6470 O.2   219  PRO219     -0.2718
    116  CB         6.5140   -5.3940   -0.8520 C.3   219  PRO219      0.0282
    117  CG         7.9460   -4.9740   -1.0600 C.3   219  PRO219      0.0208
    118  CD         8.6500   -5.2290    0.2620 C.3   219  PRO219      0.0893
    119  N          7.3550   -8.6870   -0.6630 N.am  220  TRP220     -0.1977
    120  CA         7.2890  -10.0040   -1.3100 C.3   220  TRP220      0.1640
    121  C          7.3190  -11.1560   -0.3440 C.2   220  TRP220      0.2290
    122  O          7.4920  -12.3200   -0.7520 O.2   220  TRP220     -0.2864
    123  CB         8.4380  -10.1060   -2.3540 C.3   220  TRP220      0.0576
    124  CG         9.7570   -9.8200   -1.8170 C.ar  220  TRP220      0.0006
    125  CD1       10.5580  -10.6610   -1.1220 C.ar  220  TRP220      0.0946
    126  CD2       10.4620   -8.5970   -1.9400 C.ar  220  TRP220      0.0152
    127  NE1       11.7500  -10.0350   -0.7850 N.ar  220  TRP220     -0.2442
    128  CE2       11.7020   -8.7580   -1.2740 C.ar  220  TRP220      0.0810
    129  CE3       10.1840   -7.3820   -2.5900 C.ar  220  TRP220      0.0012
    130  CZ2       12.6550   -7.7530   -1.2470 C.ar  220  TRP220      0.0191
    131  CZ3       11.1450   -6.3660   -2.5330 C.ar  220  TRP220      0.0001
    132  CH2       12.3490   -6.5630   -1.8530 C.ar  220  TRP220      0.0015
    133  N         16.7630   -9.9620    0.0120 N.3   299  CYS299     -0.1235
    134  CA        16.9790   -9.1710   -1.1700 C.3   299  CYS299      0.1677
    135  C         17.8490   -9.8930   -2.1660 C.2   299  CYS299      0.2270
    136  O         19.0860   -9.7480   -2.1570 O.2   299  CYS299     -0.2867
    137  CB        17.6330   -7.8370   -0.8420 C.3   299  CYS299      0.0956
    138  SG        16.5800   -6.6320   -0.0180 S.3   299  CYS299     -0.0801
    139  N         17.2200   -9.7210   -5.6350 N.3   301  LEU301     -0.1245
    140  CA        17.1920   -8.9900   -6.9420 C.3   301  LEU301      0.1561
    141  C         16.8810   -9.9450   -8.0990 C.2   301  LEU301      0.2260
    142  O         17.5990  -10.0120   -9.1150 O.2   301  LEU301     -0.2867
    143  CB        18.5190   -8.2420   -7.1680 C.3   301  LEU301      0.0270
    144  CG        18.4910   -7.0750   -8.1760 C.3   301  LEU301      0.0019
    145  CD1       17.7670   -5.8760   -7.6020 C.3   301  LEU301      0.0001
    146  CD2       19.8940   -6.6780   -8.5980 C.3   301  LEU301      0.0001
@<TRIPOS>BOND
     1    95    94    2
     2    94    93    1
     3    93    92    1
     4    93    96    1
     5    96    97    1
     6    97    99    1
     7    97    98    1
     8    84    83    2
     9    83    82    1
    10    82    81    1
    11    82    85    1
    12    85    86    1
    13    86    88   ar
    14    86    87   ar
    15    46    45    2
    16    88    90   ar
    17    51    49   ar
    18    51    52   ar
    19    49    48   ar
    20    45    44    1
    21   142   141    2
    22    87    89   ar
    23   146   144    1
    24    52    54   ar
    25    52    50   ar
    26    70    69    2
    27    90    91   ar
    28   144   145    1
    29   144   143    1
    30    48    47    1
    31    48    50   ar
    32   141   140    1
    33    54    56   ar
    34    47    44    1
    35    44    43    1
    36    89    91   ar
    37    69    68    1
    38    50    53   ar
    39   143   140    1
    40    71    68    1
    41    71    72    1
    42   140   139    1
    43    56    55   ar
    44    68    67    1
    45    53    55   ar
    46    72    73   ar
    47    72    74   ar
    48    67    59   am
    49    21    19    1
    50    77    74   ar
    51    77    79   ar
    52    73    75   ar
    53    41    40    2
    54    74    76   ar
    55    57    58    1
    56    40    42   am
    57    40    39    1
    58    19    16    1
    59    19    20    1
    60    79    80   ar
    61    59    58    1
    62    59    60    2
    63    75    76   ar
    64    61    58    1
    65    61    62    1
    66    76    78   ar
    67    16    15    1
    68    16    17    1
    69    39    38    1
    70    80    78   ar
    71    62    63   ar
    72    62    64   ar
    73    18    17    2
    74    63    65   ar
    75    17    22   am
    76    64    66   ar
    77    38    35    1
    78   129   131   ar
    79   129   126   ar
    80   131   132   ar
    81    65    66   ar
    82   123   124    1
    83   123   120    1
    84   135   136    2
    85   135   134    1
    86    35    34    1
    87    35    36    1
    88    22    23    1
    89   126   124   ar
    90   126   128   ar
    91   132   130   ar
    92   124   125   ar
    93    34    24   am
    94   120   119    1
    95   120   121    1
    96   128   130   ar
    97   128   127   ar
    98   134   137    1
    99   134   133    1
   100   125   127   ar
   101   117   116    1
   102   117   118    1
   103    24    23    1
   104    24    25    2
   105    36    37    2
   106    23    26    1
   107   116   113    1
   108   137   138    1
   109   122   121    2
   110   119   114   am
   111   115   114    2
   112   114   113    1
   113    28    30   ar
   114    28    27   ar
   115   111   110    1
   116    30    32   ar
   117     9    10   ar
   118     9     7   ar
   119   113   112    1
   120    12    10   ar
   121    12    14   ar
   122   118   112    1
   123    26    27    1
   124    10     8   ar
   125    27    29   ar
   126     7     6   ar
   127    14    13   ar
   128    32    33    1
   129    32    31   ar
   130   110   109   ar
   131   110   108   ar
   132   109   107   ar
   133     8     6   ar
   134     8    11   ar
   135    29    31   ar
   136     6     5    1
   137    13    11   ar
   138   108   106   ar
   139   107   105   ar
   140     5     2    1
   141     2     3    1
   142     2     1    1
   143   106   105   ar
   144   105   104    1
   145     3     4    2
   146   104   101    1
   147   101   100    1
   148   101   102    1
   149   102   103    2
