@<TRIPOS>MOLECULE
tmp/5ha9B00.pdb
 196 191 0 0 0
SMALL
GASTEIGER

@<TRIPOS>ATOM
      1  N        -14.8850   12.6820   -9.8000 N.3   103  GLU103     -0.1245
      2  CA       -14.8850   11.8240   -8.6120 C.3   103  GLU103      0.1567
      3  C        -15.9970   12.2030   -7.6270 C.2   103  GLU103      0.2260
      4  O        -16.4280   11.3760   -6.8270 O.2   103  GLU103     -0.2867
      5  CB       -13.5180   11.8660   -7.9120 C.3   103  GLU103      0.0388
      6  CG       -12.3870   11.2060   -8.6980 C.3   103  GLU103      0.1160
      7  CD       -11.0540   11.1920   -7.9550 C.2   103  GLU103      0.3649
      8  OE1      -10.9490   11.8140   -6.8740 O.co2 103  GLU103     -0.2457
      9  OE2      -10.1010   10.5540   -8.4560 O.co2 103  GLU103     -0.2457
     10  N        -19.4230   10.5740   -9.1060 N.3   106  ASP106     -0.1225
     11  CA       -19.3630    9.1450   -8.7950 C.3   106  ASP106      0.1805
     12  C        -20.0590    8.8850   -7.4710 C.2   106  ASP106      0.2597
     13  O        -20.9590    8.0510   -7.3840 O.2   106  ASP106     -0.2718
     14  CB       -17.9120    8.6640   -8.6990 C.3   106  ASP106      0.1424
     15  CG       -17.2070    8.6330  -10.0430 C.2   106  ASP106      0.3668
     16  OD1      -17.7010    9.2600  -11.0040 O.co2 106  ASP106     -0.2456
     17  OD2      -16.1460    7.9810  -10.1330 O.co2 106  ASP106     -0.2456
     18  N        -19.6380    9.6210   -6.4460 N.am  107  ASN107     -0.1974
     19  CA       -20.2420    9.5200   -5.1230 C.3   107  ASN107      0.1688
     20  C        -21.7080    9.9230   -5.1560 C.2   107  ASN107      0.2292
     21  O        -22.5680    9.1710   -4.7010 O.2   107  ASN107     -0.2864
     22  CB       -19.4880   10.3840   -4.1090 C.3   107  ASN107      0.1181
     23  CG       -18.1060    9.8450   -3.8020 C.2   107  ASN107      0.2629
     24  OD1      -17.9470    8.9780   -2.9450 O.2   107  ASN107     -0.2716
     25  ND2      -17.0980   10.3590   -4.4960 N.am  107  ASN107     -0.0877
     26  N        -23.5290    7.1600   -6.3280 N.3   110  ASP110     -0.1239
     27  CA       -23.5130    6.0820   -5.3300 C.3   110  ASP110      0.1674
     28  C        -24.3370    6.4220   -4.0890 C.2   110  ASP110      0.2266
     29  O        -24.9460    5.5390   -3.4840 O.2   110  ASP110     -0.2867
     30  CB       -22.0760    5.7530   -4.9120 C.3   110  ASP110      0.1410
     31  CG       -21.2500    5.1790   -6.0480 C.2   110  ASP110      0.3668
     32  OD1      -21.7750    4.3370   -6.8070 O.co2 110  ASP110     -0.2456
     33  OD2      -20.0710    5.5670   -6.1810 O.co2 110  ASP110     -0.2456
     34  N         -7.3780   -5.0650   -3.7460 N.3   201  TRP201     -0.1227
     35  CA        -7.9830   -4.0820   -2.8510 C.3   201  TRP201      0.1737
     36  C         -8.8300   -3.0740   -3.6050 C.2   201  TRP201      0.2595
     37  O         -8.4820   -2.6550   -4.7090 O.2   201  TRP201     -0.2718
     38  CB        -6.9000   -3.3290   -2.0850 C.3   201  TRP201      0.0564
     39  CG        -6.0560   -4.2230   -1.2720 C.ar  201  TRP201      0.0003
     40  CD1       -4.7400   -4.5020   -1.4620 C.ar  201  TRP201      0.0946
     41  CD2       -6.4740   -4.9880   -0.1430 C.ar  201  TRP201      0.0152
     42  NE1       -4.3010   -5.3850   -0.5090 N.ar  201  TRP201     -0.2442
     43  CE2       -5.3500   -5.7030    0.3140 C.ar  201  TRP201      0.0810
     44  CE3       -7.6890   -5.1300    0.5350 C.ar  201  TRP201      0.0012
     45  CZ2       -5.4030   -6.5510    1.4180 C.ar  201  TRP201      0.0191
     46  CZ3       -7.7420   -5.9730    1.6310 C.ar  201  TRP201      0.0001
     47  CH2       -6.6070   -6.6750    2.0600 C.ar  201  TRP201      0.0015
     48  N         -9.9370   -2.6800   -2.9870 N.am  202  HIS202     -0.1961
     49  CA       -10.8190   -1.6700   -3.5460 C.3   202  HIS202      0.1787
     50  C        -11.4960   -0.9400   -2.3990 C.2   202  HIS202      0.2621
     51  O        -12.3930   -1.4830   -1.7540 O.2   202  HIS202     -0.2715
     52  CB       -11.8600   -2.3210   -4.4520 C.3   202  HIS202      0.0785
     53  CG       -12.7540   -1.3440   -5.1490 C.ar  202  HIS202      0.0821
     54  ND1      -12.8390   -1.2650   -6.5210 N.ar  202  HIS202     -0.2267
     55  CD2      -13.6010   -0.4050   -4.6640 C.ar  202  HIS202      0.1154
     56  CE1      -13.7050   -0.3250   -6.8530 C.ar  202  HIS202      0.1986
     57  NE2      -14.1780    0.2150   -5.7440 N.ar  202  HIS202     -0.2212
     58  N        -11.0610    0.2910   -2.1500 N.am  203  GLY203     -0.1940
     59  CA       -11.5550    1.0820   -1.0310 C.3   203  GLY203      0.2014
     60  C        -12.2710    2.3290   -1.5040 C.2   203  GLY203      0.2639
     61  O        -11.6920    3.1500   -2.2100 O.2   203  GLY203     -0.2714
     62  N        -13.5360    2.4630   -1.1190 N.am  204  SER204     -0.1949
     63  CA       -14.3200    3.6510   -1.4270 C.3   204  SER204      0.1924
     64  C        -14.7840    4.3080   -0.1380 C.2   204  SER204      0.2314
     65  O        -14.6600    3.7320    0.9460 O.2   204  SER204     -0.2863
     66  CB       -15.5290    3.2830   -2.2820 C.3   204  SER204      0.2116
     67  OG       -16.3220    4.4260   -2.5480 O.3   204  SER204     -0.2180
     68  N        -20.7190    5.1410    0.0570 N.3   208  ASN208     -0.1240
     69  CA       -20.9860    4.5500   -1.2590 C.3   208  ASN208      0.1653
     70  C        -21.3810    3.0770   -1.2120 C.2   208  ASN208      0.2266
     71  O        -22.1220    2.6070   -2.0750 O.2   208  ASN208     -0.2867
     72  CB       -19.7590    4.6940   -2.1640 C.3   208  ASN208      0.1155
     73  CG       -19.3380    6.1370   -2.3600 C.2   208  ASN208      0.2627
     74  OD1      -19.7960    7.0370   -1.6550 O.2   208  ASN208     -0.2716
     75  ND2      -18.4510    6.3630   -3.3210 N.am  208  ASN208     -0.0877
     76  N        -22.7990   -0.0540   -3.8840 N.3   212  ILE212     -0.1245
     77  CA       -21.8330   -1.0420   -4.3680 C.3   212  ILE212      0.1561
     78  C        -22.3070   -2.4670   -4.0780 C.2   212  ILE212      0.2260
     79  O        -22.1700   -3.3490   -4.9200 O.2   212  ILE212     -0.2867
     80  CB       -20.4390   -0.8220   -3.7410 C.3   212  ILE212      0.0252
     81  CG1      -19.8420    0.5000   -4.2360 C.3   212  ILE212      0.0019
     82  CG2      -19.5030   -1.9780   -4.0780 C.3   212  ILE212      0.0019
     83  CD1      -18.6480    0.9800   -3.4380 C.3   212  ILE212      0.0001
     84  N        -20.0150   -3.3680   -8.2410 N.3   217  LEU217     -0.1231
     85  CA       -19.1350   -2.2980   -8.7050 C.3   217  LEU217      0.1693
     86  C        -19.5890   -1.8620  -10.0840 C.2   217  LEU217      0.2591
     87  O        -20.1360   -2.6610  -10.8480 O.2   217  LEU217     -0.2718
     88  CB       -17.6690   -2.7440   -8.7470 C.3   217  LEU217      0.0284
     89  CG       -16.9250   -2.7560   -7.4110 C.3   217  LEU217      0.0019
     90  CD1      -15.5190   -3.3000   -7.6010 C.3   217  LEU217      0.0001
     91  CD2      -16.8790   -1.3650   -6.7940 C.3   217  LEU217      0.0001
     92  N        -19.3720   -0.5890  -10.3940 N.am  218  ARG218     -0.1980
     93  CA       -19.8680   -0.0260  -11.6380 C.3   218  ARG218      0.1597
     94  C        -18.8550    0.8820  -12.3130 C.2   218  ARG218      0.2287
     95  O        -18.0720    1.5700  -11.6570 O.2   218  ARG218     -0.2864
     96  CB       -21.1750    0.7270  -11.3880 C.3   218  ARG218      0.0334
     97  CG       -22.3580   -0.1880  -11.1080 C.3   218  ARG218      0.0492
     98  CD       -23.6530    0.5940  -10.9740 C.3   218  ARG218      0.2205
     99  NE       -23.6720    1.4210   -9.7680 N.pl3 218  ARG218     -0.0865
    100  CZ       -24.6200    2.3080   -9.4700 C.cat 218  ARG218      0.5346
    101  NH1      -24.5350    3.0070   -8.3430 N.pl3 218  ARG218      0.1354
    102  NH2      -25.6510    2.5060  -10.2880 N.pl3 218  ARG218      0.1354
    103  N        -10.6540   10.3180  -15.3880 N.3   229  TYR229     -0.1241
    104  CA        -9.9210    9.2300  -14.7410 C.3   229  TYR229      0.1605
    105  C         -8.6000    8.9780  -15.4590 C.2   229  TYR229      0.2264
    106  O         -8.5110    9.1460  -16.6720 O.2   229  TYR229     -0.2867
    107  CB       -10.7610    7.9540  -14.7530 C.3   229  TYR229      0.0534
    108  CG       -12.2210    8.1750  -14.4350 C.ar  229  TYR229     -0.0201
    109  CD1      -12.6630    8.2380  -13.1180 C.ar  229  TYR229     -0.0009
    110  CD2      -13.1600    8.3220  -15.4520 C.ar  229  TYR229     -0.0009
    111  CE1      -14.0000    8.4400  -12.8220 C.ar  229  TYR229      0.0417
    112  CE2      -14.4990    8.5240  -15.1660 C.ar  229  TYR229      0.0417
    113  CZ       -14.9140    8.5800  -13.8490 C.ar  229  TYR229      0.1957
    114  OH       -16.2430    8.7830  -13.5560 O.3   229  TYR229     -0.2866
    115  N        -13.1980   -0.1490  -13.9800 N.3   235  ILE235     -0.1231
    116  CA       -13.2880   -0.5420  -12.5720 C.3   235  ILE235      0.1692
    117  C        -11.8740   -0.6750  -12.0110 C.2   235  ILE235      0.2592
    118  O        -11.1860   -1.6600  -12.2720 O.2   235  ILE235     -0.2718
    119  CB       -14.0670   -1.8650  -12.3960 C.3   235  ILE235      0.0266
    120  CG1      -15.5070   -1.6970  -12.8900 C.3   235  ILE235      0.0019
    121  CG2      -14.0730   -2.3060  -10.9360 C.3   235  ILE235      0.0020
    122  CD1      -16.3810   -2.9150  -12.6810 C.3   235  ILE235      0.0001
    123  N        -11.4600    0.3170  -11.2280 N.am  236  TYR236     -0.1962
    124  CA       -10.0820    0.4080  -10.7420 C.3   236  TYR236      0.1771
    125  C         -9.8180   -0.5090   -9.5510 C.2   236  TYR236      0.2620
    126  O        -10.7470   -0.9460   -8.8720 O.2   236  TYR236     -0.2715
    127  CB        -9.7620    1.8450  -10.3430 C.3   236  TYR236      0.0574
    128  CG        -9.5620    2.7880  -11.5090 C.ar  236  TYR236     -0.0198
    129  CD1      -10.6330    3.1820  -12.3100 C.ar  236  TYR236     -0.0009
    130  CD2       -8.3000    3.2980  -11.8060 C.ar  236  TYR236     -0.0009
    131  CE1      -10.4500    4.0480  -13.3770 C.ar  236  TYR236      0.0417
    132  CE2       -8.1090    4.1660  -12.8680 C.ar  236  TYR236      0.0417
    133  CZ        -9.1850    4.5370  -13.6510 C.ar  236  TYR236      0.1957
    134  OH        -8.9950    5.3960  -14.7090 O.3   236  TYR236     -0.2866
    135  N         -8.5370   -0.7740   -9.3010 N.am  237  PHE237     -0.1960
    136  CA        -8.0990   -1.6720   -8.2290 C.3   237  PHE237      0.1771
    137  C         -6.6980   -1.3000   -7.7420 C.2   237  PHE237      0.2619
    138  O         -6.0940   -0.3420   -8.2280 O.2   237  PHE237     -0.2715
    139  CB        -8.0970   -3.1230   -8.7250 C.3   237  PHE237      0.0574
    140  CG        -9.4530   -3.7610   -8.7450 C.ar  237  PHE237     -0.0200
    141  CD1       -9.9800   -4.3270   -7.5940 C.ar  237  PHE237     -0.0042
    142  CD2      -10.2010   -3.8050   -9.9140 C.ar  237  PHE237     -0.0042
    143  CE1      -11.2300   -4.9200   -7.6060 C.ar  237  PHE237     -0.0003
    144  CE2      -11.4530   -4.3950   -9.9340 C.ar  237  PHE237     -0.0003
    145  CZ       -11.9680   -4.9540   -8.7780 C.ar  237  PHE237     -0.0000
    146  N         -6.1960   -2.0600   -6.7700 N.am  238  ALA238     -0.1977
    147  CA        -4.8080   -1.9550   -6.3240 C.3   238  ALA238      0.1597
    148  C         -4.3930   -3.2250   -5.5880 C.2   238  ALA238      0.2287
    149  O         -5.2300   -3.8920   -4.9790 O.2   238  ALA238     -0.2864
    150  CB        -4.6280   -0.7450   -5.4200 C.3   238  ALA238      0.0319
    151  N         -2.9380    2.0510   -0.5280 N.3   243  LYS243     -0.1231
    152  CA        -3.3170    2.8030   -1.7220 C.3   243  LYS243      0.1693
    153  C         -4.8340    2.8860   -1.8770 C.2   243  LYS243      0.2592
    154  O         -5.3900    3.9750   -2.0200 O.2   243  LYS243     -0.2718
    155  CB        -2.7020    2.1580   -2.9650 C.3   243  LYS243      0.0285
    156  CG        -2.8860    2.9520   -4.2480 C.3   243  LYS243      0.0035
    157  CD        -2.0180    2.3860   -5.3580 C.3   243  LYS243      0.0206
    158  CE        -2.1390    3.1950   -6.6380 C.3   243  LYS243      0.1093
    159  NZ        -1.1940    2.7150   -7.6840 N.3   243  LYS243     -0.1314
    160  N         -5.4960    1.7330   -1.8470 N.am  244  SER244     -0.1952
    161  CA        -6.9570    1.6780   -1.9300 C.3   244  SER244      0.1924
    162  C         -7.6110    2.3080   -0.7010 C.2   244  SER244      0.2314
    163  O         -8.6500    2.9570   -0.8120 O.2   244  SER244     -0.2863
    164  CB        -7.4380    0.2320   -2.0920 C.3   244  SER244      0.2116
    165  OG        -7.2340   -0.2320   -3.4150 O.3   244  SER244     -0.2180
    166  N         -8.6990    6.1070   -0.5390 N.3   247  TYR247     -0.1241
    167  CA        -9.9610    6.5360   -1.1410 C.3   247  TYR247      0.1605
    168  C        -11.1810    6.2660   -0.2500 C.2   247  TYR247      0.2264
    169  O        -12.3100    6.5690   -0.6410 O.2   247  TYR247     -0.2867
    170  CB       -10.1480    5.8730   -2.5040 C.3   247  TYR247      0.0534
    171  CG        -9.0630    6.2080   -3.5000 C.ar  247  TYR247     -0.0201
    172  CD1       -8.8960    7.5110   -3.9670 C.ar  247  TYR247     -0.0009
    173  CD2       -8.2070    5.2210   -3.9850 C.ar  247  TYR247     -0.0009
    174  CE1       -7.9040    7.8210   -4.8830 C.ar  247  TYR247      0.0417
    175  CE2       -7.2130    5.5210   -4.9020 C.ar  247  TYR247      0.0417
    176  CZ        -7.0650    6.8210   -5.3480 C.ar  247  TYR247      0.1957
    177  OH        -6.0780    7.1200   -6.2590 O.3   247  TYR247     -0.2866
    178  N        -11.1390    7.9020    2.3780 N.3   249  HIS249     -0.1241
    179  CA       -11.1700    9.3010    2.7680 C.3   249  HIS249      0.1621
    180  C        -11.6410    9.4310    4.2020 C.2   249  HIS249      0.2264
    181  O        -12.6740   10.0340    4.4950 O.2   249  HIS249     -0.2867
    182  CB       -12.0230   10.1200    1.8020 C.3   249  HIS249      0.0745
    183  CG       -11.4500   10.1890    0.4230 C.ar  249  HIS249      0.0817
    184  ND1      -10.1930   10.6940    0.1700 N.ar  249  HIS249     -0.2268
    185  CD2      -11.9500    9.8050   -0.7750 C.ar  249  HIS249      0.1154
    186  CE1       -9.9460   10.6240   -1.1260 C.ar  249  HIS249      0.1986
    187  NE2      -10.9960   10.0890   -1.7220 N.ar  249  HIS249     -0.2212
    188  N         -1.7740   -0.2570  -10.0280 N.3   328  GLU328     -0.1245
    189  CA        -3.2280   -0.1510   -9.9790 C.3   328  GLU328      0.1567
    190  C         -3.7940   -0.7920  -11.2350 C.2   328  GLU328      0.2260
    191  O         -3.3540   -0.5040  -12.3470 O.2   328  GLU328     -0.2867
    192  CB        -3.6980    1.3010   -9.8090 C.3   328  GLU328      0.0388
    193  CG        -3.2610    2.2810  -10.8880 C.3   328  GLU328      0.1160
    194  CD        -3.6790    3.7100  -10.5730 C.2   328  GLU328      0.3649
    195  OE1       -4.3560    4.3380  -11.4150 O.co2 328  GLU328     -0.2457
    196  OE2       -3.3390    4.2080   -9.4780 O.co2 328  GLU328     -0.2457
@<TRIPOS>BOND
     1   106   105    2
     2   105   104    1
     3   110   112   ar
     4   110   108   ar
     5   103   104    1
     6   112   113   ar
     7   107   104    1
     8   107   108    1
     9   134   133    1
    10   108   109   ar
    11   115   116    1
    12   113   114    1
    13   113   111   ar
    14   133   131   ar
    15   133   132   ar
    16   131   129   ar
    17   109   111   ar
    18   120   122    1
    19   120   119    1
    20   132   130   ar
    21   116   119    1
    22   116   117    1
    23   119   121    1
    24   191   190    2
    25    94    95    2
    26    94    93    1
    27   129   128   ar
    28   118   117    2
    29   117   123   am
    30   130   128   ar
    31    93    96    1
    32    93    92    1
    33   128   127    1
    34   195   194   ar
    35    96    97    1
    36   190   189    1
    37   123   124    1
    38    97    98    1
    39    16    15   ar
    40    98    99    1
    41   193   194    1
    42   193   192    1
    43    87    86    2
    44   124   127    1
    45   124   125    1
    46   194   196   ar
    47    92    86   am
    48   102   100    1
    49    17    15   ar
    50    86    85    1
    51    15    14    1
    52   188   189    1
    53   189   192    1
    54   144   142   ar
    55   144   145   ar
    56   142   140   ar
    57     1     2    1
    58    99   100    2
    59   125   135   am
    60   125   126    2
    61   100   101    1
    62   135   136    1
    63    10    11    1
    64    11    14    1
    65    11    12    1
    66   145   143   ar
    67    88    85    1
    68    88    89    1
    69   140   139    1
    70   140   141   ar
    71   139   136    1
    72    85    84    1
    73     6     7    1
    74     6     5    1
    75     2     5    1
    76     2     3    1
    77     9     7   ar
    78   136   137    1
    79   138   137    2
    80     7     8   ar
    81   137   146   am
    82   159   158    1
    83     3     4    2
    84   143   141   ar
    85    90    89    1
    86    12    13    2
    87    12    18   am
    88    89    91    1
    89    56    54   ar
    90    56    57   ar
    91    32    31   ar
    92   146   147    1
    93   158   157    1
    94    54    53   ar
    95    18    19    1
    96    26    27    1
    97   147   148    1
    98   147   150    1
    99   177   176    1
   100    33    31   ar
   101    31    30    1
   102    57    55   ar
   103   148   149    2
   104   157   156    1
   105   176   175   ar
   106   176   174   ar
   107    27    30    1
   108    27    28    1
   109    20    19    1
   110    20    21    2
   111    53    55   ar
   112    53    52    1
   113    19    22    1
   114    79    78    2
   115   175   173   ar
   116   174   172   ar
   117    37    36    2
   118    25    23   am
   119    52    49    1
   120    77    78    1
   121    77    76    1
   122    77    80    1
   123   156   155    1
   124    81    80    1
   125    81    83    1
   126    22    23    1
   127    28    29    2
   128    82    80    1
   129   173   171   ar
   130   172   171   ar
   131    23    24    2
   132    34    35    1
   133    36    48   am
   134    36    35    1
   135    49    48    1
   136    49    50    1
   137   171   170    1
   138   165   164    1
   139    75    73   am
   140   155   152    1
   141    35    38    1
   142    67    66    1
   143   170   167    1
   144    50    58   am
   145    50    51    2
   146    73    72    1
   147    73    74    2
   148    66    63    1
   149    61    60    2
   150    72    69    1
   151    58    59    1
   152   164   161    1
   153    38    39    1
   154    71    70    2
   155   154   153    2
   156   161   160    1
   157   161   162    1
   158   153   160   am
   159   153   152    1
   160   187   186   ar
   161   187   185   ar
   162   152   151    1
   163    60    62   am
   164    60    59    1
   165    40    39   ar
   166    40    42   ar
   167    63    62    1
   168    63    64    1
   169    39    41   ar
   170    69    70    1
   171    69    68    1
   172   167   166    1
   173   167   168    1
   174   186   184   ar
   175   163   162    2
   176   185   183   ar
   177   169   168    2
   178    42    43   ar
   179    41    43   ar
   180    41    44   ar
   181    64    65    2
   182   184   183   ar
   183    43    45   ar
   184   183   182    1
   185    44    46   ar
   186    45    47   ar
   187    46    47   ar
   188   182   179    1
   189   178   179    1
   190   179   180    1
   191   180   181    2
