@<TRIPOS>MOLECULE
tmp/5hapA04.pdb
 93 90 0 0 0
SMALL
GASTEIGER

@<TRIPOS>ATOM
      1  N         49.2960  -18.2820   -0.3100 N.3    77  ILE77      -0.1245
      2  CA        48.4410  -18.3430   -1.4730 C.3    77  ILE77       0.1561
      3  C         47.8620  -19.7410   -1.5670 C.2    77  ILE77       0.2260
      4  O         48.5480  -20.6820   -1.8210 O.2    77  ILE77      -0.2867
      5  CB        49.2420  -17.9730   -2.7050 C.3    77  ILE77       0.0252
      6  CG1       50.0680  -16.7200   -2.4380 C.3    77  ILE77       0.0019
      7  CG2       48.3570  -17.8100   -3.8980 C.3    77  ILE77       0.0019
      8  CD1       49.3510  -15.4460   -2.5590 C.3    77  ILE77       0.0001
      9  N         46.0980  -21.2890   -3.7400 N.3    79  THR79      -0.1203
     10  CA        46.3040  -22.0000   -4.9800 C.3    79  THR79       0.1994
     11  C         47.6770  -22.6560   -5.0660 C.2    79  THR79       0.2617
     12  O         47.8400  -23.5900   -5.7930 O.2    79  THR79      -0.2717
     13  CB        46.0100  -21.1490   -6.2070 C.3    79  THR79       0.1784
     14  OG1       46.8360  -20.0130   -6.2110 O.3    79  THR79      -0.2211
     15  CG2       44.5990  -20.7330   -6.2060 C.3    79  THR79       0.0376
     16  N         48.6400  -22.1600   -4.3190 N.am   80  TRP80      -0.1975
     17  CA        49.9580  -22.7440   -4.2780 C.3    80  TRP80       0.1640
     18  C         50.0340  -24.1030   -3.5230 C.2    80  TRP80       0.2290
     19  O         50.9390  -24.8620   -3.7100 O.2    80  TRP80      -0.2864
     20  CB        50.9770  -21.7770   -3.6980 C.3    80  TRP80       0.0576
     21  CG        51.2710  -20.5430   -4.4900 C.ar   80  TRP80       0.0006
     22  CD1       50.6290  -20.0900   -5.5910 C.ar   80  TRP80       0.0946
     23  CD2       52.2860  -19.6090   -4.2190 C.ar   80  TRP80       0.0152
     24  NE1       51.1790  -18.9420   -6.0230 N.ar   80  TRP80      -0.2442
     25  CE2       52.2130  -18.6140   -5.2000 C.ar   80  TRP80       0.0810
     26  CE3       53.2590  -19.5140   -3.2440 C.ar   80  TRP80       0.0012
     27  CZ2       53.0820  -17.5400   -5.2200 C.ar   80  TRP80       0.0191
     28  CZ3       54.0930  -18.4660   -3.2610 C.ar   80  TRP80       0.0001
     29  CH2       54.0130  -17.4870   -4.2430 C.ar   80  TRP80       0.0015
     30  N         49.9380  -20.1520  -14.5200 N.3    91  LYS91      -0.1231
     31  CA        48.6890  -19.4650  -14.3010 C.3    91  LYS91       0.1693
     32  C         48.5600  -18.8580  -12.8970 C.2    91  LYS91       0.2592
     33  O         48.0770  -17.8150  -12.7450 O.2    91  LYS91      -0.2718
     34  CB        47.5390  -20.4450  -14.5310 C.3    91  LYS91       0.0285
     35  CG        46.1540  -19.9250  -14.3060 C.3    91  LYS91       0.0035
     36  CD        45.1370  -21.0150  -14.5530 C.3    91  LYS91       0.0206
     37  CE        43.7340  -20.5270  -14.3580 C.3    91  LYS91       0.1093
     38  NZ        42.6970  -21.5720  -14.4020 N.3    91  LYS91      -0.1314
     39  N         48.9720  -19.5810  -11.8930 N.am   92  TYR92      -0.1962
     40  CA        48.8570  -19.1410  -10.5250 C.3    92  TYR92       0.1771
     41  C         50.1760  -18.5830   -9.9990 C.2    92  TYR92       0.2620
     42  O         50.2850  -18.3630   -8.8410 O.2    92  TYR92      -0.2715
     43  CB        48.3040  -20.2810   -9.6390 C.3    92  TYR92       0.0574
     44  CG        46.9070  -20.7080   -9.9800 C.ar   92  TYR92      -0.0198
     45  CD1       45.8310  -19.9200   -9.7050 C.ar   92  TYR92      -0.0009
     46  CD2       46.6780  -21.8880  -10.6270 C.ar   92  TYR92      -0.0009
     47  CE1       44.5600  -20.2960  -10.0440 C.ar   92  TYR92       0.0417
     48  CE2       45.4110  -22.2830  -10.9760 C.ar   92  TYR92       0.0417
     49  CZ        44.3510  -21.4920  -10.6810 C.ar   92  TYR92       0.1957
     50  OH        43.1200  -21.8820  -11.0210 O.3    92  TYR92      -0.2866
     51  N         51.1550  -18.4400  -10.8750 N.am   93  SER93      -0.1950
     52  CA        52.4350  -17.9060  -10.4870 C.3    93  SER93       0.1924
     53  C         53.0390  -18.5910   -9.2650 C.2    93  SER93       0.2314
     54  O         53.3810  -17.9490   -8.3120 O.2    93  SER93      -0.2863
     55  CB        52.3420  -16.4040  -10.2460 C.3    93  SER93       0.2116
     56  OG        51.9550  -15.7260  -11.3550 O.3    93  SER93      -0.2180
     57  N         54.7630   -9.3610   -9.9600 N.3   186  TYR186     -0.1241
     58  CA        54.6820   -8.4330   -8.8310 C.3   186  TYR186      0.1605
     59  C         56.0200   -8.4550   -8.0980 C.2   186  TYR186      0.2264
     60  O         56.3110   -9.3780   -7.4160 O.2   186  TYR186     -0.2867
     61  CB        53.5080   -8.7380   -7.9070 C.3   186  TYR186      0.0534
     62  CG        53.2470   -7.7630   -6.7730 C.ar  186  TYR186     -0.0201
     63  CD1       53.6770   -6.4590   -6.8380 C.ar  186  TYR186     -0.0009
     64  CD2       52.5380   -8.1390   -5.6590 C.ar  186  TYR186     -0.0009
     65  CE1       53.4140   -5.5510   -5.8300 C.ar  186  TYR186      0.0417
     66  CE2       52.3030   -7.2500   -4.6400 C.ar  186  TYR186      0.0417
     67  CZ        52.7590   -5.9620   -4.7220 C.ar  186  TYR186      0.1957
     68  OH        52.5080   -5.0710   -3.7250 O.3   186  TYR186     -0.2866
     69  N         49.0890   -5.2770   -2.7430 N.3   219  SER219     -0.1217
     70  CA        48.5210   -6.2380   -3.6330 C.3   219  SER219      0.1889
     71  C         47.1040   -5.8720   -3.9660 C.2   219  SER219      0.2288
     72  O         46.5360   -6.4160   -4.8550 O.2   219  SER219     -0.2866
     73  CB        48.6280   -7.6400   -3.0660 C.3   219  SER219      0.2089
     74  OG        48.1130   -7.6870   -1.7860 O.3   219  SER219     -0.2183
     75  N         46.3410   -4.9670   -7.6840 N.3   222  LEU222     -0.1245
     76  CA        46.8810   -5.8600   -8.6860 C.3   222  LEU222      0.1561
     77  C         46.0520   -5.9200   -9.9550 C.2   222  LEU222      0.2260
     78  O         46.5940   -5.9290  -11.0150 O.2   222  LEU222     -0.2867
     79  CB        47.1710   -7.2480   -8.1080 C.3   222  LEU222      0.0270
     80  CG        48.4040   -7.3040   -7.2200 C.3   222  LEU222      0.0019
     81  CD1       48.5810   -8.6260   -6.5430 C.3   222  LEU222      0.0001
     82  CD2       49.6690   -6.8770   -7.9230 C.3   222  LEU222      0.0001
     83  N         46.5930   -3.7950  -13.3050 N.3   225  ARG225     -0.1245
     84  CA        47.5320   -4.1360  -14.3500 C.3   225  ARG225      0.1563
     85  C         46.7710   -4.5310  -15.6040 C.2   225  ARG225      0.2260
     86  O         47.0280   -4.0330  -16.6270 O.2   225  ARG225     -0.2867
     87  CB        48.4090   -5.3240  -13.9190 C.3   225  ARG225      0.0307
     88  CG        49.2840   -5.1320  -12.7060 C.3   225  ARG225      0.0489
     89  CD        50.0190   -6.3740  -12.2460 C.3   225  ARG225      0.2205
     90  NE        49.1200   -7.3720  -11.7230 N.pl3 225  ARG225     -0.0865
     91  CZ        49.4580   -8.5260  -11.1870 C.cat 225  ARG225      0.5346
     92  NH1       50.7030   -8.9050  -11.0460 N.pl3 225  ARG225      0.1354
     93  NH2       48.5250   -9.3070  -10.7770 N.pl3 225  ARG225      0.1354
@<TRIPOS>BOND
     1    86    85    2
     2    85    84    1
     3    36    37    1
     4    36    35    1
     5    34    35    1
     6    34    31    1
     7    30    31    1
     8    38    37    1
     9    84    87    1
    10    84    83    1
    11    31    32    1
    12    87    88    1
    13    32    33    2
    14    32    39   am
    15    88    89    1
    16    89    90    1
    17    39    40    1
    18    90    91    2
    19    56    55    1
    20    91    92    1
    21    91    93    1
    22    50    49    1
    23    78    77    2
    24    48    49   ar
    25    48    46   ar
    26    51    52    1
    27    51    41   am
    28    49    47   ar
    29    46    44   ar
    30    40    41    1
    31    40    43    1
    32    52    55    1
    33    52    53    1
    34    47    45   ar
    35    41    42    2
    36    44    45   ar
    37    44    43    1
    38    57    58    1
    39    77    76    1
    40    53    54    2
    41    58    59    1
    42    58    61    1
    43    76    79    1
    44    76    75    1
    45    79    80    1
    46    59    60    2
    47    82    80    1
    48    61    62    1
    49    80    81    1
    50    63    62   ar
    51    63    65   ar
    52    62    64   ar
    53    14    13    1
    54    13    15    1
    55    13    10    1
    56    24    22   ar
    57    24    25   ar
    58    65    67   ar
    59    12    11    2
    60    64    66   ar
    61    22    21   ar
    62    27    25   ar
    63    27    29   ar
    64    25    23   ar
    65    11    10    1
    66    11    16   am
    67    10     9    1
    68    72    71    2
    69    67    66   ar
    70    67    68    1
    71    21    23   ar
    72    21    20    1
    73    16    17    1
    74    17    20    1
    75    17    18    1
    76    29    28   ar
    77    23    26   ar
    78    71    70    1
    79     7     5    1
    80    19    18    2
    81    70    73    1
    82    70    69    1
    83    28    26   ar
    84    73    74    1
    85     5     6    1
    86     5     2    1
    87     8     6    1
    88     4     3    2
    89     3     2    1
    90     2     1    1
