@<TRIPOS>MOLECULE
tmp/5hawB00.pdb
 176 164 0 0 0
SMALL
GASTEIGER

@<TRIPOS>ATOM
      1  N         -4.8860  -33.4460   12.5930 N.3     4  GLU4       -0.1245
      2  CA        -4.8500  -32.0780   12.0930 C.3     4  GLU4        0.1567
      3  C         -5.3360  -31.0750   13.1310 C.2     4  GLU4        0.2260
      4  O         -5.0290  -29.8890   13.0440 O.2     4  GLU4       -0.2867
      5  CB        -5.6520  -31.9440   10.7960 C.3     4  GLU4        0.0388
      6  CG        -4.7880  -31.6960    9.5620 C.3     4  GLU4        0.1160
      7  CD        -3.7910  -32.8170    9.3020 C.2     4  GLU4        0.3649
      8  OE1       -4.0980  -33.9810    9.6380 O.co2   4  GLU4       -0.2457
      9  OE2       -2.7000  -32.5320    8.7600 O.co2   4  GLU4       -0.2457
     10  N         -2.2200  -30.3200   15.0760 N.3     7  LEU7       -0.1231
     11  CA        -1.3890  -29.3930   14.3010 C.3     7  LEU7        0.1693
     12  C         -1.9540  -27.9700   14.3170 C.2     7  LEU7        0.2591
     13  O         -1.2070  -26.9980   14.4310 O.2     7  LEU7       -0.2718
     14  CB        -1.2240  -29.8720   12.8610 C.3     7  LEU7        0.0284
     15  CG        -0.4720  -31.1820   12.6310 C.3     7  LEU7        0.0019
     16  CD1       -0.2860  -31.4150   11.1360 C.3     7  LEU7        0.0001
     17  CD2        0.8650  -31.1680   13.3460 C.3     7  LEU7        0.0001
     18  N         -3.2740  -27.8520   14.1970 N.am    8  GLN8       -0.1979
     19  CA        -3.9250  -26.5480   14.2700 C.3     8  GLN8        0.1601
     20  C         -3.6670  -25.8800   15.6190 C.2     8  GLN8        0.2287
     21  O         -3.4420  -24.6750   15.6870 O.2     8  GLN8       -0.2864
     22  CB        -5.4330  -26.6790   14.0340 C.3     8  GLN8        0.0394
     23  CG        -5.8230  -26.9580   12.5900 C.3     8  GLN8        0.0908
     24  CD        -5.5850  -25.7700   11.6720 C.2     8  GLN8        0.2608
     25  OE1       -5.9060  -24.6320   12.0120 O.2     8  GLN8       -0.2717
     26  NE2       -5.0180  -26.0320   10.4990 N.am    8  GLN8       -0.0878
     27  N         -0.0890  -24.5950   15.9020 N.3    11  ALA11      -0.1231
     28  CA         0.1010  -23.3890   15.1070 C.3    11  ALA11       0.1694
     29  C         -0.5220  -22.1580   15.7710 C.2    11  ALA11       0.2591
     30  O          0.0180  -21.0600   15.6770 O.2    11  ALA11      -0.2718
     31  CB        -0.4430  -23.5840   13.6980 C.3    11  ALA11       0.0304
     32  N         -1.6570  -22.3440   16.4340 N.am   12  GLU12      -0.1979
     33  CA        -2.3020  -21.2540   17.1640 C.3    12  GLU12       0.1602
     34  C         -1.4150  -20.7610   18.2960 C.2    12  GLU12       0.2287
     35  O         -1.3480  -19.5640   18.5840 O.2    12  GLU12      -0.2864
     36  CB        -3.6480  -21.7100   17.7350 C.3    12  GLU12       0.0415
     37  CG        -4.6780  -22.0690   16.6770 C.3    12  GLU12       0.1163
     38  CD        -5.7310  -23.0420   17.1820 C.2    12  GLU12       0.3649
     39  OE1       -5.6430  -23.4700   18.3550 O.co2  12  GLU12      -0.2457
     40  OE2       -6.6450  -23.3850   16.4000 O.co2  12  GLU12      -0.2457
     41  N          1.5770  -18.9300   17.0770 N.3    15  GLU15      -0.1245
     42  CA         1.1860  -17.6430   16.5280 C.3    15  GLU15       0.1567
     43  C          0.9940  -16.6100   17.6270 C.2    15  GLU15       0.2260
     44  O          1.2300  -15.4210   17.4170 O.2    15  GLU15      -0.2867
     45  CB        -0.0900  -17.7920   15.6950 C.3    15  GLU15       0.0388
     46  CG        -0.7750  -16.4820   15.3760 C.3    15  GLU15       0.1160
     47  CD        -1.6190  -16.5650   14.1250 C.2    15  GLU15       0.3649
     48  OE1       -1.0740  -16.9590   13.0710 O.co2  15  GLU15      -0.2457
     49  OE2       -2.8270  -16.2440   14.1940 O.co2  15  GLU15      -0.2457
     50  N          4.9820  -32.0470   10.9860 N.3    52  GLY52      -0.1210
     51  CA         3.7130  -31.8600   10.3130 C.3    52  GLY52       0.1956
     52  C          3.5860  -30.4420    9.7950 C.2    52  GLY52       0.2611
     53  O          3.1280  -30.2310    8.6840 O.2    52  GLY52      -0.2717
     54  N          3.9930  -29.4620   10.5950 N.am   53  LEU53      -0.1979
     55  CA         3.9140  -28.0760   10.1630 C.3    53  LEU53       0.1596
     56  C          4.9640  -27.7690    9.0960 C.2    53  LEU53       0.2287
     57  O          4.7080  -27.0190    8.1630 O.2    53  LEU53      -0.2864
     58  CB         4.0870  -27.1240   11.3540 C.3    53  LEU53       0.0297
     59  CG         3.0930  -27.2850   12.5020 C.3    53  LEU53       0.0022
     60  CD1        3.3340  -26.2240   13.5890 C.3    53  LEU53       0.0001
     61  CD2        1.6720  -27.2140   11.9810 C.3    53  LEU53       0.0001
     62  N          3.8000  -28.6810    5.6580 N.3    56  PHE56      -0.1241
     63  CA         2.9220  -27.6820    5.0680 C.3    56  PHE56       0.1605
     64  C          3.7450  -26.5210    4.5270 C.2    56  PHE56       0.2264
     65  O          3.4940  -26.0390    3.4130 O.2    56  PHE56      -0.2867
     66  CB         1.8820  -27.2010    6.0830 C.3    56  PHE56       0.0534
     67  CG         1.0600  -26.0360    5.6040 C.ar   56  PHE56      -0.0203
     68  CD1       -0.0990  -26.2400    4.8800 C.ar   56  PHE56      -0.0042
     69  CD2        1.4440  -24.7370    5.8930 C.ar   56  PHE56      -0.0042
     70  CE1       -0.8580  -25.1670    4.4380 C.ar   56  PHE56      -0.0003
     71  CE2        0.6920  -23.6580    5.4560 C.ar   56  PHE56      -0.0003
     72  CZ        -0.4610  -23.8740    4.7270 C.ar   56  PHE56      -0.0000
     73  N          3.8300  -25.8280    0.5200 N.3    60  SER60      -0.1217
     74  CA         3.3150  -24.4990    0.1860 C.3    60  SER60       0.1889
     75  C          4.3050  -23.6730   -0.6250 C.2    60  SER60       0.2288
     76  O          3.9430  -23.0790   -1.6440 O.2    60  SER60      -0.2866
     77  CB         2.9470  -23.7230    1.4550 C.3    60  SER60       0.2089
     78  OG         1.8430  -24.3090    2.1200 O.3    60  SER60      -0.2183
     79  N          4.4850  -23.5750   -5.1070 N.3    64  ARG64      -0.1245
     80  CA         4.3230  -22.2610   -5.7100 C.3    64  ARG64       0.1563
     81  C          5.5630  -21.7570   -6.4460 C.2    64  ARG64       0.2260
     82  O          5.4440  -21.0420   -7.4380 O.2    64  ARG64      -0.2867
     83  CB         3.8180  -21.2540   -4.6740 C.3    64  ARG64       0.0307
     84  CG         2.3520  -21.4990   -4.3660 C.3    64  ARG64       0.0489
     85  CD         1.8170  -20.6710   -3.2080 C.3    64  ARG64       0.2205
     86  NE         0.3930  -20.9540   -3.0560 N.pl3  64  ARG64      -0.0865
     87  CZ        -0.0880  -22.1140   -2.6170 C.cat  64  ARG64       0.5346
     88  NH1        0.7460  -23.0880   -2.2660 N.pl3  64  ARG64       0.1354
     89  NH2       -1.4000  -22.3010   -2.5210 N.pl3  64  ARG64       0.1354
     90  N          5.2130  -23.3750   -9.7820 N.3    67  ARG67      -0.1231
     91  CA         4.1770  -22.7010  -10.5460 C.3    67  ARG67       0.1694
     92  C          4.7060  -21.4260  -11.2100 C.2    67  ARG67       0.2591
     93  O          4.4610  -21.1770  -12.3970 O.2    67  ARG67      -0.2718
     94  CB         2.9910  -22.3810   -9.6410 C.3    67  ARG67       0.0321
     95  CG         1.6760  -22.2160  -10.3680 C.3    67  ARG67       0.0489
     96  CD         0.5710  -21.8790   -9.3900 C.3    67  ARG67       0.2205
     97  NE         0.1270  -20.4990   -9.5500 N.pl3  67  ARG67      -0.0865
     98  CZ        -0.5310  -19.8130   -8.6220 C.cat  67  ARG67       0.5346
     99  NH1       -0.8160  -20.3760   -7.4550 N.pl3  67  ARG67       0.1354
    100  NH2       -0.8980  -18.5610   -8.8610 N.pl3  67  ARG67       0.1354
    101  N          5.4360  -20.6270  -10.4410 N.am   68  ILE68      -0.1980
    102  CA         6.0310  -19.3900  -10.9360 C.3    68  ILE68       0.1595
    103  C          6.9890  -19.6620  -12.0940 C.2    68  ILE68       0.2287
    104  O          6.9760  -18.9650  -13.1130 O.2    68  ILE68      -0.2864
    105  CB         6.7840  -18.6550   -9.7900 C.3    68  ILE68       0.0276
    106  CG1        5.7860  -17.9910   -8.8380 C.3    68  ILE68       0.0022
    107  CG2        7.7500  -17.6210  -10.3480 C.3    68  ILE68       0.0022
    108  CD1        6.3590  -17.6860   -7.4350 C.3    68  ILE68       0.0001
    109  N          8.3760  -12.4190   -7.9680 N.3    81  LEU81      -0.1245
    110  CA         7.2970  -13.2820   -7.4860 C.3    81  LEU81       0.1561
    111  C          7.7650  -14.2930   -6.4440 C.2    81  LEU81       0.2260
    112  O          7.0230  -14.6250   -5.5230 O.2    81  LEU81      -0.2867
    113  CB         6.6010  -13.9970   -8.6500 C.3    81  LEU81       0.0270
    114  CG         5.8670  -13.0760   -9.6290 C.3    81  LEU81       0.0019
    115  CD1        5.5070  -13.8120  -10.9130 C.3    81  LEU81       0.0001
    116  CD2        4.6350  -12.4750   -8.9840 C.3    81  LEU81       0.0001
    117  N          8.3930  -12.2020   -3.2160 N.3    84  GLN84      -0.1231
    118  CA         7.0690  -11.8390   -2.7340 C.3    84  GLN84       0.1698
    119  C          6.3760  -13.0260   -2.0720 C.2    84  GLN84       0.2592
    120  O          5.7070  -12.8740   -1.0450 O.2    84  GLN84      -0.2718
    121  CB         6.2280  -11.3060   -3.9020 C.3    84  GLN84       0.0381
    122  CG         4.9110  -10.6550   -3.5090 C.3    84  GLN84       0.0905
    123  CD         4.2020  -10.0030   -4.6940 C.2    84  GLN84       0.2608
    124  OE1        4.3240  -10.4540   -5.8360 O.2    84  GLN84      -0.2717
    125  NE2        3.4620   -8.9330   -4.4240 N.am   84  GLN84      -0.0878
    126  N          6.5440  -14.2080   -2.6630 N.am   85  LEU85      -0.1980
    127  CA         5.9410  -15.4290   -2.1340 C.3    85  LEU85       0.1596
    128  C          6.4450  -15.7660   -0.7290 C.2    85  LEU85       0.2287
    129  O          5.6610  -16.1390    0.1480 O.2    85  LEU85      -0.2864
    130  CB         6.2210  -16.6070   -3.0720 C.3    85  LEU85       0.0297
    131  CG         6.0360  -18.0150   -2.4980 C.3    85  LEU85       0.0022
    132  CD1        4.5760  -18.2930   -2.1950 C.3    85  LEU85       0.0001
    133  CD2        6.5860  -19.0640   -3.4580 C.3    85  LEU85       0.0001
    134  N          5.2090  -12.9270    1.7730 N.3    88  ALA88      -0.1231
    135  CA         3.7650  -12.9570    2.0150 C.3    88  ALA88       0.1694
    136  C          3.3190  -14.2230    2.7440 C.2    88  ALA88       0.2592
    137  O          2.3990  -14.1790    3.5580 O.2    88  ALA88      -0.2718
    138  CB         2.9900  -12.8000    0.6970 C.3    88  ALA88       0.0304
    139  N          3.9610  -15.3510    2.4480 N.am   89  PHE89      -0.1976
    140  CA         3.6400  -16.5850    3.1470 C.3    89  PHE89       0.1639
    141  C          3.9360  -16.4280    4.6370 C.2    89  PHE89       0.2290
    142  O          3.1620  -16.8830    5.4780 O.2    89  PHE89      -0.2864
    143  CB         4.4200  -17.7740    2.5820 C.3    89  PHE89       0.0560
    144  CG         4.2400  -19.0380    3.3690 C.ar   89  PHE89      -0.0200
    145  CD1        3.2590  -19.9490    3.0270 C.ar   89  PHE89      -0.0042
    146  CD2        5.0440  -19.3050    4.4730 C.ar   89  PHE89      -0.0042
    147  CE1        3.0840  -21.1140    3.7670 C.ar   89  PHE89      -0.0003
    148  CE2        4.8750  -20.4630    5.2140 C.ar   89  PHE89      -0.0003
    149  CZ         3.8920  -21.3710    4.8580 C.ar   89  PHE89      -0.0000
    150  N          1.3760  -14.1290    6.2670 N.3    92  ARG92      -0.1231
    151  CA         0.1090  -14.8400    6.4210 C.3    92  ARG92       0.1694
    152  C          0.1840  -15.9680    7.4440 C.2    92  ARG92       0.2592
    153  O         -0.8450  -16.4790    7.8900 O.2    92  ARG92      -0.2718
    154  CB        -0.3460  -15.4090    5.0750 C.3    92  ARG92       0.0321
    155  CG        -0.8980  -14.3720    4.1190 C.3    92  ARG92       0.0489
    156  CD        -2.3950  -14.2030    4.3090 C.3    92  ARG92       0.2205
    157  NE        -3.1240  -15.3980    3.8950 N.pl3  92  ARG92      -0.0865
    158  CZ        -4.4450  -15.5260    3.9610 C.cat  92  ARG92       0.5346
    159  NH1       -5.1840  -14.5290    4.4280 N.pl3  92  ARG92       0.1354
    160  NH2       -5.0250  -16.6490    3.5600 N.pl3  92  ARG92       0.1354
    161  N          1.4010  -16.3610    7.8080 N.am   93  ASN93      -0.1974
    162  CA         1.6010  -17.4490    8.7630 C.3    93  ASN93       0.1688
    163  C          2.6450  -17.0800    9.8200 C.2    93  ASN93       0.2292
    164  O          3.7370  -17.6460    9.8520 O.2    93  ASN93      -0.2864
    165  CB         2.0140  -18.7340    8.0310 C.3    93  ASN93       0.1181
    166  CG         0.9410  -19.2420    7.0690 C.2    93  ASN93       0.2629
    167  OD1        0.0030  -19.9300    7.4720 O.2    93  ASN93      -0.2716
    168  ND2        1.0940  -18.9230    5.7840 N.am   93  ASN93      -0.0877
    169  N          4.1790  -19.9720   11.9150 N.3    96  LEU96      -0.1245
    170  CA         5.0770  -20.8070   11.1180 C.3    96  LEU96       0.1561
    171  C          6.3730  -20.0690   10.8250 C.2    96  LEU96       0.2260
    172  O          7.4010  -20.6870   10.5380 O.2    96  LEU96      -0.2867
    173  CB         4.4130  -21.2680    9.8110 C.3    96  LEU96       0.0270
    174  CG         3.1240  -22.0720    9.9650 C.3    96  LEU96       0.0019
    175  CD1        2.6540  -22.5640    8.5960 C.3    96  LEU96       0.0001
    176  CD2        3.3160  -23.2410   10.9330 C.3    96  LEU96       0.0001
@<TRIPOS>BOND
     1   104   103    2
     2    93    92    2
     3   103   102    1
     4    92    91    1
     5    92   101   am
     6   102   101    1
     7   102   105    1
     8   115   114    1
     9    91    90    1
    10    91    94    1
    11    95    94    1
    12    95    96    1
    13   107   105    1
    14   105   106    1
    15   114   116    1
    16   114   113    1
    17    97    96    1
    18    97    98    2
    19   100    98    1
    20   106   108    1
    21   113   110    1
    22    98    99    1
    23   109   110    1
    24   110   111    1
    25    82    81    2
    26    81    80    1
    27   111   112    2
    28   124   123    2
    29    80    79    1
    30    80    83    1
    31   123   125   am
    32   123   122    1
    33    83    84    1
    34    84    85    1
    35   121   122    1
    36   121   118    1
    37   133   131    1
    38   117   118    1
    39    85    86    1
    40   130   131    1
    41   130   127    1
    42    86    87    2
    43   118   119    1
    44   126   127    1
    45   126   119   am
    46    87    89    1
    47    87    88    1
    48   131   132    1
    49   127   128    1
    50   119   120    2
    51    76    75    2
    52   128   129    2
    53    75    74    1
    54    74    73    1
    55    74    77    1
    56   138   135    1
    57    77    78    1
    58   134   135    1
    59   135   136    1
    60   139   136   am
    61   139   140    1
    62   143   140    1
    63   143   144    1
    64   136   137    2
    65   145   144   ar
    66   145   147   ar
    67   140   141    1
    68   144   146   ar
    69    65    64    2
    70   160   158    1
    71   147   149   ar
    72   157   158    2
    73   157   156    1
    74   158   159    1
    75   155   156    1
    76   155   154    1
    77    70    72   ar
    78    70    68   ar
    79   146   148   ar
    80    64    63    1
    81   141   142    2
    82    72    71   ar
    83   149   148   ar
    84    68    67   ar
    85    63    62    1
    86    63    66    1
    87   154   151    1
    88    71    69   ar
    89    67    69   ar
    90    67    66    1
    91   168   166   am
    92   150   151    1
    93   151   152    1
    94   166   167    2
    95   166   165    1
    96   152   161   am
    97   152   153    2
    98   161   162    1
    99   165   162    1
   100    57    56    2
   101   175   174    1
   102    53    52    2
   103     9     7   ar
   104   162   163    1
   105    56    55    1
   106     7     6    1
   107     7     8   ar
   108     6     5    1
   109    52    51    1
   110    52    54   am
   111   173   174    1
   112   173   170    1
   113   163   164    2
   114   174   176    1
   115    55    54    1
   116    55    58    1
   117    51    50    1
   118    26    24   am
   119   172   171    2
   120     5     2    1
   121   171   170    1
   122   170   169    1
   123    16    15    1
   124    58    59    1
   125    24    25    2
   126    24    23    1
   127    61    59    1
   128     2     1    1
   129     2     3    1
   130    59    60    1
   131    23    22    1
   132    15    14    1
   133    15    17    1
   134    14    11    1
   135     4     3    2
   136    48    47   ar
   137    31    28    1
   138    22    19    1
   139    47    49   ar
   140    47    46    1
   141    18    19    1
   142    18    12   am
   143    19    20    1
   144    11    12    1
   145    11    10    1
   146    12    13    2
   147    28    29    1
   148    28    27    1
   149    46    45    1
   150    20    21    2
   151    30    29    2
   152    45    42    1
   153    29    32   am
   154    40    38   ar
   155    32    33    1
   156    42    41    1
   157    42    43    1
   158    37    38    1
   159    37    36    1
   160    33    36    1
   161    33    34    1
   162    38    39   ar
   163    44    43    2
   164    34    35    2
