@<TRIPOS>MOLECULE
tmp/5hawA00.pdb
 196 183 0 0 0
SMALL
GASTEIGER

@<TRIPOS>ATOM
      1  N         35.1280  -13.0480   34.9100 N.3     5  GLU5       -0.1245
      2  CA        35.4970  -13.0360   33.5010 C.3     5  GLU5        0.1567
      3  C         35.6990  -14.4560   32.9770 C.2     5  GLU5        0.2260
      4  O         35.2960  -14.7730   31.8570 O.2     5  GLU5       -0.2867
      5  CB        36.7390  -12.1730   33.2660 C.3     5  GLU5        0.0388
      6  CG        36.4210  -10.7940   32.6970 C.3     5  GLU5        0.1160
      7  CD        35.7670  -10.8620   31.3190 C.2     5  GLU5        0.3649
      8  OE1       36.1090  -11.7750   30.5370 O.co2   5  GLU5       -0.2457
      9  OE2       34.9080  -10.0030   31.0170 O.co2   5  GLU5       -0.2457
     10  N         32.3030  -15.8180   32.0980 N.3     8  LEU8       -0.1231
     11  CA        31.7970  -15.2500   30.8460 C.3     8  LEU8        0.1693
     12  C         32.5350  -15.8050   29.6490 C.2     8  LEU8        0.2591
     13  O         31.9340  -16.0230   28.5950 O.2     8  LEU8       -0.2718
     14  CB        31.8980  -13.7270   30.8410 C.3     8  LEU8        0.0284
     15  CG        31.0120  -13.0270   31.8680 C.3     8  LEU8        0.0019
     16  CD1       31.1590  -11.5230   31.7310 C.3     8  LEU8        0.0001
     17  CD2       29.5690  -13.4490   31.6880 C.3     8  LEU8        0.0001
     18  N         33.8390  -16.0190   29.7980 N.am    9  GLN9       -0.1979
     19  CA        34.6160  -16.5820   28.7040 C.3     9  GLN9        0.1601
     20  C         34.2030  -18.0370   28.4840 C.2     9  GLN9        0.2287
     21  O         34.1790  -18.5160   27.3520 O.2     9  GLN9       -0.2864
     22  CB        36.1240  -16.4670   28.9660 C.3     9  GLN9        0.0394
     23  CG        36.9710  -16.3750   27.7010 C.3     9  GLN9        0.0908
     24  CD        37.3240  -14.9410   27.2940 C.2     9  GLN9        0.2608
     25  OE1       36.4930  -14.0290   27.3280 O.2     9  GLN9       -0.2717
     26  NE2       38.5690  -14.7470   26.9100 N.am    9  GLN9       -0.0878
     27  N         30.8370  -17.9290   26.5580 N.3    12  ALA12      -0.1231
     28  CA        31.0570  -17.6160   25.1440 C.3    12  ALA12       0.1694
     29  C         31.6990  -18.7800   24.3850 C.2    12  ALA12       0.2591
     30  O         31.3940  -18.9940   23.2190 O.2    12  ALA12      -0.2718
     31  CB        31.8720  -16.3490   24.9950 C.3    12  ALA12       0.0304
     32  N         32.5770  -19.5310   25.0420 N.am   13  GLU13      -0.1979
     33  CA        33.1730  -20.7160   24.4260 C.3    13  GLU13       0.1602
     34  C         32.1080  -21.7620   24.0860 C.2    13  GLU13       0.2287
     35  O         32.1460  -22.3810   23.0290 O.2    13  GLU13      -0.2864
     36  CB        34.2250  -21.3350   25.3550 C.3    13  GLU13       0.0415
     37  CG        35.5050  -20.5170   25.5060 C.3    13  GLU13       0.1163
     38  CD        36.3650  -20.9580   26.6890 C.2    13  GLU13       0.3649
     39  OE1       35.9450  -21.8710   27.4360 O.co2  13  GLU13      -0.2457
     40  OE2       37.4600  -20.3850   26.8750 O.co2  13  GLU13      -0.2457
     41  N         29.8700  -20.8730   21.2070 N.3    16  GLU16      -0.1245
     42  CA        30.6060  -20.9550   19.9490 C.3    16  GLU16       0.1567
     43  C         30.7030  -22.3880   19.4320 C.2    16  GLU16       0.2260
     44  O         30.8860  -22.6100   18.2400 O.2    16  GLU16      -0.2867
     45  CB        32.0030  -20.3700   20.1640 C.3    16  GLU16       0.0388
     46  CG        32.9160  -20.3640   18.9770 C.3    16  GLU16       0.1160
     47  CD        33.9610  -19.2760   19.0940 C.2    16  GLU16       0.3649
     48  OE1       33.5760  -18.1180   19.3630 O.co2  16  GLU16      -0.2457
     49  OE2       35.1610  -19.5750   18.9250 O.co2  16  GLU16      -0.2457
     50  N         25.9180  -10.0300   30.9330 N.3    53  GLY53      -0.1210
     51  CA        27.3160   -9.6490   30.8290 C.3    53  GLY53       0.1956
     52  C         27.7680   -9.6610   29.3750 C.2    53  GLY53       0.2611
     53  O         28.4510   -8.7410   28.9050 O.2    53  GLY53      -0.2717
     54  N         27.3900  -10.7070   28.6480 N.am   54  LEU54      -0.1979
     55  CA        27.7510  -10.8040   27.2330 C.3    54  LEU54       0.1596
     56  C         27.0340   -9.7410   26.4300 C.2    54  LEU54       0.2287
     57  O         27.6150   -9.1360   25.5250 O.2    54  LEU54      -0.2864
     58  CB        27.4110  -12.1840   26.6730 C.3    54  LEU54       0.0297
     59  CG        28.1500  -13.3290   27.3630 C.3    54  LEU54       0.0022
     60  CD1       27.8360  -14.6360   26.6410 C.3    54  LEU54       0.0001
     61  CD2       29.6370  -13.0590   27.3670 C.3    54  LEU54       0.0001
     62  N         28.7010   -6.3540   26.6210 N.3    57  PHE57      -0.1241
     63  CA        29.8770   -6.2970   25.7540 C.3    57  PHE57       0.1605
     64  C         29.4960   -6.0020   24.3010 C.2    57  PHE57       0.2264
     65  O         30.1190   -5.1730   23.6410 O.2    57  PHE57      -0.2867
     66  CB        30.6670   -7.6050   25.8330 C.3    57  PHE57       0.0534
     67  CG        31.8170   -7.6700   24.8770 C.ar   57  PHE57      -0.0203
     68  CD1       33.0280   -7.0730   25.1850 C.ar   57  PHE57      -0.0042
     69  CD2       31.6850   -8.3240   23.6570 C.ar   57  PHE57      -0.0042
     70  CE1       34.0950   -7.1300   24.2850 C.ar   57  PHE57      -0.0003
     71  CE2       32.7420   -8.3860   22.7660 C.ar   57  PHE57      -0.0003
     72  CZ        33.9450   -7.7870   23.0780 C.ar   57  PHE57      -0.0000
     73  N         30.5440   -2.5980   22.6350 N.3    61  SER61      -0.1217
     74  CA        31.4850   -2.8080   21.5530 C.3    61  SER61       0.1889
     75  C         30.9680   -2.1780   20.2670 C.2    61  SER61       0.2288
     76  O         31.6940   -1.4600   19.5810 O.2    61  SER61      -0.2866
     77  CB        31.7160   -4.3030   21.3040 C.3    61  SER61       0.2089
     78  OG        32.7280   -4.7980   22.1530 O.3    61  SER61      -0.2183
     79  N         31.6920    2.1080   18.6420 N.3    65  ARG65      -0.1245
     80  CA        32.3310    2.1740   17.3270 C.3    65  ARG65       0.1563
     81  C         31.4370    2.8190   16.2610 C.2    65  ARG65       0.2260
     82  O         31.9210    3.5580   15.4070 O.2    65  ARG65      -0.2867
     83  CB        32.8260    0.7900   16.8940 C.3    65  ARG65       0.0307
     84  CG        34.0310    0.3320   17.7110 C.3    65  ARG65       0.0489
     85  CD        34.3440   -1.1510   17.5290 C.3    65  ARG65       0.2205
     86  NE        35.5420   -1.4950   18.2930 N.pl3  65  ARG65      -0.0865
     87  CZ        35.5870   -1.6160   19.6200 C.cat  65  ARG65       0.5346
     88  NH1       34.4920   -1.4340   20.3600 N.pl3  65  ARG65       0.1354
     89  NH2       36.7350   -1.9230   20.2110 N.pl3  65  ARG65       0.1354
     90  N         31.6250    6.4490   16.8960 N.3    68  ARG68      -0.1231
     91  CA        32.9180    6.9320   16.4240 C.3    68  ARG68       0.1694
     92  C         32.9210    7.1230   14.9060 C.2    68  ARG68       0.2591
     93  O         33.4590    8.1120   14.4040 O.2    68  ARG68      -0.2718
     94  CB        34.0320    5.9610   16.8160 C.3    68  ARG68       0.0321
     95  CG        35.4360    6.4770   16.5100 C.3    68  ARG68       0.0489
     96  CD        36.4960    5.7100   17.2920 C.3    68  ARG68       0.2205
     97  NE        36.2630    5.7800   18.7340 N.pl3  68  ARG68      -0.0865
     98  CZ        35.9670    4.7340   19.5040 C.cat  68  ARG68       0.5346
     99  NH1       35.8710    3.5220   18.9790 N.pl3  68  ARG68       0.1354
    100  NH2       35.7700    4.8980   20.8080 N.pl3  68  ARG68       0.1354
    101  N         32.3410    6.1640   14.1920 N.am   69  ILE69      -0.1980
    102  CA        32.1890    6.2770   12.7350 C.3    69  ILE69       0.1595
    103  C         31.3740    7.5200   12.4070 C.2    69  ILE69       0.2287
    104  O         31.7720    8.3520   11.5800 O.2    69  ILE69      -0.2864
    105  CB        31.4930    5.0440   12.1420 C.3    69  ILE69       0.0276
    106  CG1       32.4130    3.8300   12.2350 C.3    69  ILE69       0.0022
    107  CG2       31.0780    5.2950   10.6660 C.3    69  ILE69       0.0022
    108  CD1       31.6900    2.4950   12.0490 C.3    69  ILE69       0.0001
    109  N         34.0280    9.9380   10.6670 N.3    73  GLU73      -0.1245
    110  CA        33.9760    9.8000    9.2130 C.3    73  GLU73       0.1567
    111  C         32.9100   10.7360    8.6510 C.2    73  GLU73       0.2260
    112  O         31.8000   10.8060    9.1720 O.2    73  GLU73      -0.2867
    113  CB        33.6990    8.3480    8.8200 C.3    73  GLU73       0.0388
    114  CG        34.8780    7.3980    9.0680 C.3    73  GLU73       0.1160
    115  CD        35.9810    7.5490    8.0270 C.2    73  GLU73       0.3649
    116  OE1       35.6620    7.9470    6.8960 O.co2  73  GLU73      -0.2457
    117  OE2       37.1630    7.2760    8.3340 O.co2  73  GLU73      -0.2457
    118  N         28.9110    2.1960    4.7990 N.3    81  ARG81      -0.1231
    119  CA        29.7490    1.0320    4.5290 C.3    81  ARG81       0.1694
    120  C         30.4480    0.5390    5.8010 C.2    81  ARG81       0.2591
    121  O         30.4900   -0.6550    6.0650 O.2    81  ARG81      -0.2718
    122  CB        30.7940    1.3270    3.4560 C.3    81  ARG81       0.0321
    123  CG        31.4700    0.0550    2.9210 C.3    81  ARG81       0.0489
    124  CD        32.6200    0.3760    1.9490 C.3    81  ARG81       0.2205
    125  NE        33.7310    1.0210    2.6500 N.pl3  81  ARG81      -0.0865
    126  CZ        34.5900    0.3660    3.4310 C.cat  81  ARG81       0.5346
    127  NH1       34.4690   -0.9440    3.6000 N.pl3  81  ARG81       0.1354
    128  NH2       35.5630    1.0130    4.0540 N.pl3  81  ARG81       0.1354
    129  N         31.0150    1.4680    6.5610 N.am   82  LEU82      -0.1980
    130  CA        31.7610    1.1330    7.7710 C.3    82  LEU82       0.1596
    131  C         30.8740    0.5410    8.8610 C.2    82  LEU82       0.2287
    132  O         31.2910   -0.3710    9.5730 O.2    82  LEU82      -0.2864
    133  CB        32.4940    2.3640    8.3060 C.3    82  LEU82       0.0297
    134  CG        33.7140    2.7740    7.4880 C.3    82  LEU82       0.0022
    135  CD1       34.1750    4.1710    7.8970 C.3    82  LEU82       0.0001
    136  CD2       34.8180    1.7570    7.6840 C.3    82  LEU82       0.0001
    137  N         29.9520   -2.9820    7.6210 N.3    85  GLN85      -0.1231
    138  CA        31.0980   -3.8800    7.6840 C.3    85  GLN85       0.1698
    139  C         31.5000   -4.1820    9.1230 C.2    85  GLN85       0.2592
    140  O         31.9270   -5.2940    9.4290 O.2    85  GLN85      -0.2718
    141  CB        32.2830   -3.2980    6.9250 C.3    85  GLN85       0.0381
    142  CG        33.3840   -4.3010    6.6890 C.3    85  GLN85       0.0905
    143  CD        34.4910   -4.1980    7.7100 C.2    85  GLN85       0.2608
    144  OE1       34.6060   -3.1970    8.4150 O.2    85  GLN85      -0.2717
    145  NE2       35.3270   -5.2310    7.7850 N.am   85  GLN85      -0.0878
    146  N         31.3810   -3.1850    9.9940 N.am   86  LEU86      -0.1980
    147  CA        31.6000   -3.4010   11.4250 C.3    86  LEU86       0.1596
    148  C         30.6920   -4.5050   11.9870 C.2    86  LEU86       0.2287
    149  O         31.1660   -5.4180   12.6730 O.2    86  LEU86      -0.2864
    150  CB        31.3940   -2.1020   12.2070 C.3    86  LEU86       0.0297
    151  CG        31.2570   -2.2150   13.7450 C.3    86  LEU86       0.0022
    152  CD1       32.5890   -2.5460   14.3910 C.3    86  LEU86       0.0001
    153  CD2       30.7250   -0.9100   14.3090 C.3    86  LEU86       0.0001
    154  N         31.6130   -8.0070   10.3810 N.3    89  ALA89      -0.1231
    155  CA        32.9210   -8.4700   10.8600 C.3    89  ALA89       0.1694
    156  C         32.9020   -8.7950   12.3550 C.2    89  ALA89       0.2592
    157  O         33.5980   -9.6980   12.8060 O.2    89  ALA89      -0.2718
    158  CB        33.9930   -7.4360   10.5720 C.3    89  ALA89       0.0304
    159  N         32.1370   -8.0320   13.1190 N.am   90  PHE90      -0.1976
    160  CA        32.0090   -8.2990   14.5580 C.3    90  PHE90       0.1639
    161  C         31.3880   -9.6780   14.7260 C.2    90  PHE90       0.2290
    162  O         31.8390  -10.4860   15.5410 O.2    90  PHE90      -0.2864
    163  CB        31.1300   -7.2590   15.2340 C.3    90  PHE90       0.0560
    164  CG        30.8380   -7.5760   16.6910 C.ar   90  PHE90      -0.0200
    165  CD1       31.7080   -7.1810   17.6790 C.ar   90  PHE90      -0.0042
    166  CD2       29.7150   -8.3040   17.0470 C.ar   90  PHE90      -0.0042
    167  CE1       31.4520   -7.4810   19.0160 C.ar   90  PHE90      -0.0003
    168  CE2       29.4530   -8.6130   18.3770 C.ar   90  PHE90      -0.0003
    169  CZ        30.3210   -8.2040   19.3580 C.ar   90  PHE90      -0.0000
    170  N         33.8840  -12.5020   13.7360 N.3    93  ARG93      -0.1231
    171  CA        34.9310  -12.6490   14.7470 C.3    93  ARG93       0.1694
    172  C         34.4100  -13.2070   16.0820 C.2    93  ARG93       0.2592
    173  O         35.2000  -13.6990   16.9000 O.2    93  ARG93      -0.2718
    174  CB        35.6220  -11.2980   14.9830 C.3    93  ARG93       0.0321
    175  CG        36.7310  -11.3210   16.0430 C.3    93  ARG93       0.0489
    176  CD        37.8900  -12.2120   15.5930 C.3    93  ARG93       0.2205
    177  NE        39.0010  -12.2420   16.5430 N.pl3  93  ARG93      -0.0865
    178  CZ        39.0720  -13.0640   17.5890 C.cat  93  ARG93       0.5346
    179  NH1       38.0870  -13.9180   17.8380 N.pl3  93  ARG93       0.1354
    180  NH2       40.1230  -13.0220   18.3990 N.pl3  93  ARG93       0.1354
    181  N         33.0950  -13.1250   16.2930 N.am   94  ASN94      -0.1974
    182  CA        32.4560  -13.5770   17.5470 C.3    94  ASN94       0.1688
    183  C         31.2450  -14.4800   17.3080 C.2    94  ASN94       0.2292
    184  O         30.1220  -14.0750   17.5710 O.2    94  ASN94      -0.2864
    185  CB        32.0090  -12.3620   18.3650 C.3    94  ASN94       0.1181
    186  CG        33.1590  -11.4340   18.7110 C.2    94  ASN94       0.2629
    187  OD1       33.8750  -11.6660   19.6740 O.2    94  ASN94      -0.2716
    188  ND2       33.3610  -10.3930   17.8990 N.am   94  ASN94      -0.0877
    189  N         28.7530  -15.0850   20.2460 N.3    97  LEU97      -0.1245
    190  CA        27.9620  -13.8940   20.5450 C.3    97  LEU97       0.1561
    191  C         26.9230  -13.6300   19.4600 C.2    97  LEU97       0.2260
    192  O         25.8960  -13.0150   19.7180 O.2    97  LEU97      -0.2867
    193  CB        28.8650  -12.6650   20.7150 C.3    97  LEU97       0.0270
    194  CG        29.8570  -12.7390   21.8780 C.3    97  LEU97       0.0019
    195  CD1       30.6180  -11.4400   21.9860 C.3    97  LEU97       0.0001
    196  CD2       29.1390  -13.0490   23.1900 C.3    97  LEU97       0.0001
@<TRIPOS>BOND
     1   124   125    1
     2   124   123    1
     3   125   126    2
     4   123   122    1
     5   126   127    1
     6   126   128    1
     7   122   119    1
     8   119   118    1
     9   119   120    1
    10   120   121    2
    11   120   129   am
    12   129   130    1
    13   142   141    1
    14   142   143    1
    15   116   115   ar
    16   141   138    1
    17   134   136    1
    18   134   135    1
    19   134   133    1
    20   137   138    1
    21   138   139    1
    22   143   145   am
    23   143   144    2
    24   130   133    1
    25   130   131    1
    26   115   117   ar
    27   115   114    1
    28   111   112    2
    29   111   110    1
    30   113   114    1
    31   113   110    1
    32   131   132    2
    33   139   140    2
    34   139   146   am
    35   110   109    1
    36   146   147    1
    37   154   155    1
    38   158   155    1
    39   107   105    1
    40   155   156    1
    41   147   148    1
    42   147   150    1
    43   104   103    2
    44   148   149    2
    45   108   106    1
    46   105   106    1
    47   105   102    1
    48   150   151    1
    49   156   157    2
    50   156   159   am
    51   103   102    1
    52   102   101    1
    53   159   160    1
    54   170   171    1
    55   151   153    1
    56   151   152    1
    57   101    92   am
    58    93    92    2
    59   160   161    1
    60   160   163    1
    61   161   162    2
    62   171   174    1
    63   171   172    1
    64    92    91    1
    65   174   175    1
    66   163   164    1
    67    82    81    2
    68   176   175    1
    69   176   177    1
    70   172   181   am
    71   172   173    2
    72    81    80    1
    73   181   182    1
    74    91    94    1
    75    91    90    1
    76    95    94    1
    77    95    96    1
    78   177   178    2
    79   164   166   ar
    80   164   165   ar
    81    83    80    1
    82    83    84    1
    83   166   168   ar
    84    96    97    1
    85   183   182    1
    86   183   184    2
    87    80    79    1
    88    85    84    1
    89    85    86    1
    90   182   185    1
    91   178   179    1
    92   178   180    1
    93   165   167   ar
    94   188   186   am
    95    44    43    2
    96    86    87    2
    97   185   186    1
    98   168   169   ar
    99   186   187    2
   100    97    98    2
   101    49    47   ar
   102    46    47    1
   103    46    45    1
   104    99    98    1
   105   167   169   ar
   106    47    48   ar
   107    43    42    1
   108   191   192    2
   109   191   190    1
   110    98   100    1
   111    76    75    2
   112    87    89    1
   113    87    88    1
   114    42    45    1
   115    42    41    1
   116   189   190    1
   117    75    74    1
   118   190   193    1
   119   193   194    1
   120    77    74    1
   121    77    78    1
   122    74    73    1
   123   194   195    1
   124   194   196    1
   125    71    72   ar
   126    71    69   ar
   127    35    34    2
   128    72    70   ar
   129    30    29    2
   130    65    64    2
   131    69    67   ar
   132    34    33    1
   133    70    68   ar
   134    64    63    1
   135    29    32   am
   136    29    28    1
   137    33    32    1
   138    33    36    1
   139    67    68   ar
   140    67    66    1
   141    31    28    1
   142    28    27    1
   143    36    37    1
   144    37    38    1
   145    57    56    2
   146    63    66    1
   147    63    62    1
   148    56    55    1
   149    60    59    1
   150    58    55    1
   151    58    59    1
   152    38    40   ar
   153    38    39   ar
   154    26    24   am
   155    55    54    1
   156    24    25    2
   157    24    23    1
   158    21    20    2
   159    59    61    1
   160    23    22    1
   161    20    19    1
   162    13    12    2
   163    54    52   am
   164    19    22    1
   165    19    18    1
   166    53    52    2
   167    52    51    1
   168    12    18   am
   169    12    11    1
   170     8     7   ar
   171    51    50    1
   172    14    11    1
   173    14    15    1
   174    11    10    1
   175     9     7   ar
   176     7     6    1
   177    17    15    1
   178    16    15    1
   179     4     3    2
   180     6     5    1
   181     3     2    1
   182     5     2    1
   183     2     1    1
