@<TRIPOS>MOLECULE
tmp/5hbcA01.pdb
 94 89 0 0 0
SMALL
GASTEIGER

@<TRIPOS>ATOM
      1  N          3.3160    9.4960  -34.8270 N.3    74  ARG74      -0.1245
      2  CA         2.0520    9.1160  -35.4910 C.3    74  ARG74       0.1563
      3  C          0.8190    9.4870  -34.6280 C.2    74  ARG74       0.2260
      4  O          0.9540    9.9460  -33.4830 O.2    74  ARG74      -0.2867
      5  CB         2.0780    7.6140  -35.8190 C.3    74  ARG74       0.0307
      6  CG         2.1530    6.7270  -34.5830 C.3    74  ARG74       0.0489
      7  CD         2.7910    5.3700  -34.8430 C.3    74  ARG74       0.2205
      8  NE         2.1390    4.2990  -34.0720 N.pl3  74  ARG74      -0.0865
      9  CZ         2.2760    4.0810  -32.7600 C.cat  74  ARG74       0.5346
     10  NH1        2.9120    4.9490  -31.9760 N.pl3  74  ARG74       0.1354
     11  NH2        1.7650    2.9730  -32.2230 N.pl3  74  ARG74       0.1354
     12  N          4.2640   -1.6350  -32.2430 N.3    93  LEU93      -0.1245
     13  CA         4.2860   -3.0510  -31.9170 C.3    93  LEU93       0.1561
     14  C          4.9300   -3.8660  -33.0240 C.2    93  LEU93       0.2260
     15  O          4.5610   -3.7520  -34.1930 O.2    93  LEU93      -0.2867
     16  CB         2.8680   -3.5600  -31.6490 C.3    93  LEU93       0.0270
     17  CG         2.0450   -2.7680  -30.6310 C.3    93  LEU93       0.0019
     18  CD1        0.5840   -3.1910  -30.6740 C.3    93  LEU93       0.0001
     19  CD2        2.6150   -2.9370  -29.2310 C.3    93  LEU93       0.0001
     20  N          2.2050   -3.9170  -36.0890 N.3   204  ASN204     -0.1225
     21  CA         0.7400   -3.8770  -36.0940 C.3   204  ASN204      0.1785
     22  C          0.2110   -2.9490  -37.1680 C.2   204  ASN204      0.2597
     23  O         -0.6070   -3.3480  -38.0080 O.2   204  ASN204     -0.2718
     24  CB         0.2070   -3.4000  -34.7430 C.3   204  ASN204      0.1169
     25  CG        -1.2040   -2.8980  -34.8420 C.2   204  ASN204      0.2627
     26  OD1       -2.1220   -3.6860  -35.0150 O.2   204  ASN204     -0.2716
     27  ND2       -1.3860   -1.5720  -34.7460 N.am  204  ASN204     -0.0877
     28  N          0.7580   -1.7340  -37.1590 N.am  205  ASP205     -0.1974
     29  CA         0.2090   -0.6560  -37.9870 C.3   205  ASP205      0.1709
     30  C          0.2470   -0.9810  -39.4730 C.2   205  ASP205      0.2293
     31  O         -0.4200   -0.3360  -40.2610 O.2   205  ASP205     -0.2864
     32  CB         0.9120    0.6770  -37.6700 C.3   205  ASP205      0.1436
     33  CG         0.9470    0.9840  -36.1420 C.2   205  ASP205      0.3671
     34  OD1        1.7060    0.3100  -35.3870 O.co2 205  ASP205     -0.2456
     35  OD2        0.1820    1.8800  -35.6950 O.co2 205  ASP205     -0.2456
     36  N         -3.1670   -3.2040  -40.7480 N.3   208  TRP208     -0.1227
     37  CA        -4.3420   -2.3940  -40.8090 C.3   208  TRP208      0.1737
     38  C         -4.2660   -1.5210  -42.0230 C.2   208  TRP208      0.2595
     39  O         -5.2650   -1.2790  -42.6560 O.2   208  TRP208     -0.2718
     40  CB        -4.3820   -1.4900  -39.6080 C.3   208  TRP208      0.0564
     41  CG        -4.6170   -2.1520  -38.3350 C.ar  208  TRP208      0.0003
     42  CD1       -3.6850   -2.5810  -37.4620 C.ar  208  TRP208      0.0946
     43  CD2       -5.8790   -2.4190  -37.7380 C.ar  208  TRP208      0.0152
     44  NE1       -4.2790   -3.1220  -36.3580 N.ar  208  TRP208     -0.2442
     45  CE2       -5.6330   -3.0340  -36.5060 C.ar  208  TRP208      0.0810
     46  CE3       -7.2010   -2.2060  -38.1330 C.ar  208  TRP208      0.0012
     47  CZ2       -6.6690   -3.4380  -35.6680 C.ar  208  TRP208      0.0191
     48  CZ3       -8.2170   -2.6040  -37.3050 C.ar  208  TRP208      0.0001
     49  CH2       -7.9440   -3.2160  -36.0850 C.ar  208  TRP208      0.0015
     50  N         -3.0850   -1.0090  -42.3270 N.am  209  GLU209     -0.1979
     51  CA        -2.9320    0.0010  -43.3900 C.3   209  GLU209      0.1602
     52  C         -2.9110   -0.5640  -44.8070 C.2   209  GLU209      0.2287
     53  O         -2.9550    0.1820  -45.7920 O.2   209  GLU209     -0.2864
     54  CB        -1.7030    0.8630  -43.1220 C.3   209  GLU209      0.0415
     55  CG        -1.9510    1.8330  -41.9750 C.3   209  GLU209      0.1163
     56  CD        -0.7790    2.7530  -41.6600 C.2   209  GLU209      0.3649
     57  OE1        0.2580    2.6670  -42.3610 O.co2 209  GLU209     -0.2457
     58  OE2       -0.9110    3.5690  -40.7060 O.co2 209  GLU209     -0.2457
     59  N         -5.9380   -9.5850  -35.4470 N.3   240  VAL240     -0.1231
     60  CA        -5.0460   -8.4320  -35.4890 C.3   240  VAL240      0.1692
     61  C         -5.4030   -7.3210  -34.4800 C.2   240  VAL240      0.2592
     62  O         -4.5850   -6.4350  -34.1980 O.2   240  VAL240     -0.2718
     63  CB        -4.9870   -7.8370  -36.9070 C.3   240  VAL240      0.0266
     64  CG1       -4.9440   -8.9370  -37.9670 C.3   240  VAL240      0.0020
     65  CG2       -6.1570   -6.8950  -37.1420 C.3   240  VAL240      0.0020
     66  N         -6.6370   -7.3750  -33.9420 N.am  241  THR241     -0.1953
     67  CA        -7.1140   -6.3550  -33.0110 C.3   241  THR241      0.1897
     68  C         -6.5000   -6.5940  -31.6250 C.2   241  THR241      0.2313
     69  O         -6.3030   -5.6480  -30.8500 O.2   241  THR241     -0.2863
     70  CB        -8.6690   -6.2800  -32.9800 C.3   241  THR241      0.1794
     71  OG1       -9.2100   -7.3600  -32.2130 O.3   241  THR241     -0.2208
     72  CG2       -9.2630   -6.3300  -34.4140 C.3   241  THR241      0.0378
     73  N         -3.5380   -7.1020  -30.9350 N.3   243  ALA243     -0.1231
     74  CA        -2.1360   -6.9770  -31.1410 C.3   243  ALA243      0.1694
     75  C         -1.5490   -6.5180  -29.8340 C.2   243  ALA243      0.2591
     76  O         -0.4620   -6.9030  -29.4760 O.2   243  ALA243     -0.2718
     77  CB        -1.8970   -5.9530  -32.2120 C.3   243  ALA243      0.0304
     78  N         -2.2890   -5.7250  -29.0980 N.am  244  GLN244     -0.1979
     79  CA        -1.7850   -5.1930  -27.8630 C.3   244  GLN244      0.1601
     80  C         -1.4280   -6.3560  -26.9720 C.2   244  GLN244      0.2287
     81  O         -0.4750   -6.2910  -26.2290 O.2   244  GLN244     -0.2864
     82  CB        -2.8350   -4.3460  -27.1890 C.3   244  GLN244      0.0394
     83  CG        -2.3810   -3.8150  -25.8560 C.3   244  GLN244      0.0908
     84  CD        -1.5020   -2.6070  -26.0040 C.2   244  GLN244      0.2608
     85  OE1       -0.4790   -2.4870  -25.3430 O.2   244  GLN244     -0.2717
     86  NE2       -1.8960   -1.7010  -26.8760 N.am  244  GLN244     -0.0878
     87  N          2.3270    7.2900  -42.2080 N.3   303  ASN303     -0.1240
     88  CA         1.4570    7.5840  -41.0930 C.3   303  ASN303      0.1653
     89  C          2.1310    8.4580  -40.0380 C.2   303  ASN303      0.2266
     90  O          1.8920    8.3130  -38.8130 O.2   303  ASN303     -0.2867
     91  CB         0.9930    6.2720  -40.4640 C.3   303  ASN303      0.1155
     92  CG         2.1090    5.5250  -39.7910 C.2   303  ASN303      0.2627
     93  OD1        2.9480    4.9270  -40.4640 O.2   303  ASN303     -0.2716
     94  ND2        2.1370    5.5640  -38.4570 N.am  303  ASN303     -0.0877
@<TRIPOS>BOND
     1    53    52    2
     2    52    51    1
     3    51    54    1
     4    51    50    1
     5    54    55    1
     6    39    38    2
     7    57    56   ar
     8    50    38   am
     9    87    88    1
    10    38    37    1
    11    55    56    1
    12    56    58   ar
    13    88    91    1
    14    88    89    1
    15    37    36    1
    16    37    40    1
    17    93    92    2
    18    91    92    1
    19    31    30    2
    20    89    90    2
    21    92    94   am
    22    40    41    1
    23    30    29    1
    24    41    43   ar
    25    41    42   ar
    26    46    43   ar
    27    46    48   ar
    28    23    22    2
    29    29    32    1
    30    29    28    1
    31    64    63    1
    32    43    45   ar
    33    32    33    1
    34    42    44   ar
    35    48    49   ar
    36    22    28   am
    37    22    21    1
    38    65    63    1
    39    63    60    1
    40    45    44   ar
    41    45    47   ar
    42    33    35   ar
    43    33    34   ar
    44    21    20    1
    45    21    24    1
    46    49    47   ar
    47     5     2    1
    48     5     6    1
    49     2     1    1
    50     2     3    1
    51    60    59    1
    52    60    61    1
    53    26    25    2
    54     7     6    1
    55     7     8    1
    56    25    27   am
    57    25    24    1
    58     3     4    2
    59    61    62    2
    60    61    66   am
    61    72    70    1
    62    15    14    2
    63     8     9    2
    64    66    67    1
    65    14    13    1
    66    67    70    1
    67    67    68    1
    68    70    71    1
    69     9    11    1
    70     9    10    1
    71    12    13    1
    72    77    74    1
    73    13    16    1
    74    16    17    1
    75    68    69    2
    76    74    73    1
    77    74    75    1
    78    18    17    1
    79    17    19    1
    80    75    76    2
    81    75    78   am
    82    78    79    1
    83    79    82    1
    84    79    80    1
    85    82    83    1
    86    80    81    2
    87    86    84   am
    88    84    83    1
    89    84    85    2
