@<TRIPOS>MOLECULE
tmp/5hbeA00.pdb
 173 165 0 0 0
SMALL
GASTEIGER

@<TRIPOS>ATOM
      1  N         -9.7850   15.3550   -3.6770 N.3    28  VAL28      -0.1231
      2  CA        -8.5720   14.5520   -3.4450 C.3    28  VAL28       0.1692
      3  C         -7.2860   15.1540   -4.0490 C.2    28  VAL28       0.2592
      4  O         -6.1760   14.6540   -3.7820 O.2    28  VAL28      -0.2718
      5  CB        -8.7530   13.1080   -3.9830 C.3    28  VAL28       0.0266
      6  CG1       -9.8580   12.4060   -3.2260 C.3    28  VAL28       0.0020
      7  CG2       -9.0440   13.1060   -5.5000 C.3    28  VAL28       0.0020
      8  N         -7.4330   16.2140   -4.8510 N.am   29  GLY29      -0.1957
      9  CA        -6.3010   16.8620   -5.5250 C.3    29  GLY29       0.1869
     10  C         -6.5700   18.3160   -5.8770 C.2    29  GLY29       0.2309
     11  O         -7.7120   18.7030   -6.1070 O.2    29  GLY29      -0.2863
     12  N         -3.5120   22.1000  -12.8920 N.3    33  TYR33      -0.1241
     13  CA        -4.6010   21.4720  -13.6790 C.3    33  TYR33       0.1605
     14  C         -6.0360   21.8500  -13.2570 C.2    33  TYR33       0.2264
     15  O         -6.9580   21.8240  -14.0830 O.2    33  TYR33      -0.2867
     16  CB        -4.4680   19.9390  -13.6500 C.3    33  TYR33       0.0534
     17  CG        -4.4710   19.3190  -12.2600 C.ar   33  TYR33      -0.0201
     18  CD1       -5.6650   19.1220  -11.5500 C.ar   33  TYR33      -0.0009
     19  CD2       -3.2790   18.9150  -11.6590 C.ar   33  TYR33      -0.0009
     20  CE1       -5.6640   18.5580  -10.2780 C.ar   33  TYR33       0.0417
     21  CE2       -3.2650   18.3490  -10.3910 C.ar   33  TYR33       0.0417
     22  CZ        -4.4630   18.1740   -9.6980 C.ar   33  TYR33       0.1957
     23  OH        -4.4500   17.6110   -8.4370 O.3    33  TYR33      -0.2866
     24  N         -9.4540   18.1000   -8.4920 N.3    36  VAL36      -0.1245
     25  CA        -9.9850   16.7280   -8.6720 C.3    36  VAL36       0.1561
     26  C        -10.8120   16.2690   -7.4760 C.2    36  VAL36       0.2260
     27  O        -10.4070   16.4900   -6.3330 O.2    36  VAL36      -0.2867
     28  CB        -8.8580   15.6990   -8.8660 C.3    36  VAL36       0.0252
     29  CG1       -9.4290   14.3350   -9.2370 C.3    36  VAL36       0.0019
     30  CG2       -7.9330   16.1560   -9.9350 C.3    36  VAL36       0.0019
     31  N        -13.1390    9.8790  -10.9390 N.3    51  ALA51      -0.1245
     32  CA       -12.3590   11.1000  -10.7200 C.3    51  ALA51       0.1562
     33  C        -12.9980   12.2370  -11.5230 C.2    51  ALA51       0.2260
     34  O        -13.1290   12.1280  -12.7450 O.2    51  ALA51      -0.2867
     35  CB       -10.9140   10.8960  -11.1400 C.3    51  ALA51       0.0290
     36  N        -12.5530   16.1150  -12.5110 N.3    53  LYS53      -0.1245
     37  CA       -11.6220   17.2310  -12.6210 C.3    53  LYS53       0.1561
     38  C        -12.3690   18.4540  -13.1410 C.2    53  LYS53       0.2260
     39  O        -12.9070   18.4050  -14.2480 O.2    53  LYS53      -0.2867
     40  CB       -10.5080   16.8530  -13.6090 C.3    53  LYS53       0.0271
     41  CG        -9.5330   17.9810  -13.9630 C.3    53  LYS53       0.0035
     42  CD        -8.2970   17.4140  -14.6440 C.3    53  LYS53       0.0206
     43  CE        -7.7080   18.3650  -15.6760 C.3    53  LYS53       0.1093
     44  NZ        -6.6790   17.6810  -16.5020 N.3    53  LYS53      -0.1314
     45  N         -5.2840    6.5440  -19.0760 N.3    80  ILE80      -0.1245
     46  CA        -6.5110    6.8980  -18.3430 C.3    80  ILE80       0.1561
     47  C         -7.5890    7.3260  -19.3370 C.2    80  ILE80       0.2260
     48  O         -7.2910    8.0320  -20.2960 O.2    80  ILE80      -0.2867
     49  CB        -6.2360    7.9920  -17.2520 C.3    80  ILE80       0.0252
     50  CG1       -7.4350    8.1700  -16.3090 C.3    80  ILE80       0.0019
     51  CG2       -5.8220    9.3080  -17.8720 C.3    80  ILE80       0.0019
     52  CD1       -7.4660    7.1630  -15.1710 C.3    80  ILE80       0.0001
     53  N        -13.3390   10.7810  -15.2040 N.3    98  PHE98      -0.1227
     54  CA       -12.4340    9.6500  -15.4300 C.3    98  PHE98       0.1736
     55  C        -12.7460    8.5070  -14.4730 C.2    98  PHE98       0.2595
     56  O        -13.4330    8.6960  -13.4760 O.2    98  PHE98      -0.2718
     57  CB       -10.9770   10.0580  -15.1810 C.3    98  PHE98       0.0547
     58  CG       -10.5010   11.1940  -16.0280 C.ar   98  PHE98      -0.0202
     59  CD1       -9.9390   10.9610  -17.2700 C.ar   98  PHE98      -0.0042
     60  CD2      -10.5860   12.5010  -15.5700 C.ar   98  PHE98      -0.0042
     61  CE1       -9.4790   12.0110  -18.0530 C.ar   98  PHE98      -0.0003
     62  CE2      -10.1270   13.5640  -16.3490 C.ar   98  PHE98      -0.0003
     63  CZ        -9.5710   13.3150  -17.5920 C.ar   98  PHE98      -0.0000
     64  N        -12.1970    7.3300  -14.7670 N.am   99  ASP99      -0.1960
     65  CA       -12.1400    6.2330  -13.7880 C.3    99  ASP99       0.1840
     66  C        -11.2530    6.6560  -12.6100 C.2    99  ASP99       0.2622
     67  O        -10.2350    7.3060  -12.8180 O.2    99  ASP99      -0.2715
     68  CB       -11.5500    4.9710  -14.4230 C.3    99  ASP99       0.1450
     69  CG       -12.3590    4.4710  -15.6050 C.2    99  ASP99       0.3671
     70  OD1      -13.5010    3.9970  -15.3860 O.co2  99  ASP99      -0.2456
     71  OD2      -11.8360    4.5520  -16.7430 O.co2  99  ASP99      -0.2456
     72  N        -11.6290    6.2840  -11.3890 N.am  100  TYR100     -0.1960
     73  CA       -10.8620    6.6590  -10.1900 C.3   100  TYR100      0.1771
     74  C         -9.6940    5.7040   -9.9200 C.2   100  TYR100      0.2619
     75  O         -9.8940    4.4910   -9.8390 O.2   100  TYR100     -0.2715
     76  CB       -11.7760    6.6920   -8.9670 C.3   100  TYR100      0.0574
     77  CG       -11.0840    7.0880   -7.6780 C.ar  100  TYR100     -0.0198
     78  CD1      -10.6840    8.4080   -7.4530 C.ar  100  TYR100     -0.0009
     79  CD2      -10.8300    6.1430   -6.6790 C.ar  100  TYR100     -0.0009
     80  CE1      -10.0540    8.7800   -6.2560 C.ar  100  TYR100      0.0417
     81  CE2      -10.2030    6.5020   -5.4870 C.ar  100  TYR100      0.0417
     82  CZ        -9.8160    7.8190   -5.2850 C.ar  100  TYR100      0.1957
     83  OH        -9.1940    8.1690   -4.1080 O.3   100  TYR100     -0.2866
     84  N         -8.4960    6.2720   -9.7440 N.am  101  ALA101     -0.1977
     85  CA        -7.2680    5.5350   -9.4120 C.3   101  ALA101      0.1597
     86  C         -6.8230    5.8540   -7.9770 C.2   101  ALA101      0.2287
     87  O         -6.3500    6.9670   -7.7080 O.2   101  ALA101     -0.2864
     88  CB        -6.1780    5.9110  -10.3690 C.3   101  ALA101      0.0319
     89  N         -0.7960    5.8570   -6.8880 N.3   104  ASP104     -0.1239
     90  CA         0.1270    6.3010   -7.9370 C.3   104  ASP104      0.1674
     91  C          1.5430    5.9350   -7.4870 C.2   104  ASP104      0.2266
     92  O          1.7340    5.5130   -6.3450 O.2   104  ASP104     -0.2867
     93  CB        -0.0150    7.8120   -8.1850 C.3   104  ASP104      0.1410
     94  CG        -0.0940    8.6190   -6.8870 C.2   104  ASP104      0.3668
     95  OD1        0.9600    8.8080   -6.2440 O.co2 104  ASP104     -0.2456
     96  OD2       -1.2090    9.0580   -6.5040 O.co2 104  ASP104     -0.2456
     97  N          4.1240    7.9260   -7.0000 N.3   106  TRP106     -0.1227
     98  CA         4.6590    8.9030   -6.0530 C.3   106  TRP106      0.1737
     99  C          4.2990    8.4970   -4.6240 C.2   106  TRP106      0.2595
    100  O          5.1560    8.5310   -3.7510 O.2   106  TRP106     -0.2718
    101  CB         4.1410   10.3220   -6.3400 C.3   106  TRP106      0.0564
    102  CG         4.7590   11.4020   -5.4600 C.ar  106  TRP106      0.0003
    103  CD1        5.8520   12.1670   -5.7500 C.ar  106  TRP106      0.0946
    104  CD2        4.3090   11.8240   -4.1600 C.ar  106  TRP106      0.0152
    105  NE1        6.1110   13.0380   -4.7110 N.ar  106  TRP106     -0.2442
    106  CE2        5.1800   12.8510   -3.7270 C.ar  106  TRP106      0.0810
    107  CE3        3.2550   11.4330   -3.3210 C.ar  106  TRP106      0.0012
    108  CZ2        5.0330   13.4960   -2.4790 C.ar  106  TRP106      0.0191
    109  CZ3        3.1030   12.0780   -2.0720 C.ar  106  TRP106      0.0001
    110  CH2        3.9890   13.1000   -1.6740 C.ar  106  TRP106      0.0015
    111  N          3.0350    8.1230   -4.4090 N.am  107  HIS107     -0.1975
    112  CA         2.5450    7.6820   -3.0960 C.3   107  HIS107      0.1656
    113  C          3.0430    6.2810   -2.7270 C.2   107  HIS107      0.2291
    114  O          3.3710    6.0420   -1.5730 O.2   107  HIS107     -0.2864
    115  CB         1.0090    7.7390   -3.0280 C.3   107  HIS107      0.0771
    116  CG         0.4640    9.1210   -2.8440 C.ar  107  HIS107      0.0820
    117  ND1        0.1430    9.9450   -3.9010 N.ar  107  HIS107     -0.2267
    118  CD2        0.1970    9.8290   -1.7210 C.ar  107  HIS107      0.1154
    119  CE1       -0.3010   11.1000   -3.4370 C.ar  107  HIS107      0.1986
    120  NE2       -0.2780   11.0560   -2.1160 N.ar  107  HIS107     -0.2212
    121  N          4.0840   10.7540   -9.9010 N.3   152  ALA152     -0.1231
    122  CA         2.7550   11.2840   -9.5770 C.3   152  ALA152      0.1694
    123  C          1.7330   11.0860  -10.7090 C.2   152  ALA152      0.2592
    124  O          0.5250   11.0580  -10.4620 O.2   152  ALA152     -0.2718
    125  CB         2.8580   12.7580   -9.2260 C.3   152  ALA152      0.0304
    126  N          2.2160   10.9590  -11.9440 N.am  153  ASN153     -0.1974
    127  CA         1.3350   10.8070  -13.0970 C.3   153  ASN153      0.1688
    128  C          1.0630    9.3510  -13.4760 C.2   153  ASN153      0.2292
    129  O          0.0470    9.0540  -14.1080 O.2   153  ASN153     -0.2864
    130  CB         1.9110   11.5620  -14.2930 C.3   153  ASN153      0.1181
    131  CG         1.9670   13.0600  -14.0580 C.2   153  ASN153      0.2629
    132  OD1        1.5250   13.5500  -13.0180 O.2   153  ASN153     -0.2716
    133  ND2        2.5020   13.7970  -15.0250 N.am  153  ASN153     -0.0877
    134  N         -0.4790    6.4220  -12.5430 N.3   155  LEU155     -0.1245
    135  CA        -1.5100    6.0400  -11.5770 C.3   155  LEU155      0.1561
    136  C         -1.6640    4.5230  -11.5250 C.2   155  LEU155      0.2260
    137  O         -1.3490    3.8280  -12.4880 O.2   155  LEU155     -0.2867
    138  CB        -2.8560    6.7070  -11.9080 C.3   155  LEU155      0.0270
    139  CG        -2.8490    8.1860  -12.3160 C.3   155  LEU155      0.0019
    140  CD1       -4.2160    8.8390  -12.1300 C.3   155  LEU155      0.0001
    141  CD2       -1.8150    8.9890  -11.5880 C.3   155  LEU155      0.0001
    142  N         -1.4350    9.2380  -16.9400 N.3   169  ALA169     -0.1231
    143  CA        -2.3150   10.4070  -16.8130 C.3   169  ALA169      0.1694
    144  C         -1.5150   11.6830  -16.9830 C.2   169  ALA169      0.2592
    145  O         -0.2950   11.6190  -17.1040 O.2   169  ALA169     -0.2718
    146  CB        -2.9940   10.3940  -15.4410 C.3   169  ALA169      0.0304
    147  N         -2.2040   12.8280  -16.9960 N.am  170  ASP170     -0.1974
    148  CA        -1.5710   14.1620  -16.9810 C.3   170  ASP170      0.1709
    149  C         -0.5570   14.3540  -18.1150 C.2   170  ASP170      0.2293
    150  O          0.5720   14.8120  -17.8920 O.2   170  ASP170     -0.2864
    151  CB        -0.9190   14.4100  -15.6060 C.3   170  ASP170      0.1436
    152  CG        -0.3190   15.8170  -15.4540 C.2   170  ASP170      0.3671
    153  OD1       -0.8750   16.7960  -16.0110 O.co2 170  ASP170     -0.2456
    154  OD2        0.7220   15.9320  -14.7630 O.co2 170  ASP170     -0.2456
    155  N         -6.4790    7.7180   -0.5840 N.3   339  ARG339     -0.1245
    156  CA        -6.1320    9.1400   -0.7170 C.3   339  ARG339      0.1563
    157  C         -6.8400    9.9350    0.3580 C.2   339  ARG339      0.2260
    158  O         -8.0400    9.7550    0.5690 O.2   339  ARG339     -0.2867
    159  CB        -6.5440    9.6940   -2.0810 C.3   339  ARG339      0.0307
    160  CG        -6.0040    8.9210   -3.2500 C.3   339  ARG339      0.0489
    161  CD        -6.2280    9.6510   -4.5630 C.3   339  ARG339      0.2205
    162  NE        -5.6510    8.9030   -5.6810 N.pl3 339  ARG339     -0.0865
    163  CZ        -4.3980    8.9990   -6.1340 C.cat 339  ARG339      0.5346
    164  NH1       -3.5120    9.8310   -5.5820 N.pl3 339  ARG339      0.1354
    165  NH2       -4.0170    8.2300   -7.1570 N.pl3 339  ARG339      0.1354
    166  N         -9.3010   16.8090    1.1160 N.3   342  LEU342     -0.1245
    167  CA        -8.7190   18.1580    1.2480 C.3   342  LEU342      0.1561
    168  C         -9.7920   19.2260    1.5190 C.2   342  LEU342      0.2260
    169  O        -10.9860   18.9190    1.5620 O.2   342  LEU342     -0.2867
    170  CB        -7.9050   18.5030   -0.0160 C.3   342  LEU342      0.0270
    171  CG        -6.6830   17.6310   -0.3450 C.3   342  LEU342      0.0019
    172  CD1       -6.0520   18.0750   -1.6440 C.3   342  LEU342      0.0001
    173  CD2       -5.6430   17.6620    0.7680 C.3   342  LEU342      0.0001
@<TRIPOS>BOND
     1    48    47    2
     2    47    46    1
     3    45    46    1
     4    46    49    1
     5   149   150    2
     6   149   148    1
     7    61    63   ar
     8    61    59   ar
     9    51    49    1
    10    63    62   ar
    11    59    58   ar
    12    49    50    1
    13   145   144    2
    14   147   144   am
    15   147   148    1
    16   144   143    1
    17   148   151    1
    18   142   143    1
    19   143   146    1
    20    71    69   ar
    21    44    43    1
    22    62    60   ar
    23    50    52    1
    24    58    60   ar
    25    58    57    1
    26   153   152   ar
    27    43    42    1
    28   151   152    1
    29    69    70   ar
    30    69    68    1
    31   152   154   ar
    32    54    53    1
    33    54    57    1
    34    54    55    1
    35   133   131   am
    36    64    55   am
    37    64    65    1
    38    42    41    1
    39    55    56    2
    40    68    65    1
    41   130   131    1
    42   130   127    1
    43    39    38    2
    44   129   128    2
    45    15    14    2
    46   131   132    2
    47    41    40    1
    48    65    66    1
    49    13    16    1
    50    13    14    1
    51    13    12    1
    52    16    17    1
    53    40    37    1
    54   128   127    1
    55    38    37    1
    56   127   126    1
    57    67    66    2
    58    34    33    2
    59    37    36    1
    60    66    72   am
    61   134   135    1
    62   137   136    2
    63   139   140    1
    64   139   138    1
    65   139   141    1
    66    17    19   ar
    67    17    18   ar
    68   126   123   am
    69   138   135    1
    70    19    21   ar
    71   135   136    1
    72    18    20   ar
    73    33    32    1
    74    72    73    1
    75    35    32    1
    76    31    32    1
    77   123   124    2
    78   123   122    1
    79    21    22   ar
    80    88    85    1
    81    20    22   ar
    82    73    74    1
    83    73    76    1
    84    30    28    1
    85    74    75    2
    86    74    84   am
    87   121   122    1
    88    84    85    1
    89    22    23    1
    90   122   125    1
    91    85    86    1
    92    29    28    1
    93    76    77    1
    94    28    25    1
    95    25    24    1
    96    25    26    1
    97    93    90    1
    98    93    94    1
    99    86    87    2
   100    90    91    1
   101    90    89    1
   102    77    78   ar
   103    77    79   ar
   104    91    92    2
   105    26    27    2
   106    78    80   ar
   107   165   163    1
   108    97    98    1
   109    94    96   ar
   110    94    95   ar
   111    79    81   ar
   112   101    98    1
   113   101   102    1
   114    80    82   ar
   115   163   162    2
   116   163   164    1
   117    11    10    2
   118    98    99    1
   119    10     9    1
   120   103   102   ar
   121   103   105   ar
   122   162   161    1
   123     9     8    1
   124     7     5    1
   125    81    82   ar
   126   102   104   ar
   127    82    83    1
   128     8     3   am
   129   105   106   ar
   130    99   111   am
   131    99   100    2
   132   161   160    1
   133   111   112    1
   134   104   106   ar
   135   104   107   ar
   136     3     4    2
   137     3     2    1
   138     5     2    1
   139     5     6    1
   140   117   119   ar
   141   117   116   ar
   142   106   108   ar
   143     1     2    1
   144   119   120   ar
   145   107   109   ar
   146   160   159    1
   147   112   115    1
   148   112   113    1
   149   115   116    1
   150   116   118   ar
   151   113   114    2
   152   108   110   ar
   153   120   118   ar
   154   159   156    1
   155   109   110   ar
   156   172   171    1
   157   156   155    1
   158   156   157    1
   159   171   170    1
   160   171   173    1
   161   170   167    1
   162   157   158    2
   163   166   167    1
   164   167   168    1
   165   168   169    2
