@<TRIPOS>MOLECULE
tmp/5hbgB00.pdb
 94 89 0 0 0
SMALL
GASTEIGER

@<TRIPOS>ATOM
      1  N         -1.6550  -13.3690   -0.4950 N.3    72  THR72      -0.1203
      2  CA        -0.4320  -14.0930   -0.0440 C.3    72  THR72       0.1994
      3  C          0.6230  -13.1130    0.3830 C.2    72  THR72       0.2618
      4  O          0.6210  -11.9870   -0.1120 O.2    72  THR72      -0.2717
      5  CB         0.1250  -15.0480   -1.1670 C.3    72  THR72       0.1784
      6  OG1        1.4410  -15.5280   -0.8010 O.3    72  THR72      -0.2211
      7  CG2        0.2070  -14.3790   -2.4730 C.3    72  THR72       0.0376
      8  N          1.4990  -13.5040    1.3160 N.am   73  ALA73      -0.1965
      9  CA         2.7050  -12.6960    1.6690 C.3    73  ALA73       0.1728
     10  C          3.8100  -12.8970    0.5910 C.2    73  ALA73       0.2617
     11  O          4.7660  -12.1440    0.5300 O.2    73  ALA73      -0.2715
     12  CB         3.2680  -13.0750    3.0420 C.3    73  ALA73       0.0334
     13  N          3.6470  -13.8780   -0.2900 N.am   74  GLY74      -0.1940
     14  CA         4.5730  -14.0010   -1.4070 C.3    74  GLY74       0.2014
     15  C          4.8100  -15.4370   -1.8050 C.2    74  GLY74       0.2639
     16  O          4.6850  -15.7690   -2.9900 O.2    74  GLY74      -0.2714
     17  N          5.0740  -16.3030   -0.8390 N.am   75  ASN75      -0.1958
     18  CA         5.5480  -17.6700   -1.1730 C.3    75  ASN75       0.1819
     19  C          4.4640  -18.5280   -1.7240 C.2    75  ASN75       0.2621
     20  O          4.6770  -19.3120   -2.6690 O.2    75  ASN75      -0.2715
     21  CB         6.2560  -18.3480    0.0300 C.3    75  ASN75       0.1195
     22  CG         7.6640  -17.8010    0.2520 C.2    75  ASN75       0.2630
     23  OD1        8.4130  -17.4940   -0.7030 O.2    75  ASN75      -0.2716
     24  ND2        8.0400  -17.6840    1.4940 N.am   75  ASN75      -0.0877
     25  N          3.2670  -18.3550   -1.1520 N.am   76  THR76      -0.1951
     26  CA         2.1920  -19.1440   -1.6820 C.3    76  THR76       0.1897
     27  C          1.9420  -18.7540   -3.1690 C.2    76  THR76       0.2313
     28  O          1.6400  -19.6050   -3.9910 O.2    76  THR76      -0.2863
     29  CB         0.9040  -19.0080   -0.7960 C.3    76  THR76       0.1794
     30  OG1        1.1680  -19.6360    0.4570 O.3    76  THR76      -0.2208
     31  CG2       -0.2190  -19.8170   -1.4330 C.3    76  THR76       0.0378
     32  N          9.8070  -11.3330   -3.9290 N.3   103  LYS103     -0.1245
     33  CA         8.7520  -12.3120   -4.1770 C.3   103  LYS103      0.1561
     34  C          7.7620  -11.8630   -5.2200 C.2   103  LYS103      0.2260
     35  O          7.3130  -12.6530   -6.0530 O.2   103  LYS103     -0.2867
     36  CB         8.0520  -12.6770   -2.8960 C.3   103  LYS103      0.0271
     37  CG         8.9530  -13.4870   -1.9540 C.3   103  LYS103      0.0035
     38  CD         8.1430  -13.7730   -0.6700 C.3   103  LYS103      0.0206
     39  CE         9.0520  -13.9470    0.5170 C.3   103  LYS103      0.1093
     40  NZ         8.2600  -13.9360    1.8370 N.3   103  LYS103     -0.1314
     41  N         -2.5070   -8.9810    6.0640 N.3   123  ILE123     -0.1245
     42  CA        -3.1350  -10.0590    5.3460 C.3   123  ILE123      0.1561
     43  C         -4.6430  -10.0380    5.3060 C.2   123  ILE123      0.2260
     44  O         -5.2540  -10.4160    4.2960 O.2   123  ILE123     -0.2867
     45  CB        -2.6330  -11.4180    5.8920 C.3   123  ILE123      0.0252
     46  CG1       -1.4660  -11.8760    5.0600 C.3   123  ILE123      0.0019
     47  CG2       -3.7910  -12.3770    6.0820 C.3   123  ILE123      0.0019
     48  CD1       -1.8170  -12.1780    3.6040 C.3   123  ILE123      0.0001
     49  N         -6.2050  -20.0700    1.6420 N.3   145  GLN145     -0.1231
     50  CA        -5.3180  -20.9510    2.3830 C.3   145  GLN145      0.1698
     51  C         -5.5200  -20.7010    3.8590 C.2   145  GLN145      0.2592
     52  O         -5.2950  -21.6080    4.6970 O.2   145  GLN145     -0.2718
     53  CB        -3.8620  -20.6800    2.0200 C.3   145  GLN145      0.0381
     54  CG        -3.3080  -19.3840    2.6270 C.3   145  GLN145      0.0905
     55  CD        -2.0200  -18.9550    1.9650 C.2   145  GLN145      0.2608
     56  OE1       -1.0030  -19.6520    2.0790 O.2   145  GLN145     -0.2717
     57  NE2       -2.0640  -17.8270    1.2270 N.am  145  GLN145     -0.0878
     58  N         -5.9640  -19.4780    4.1820 N.am  146  PHE146     -0.1976
     59  CA        -6.1250  -19.0920    5.5880 C.3   146  PHE146      0.1639
     60  C         -7.2610  -19.8070    6.3110 C.2   146  PHE146      0.2290
     61  O         -7.2820  -19.8450    7.5090 O.2   146  PHE146     -0.2864
     62  CB        -6.1410  -17.5490    5.7450 C.3   146  PHE146      0.0560
     63  CG        -4.7660  -16.9490    5.5080 C.ar  146  PHE146     -0.0200
     64  CD1       -3.8030  -17.0030    6.5000 C.ar  146  PHE146     -0.0042
     65  CD2       -4.4240  -16.4040    4.2550 C.ar  146  PHE146     -0.0042
     66  CE1       -2.5280  -16.4940    6.3000 C.ar  146  PHE146     -0.0003
     67  CE2       -3.1270  -15.9320    4.0310 C.ar  146  PHE146     -0.0003
     68  CZ        -2.1960  -15.9640    5.0670 C.ar  146  PHE146     -0.0000
     69  N          2.2210  -19.0840   10.1150 N.3   179  GLY179     -0.1210
     70  CA         1.5860  -17.9750    9.4170 C.3   179  GLY179      0.1956
     71  C          0.1140  -18.2880    9.2130 C.2   179  GLY179      0.2612
     72  O         -0.7240  -17.8590    9.9880 O.2   179  GLY179     -0.2717
     73  N         -0.2200  -19.0000    8.1460 N.am  180  SER180     -0.1952
     74  CA        -1.5590  -19.5980    8.0540 C.3   180  SER180      0.1924
     75  C         -1.8250  -20.6920    9.1220 C.2   180  SER180      0.2314
     76  O         -2.9790  -20.9730    9.5150 O.2   180  SER180     -0.2863
     77  CB        -1.8200  -20.1120    6.6360 C.3   180  SER180      0.2116
     78  OG        -0.9950  -21.2570    6.3220 O.3   180  SER180     -0.2180
     79  N          6.8940  -13.8820    7.1880 N.3   222  GLY222     -0.1225
     80  CA         6.3840  -15.2120    6.7870 C.3   222  GLY222      0.1811
     81  C          5.5240  -15.8120    7.9360 C.2   222  GLY222      0.2280
     82  O          4.5700  -16.6100    7.7290 O.2   222  GLY222     -0.2866
     83  N         15.1590  -11.7320    0.6020 N.3   298  TYR298     -0.1241
     84  CA        15.1050  -10.6490    1.5820 C.3   298  TYR298      0.1605
     85  C         16.3190   -9.8090    1.5690 C.2   298  TYR298      0.2264
     86  O         16.5070   -8.9740    2.4650 O.2   298  TYR298     -0.2867
     87  CB        14.8800  -11.1670    3.0040 C.3   298  TYR298      0.0534
     88  CG        13.7370  -12.0920    3.0710 C.ar  298  TYR298     -0.0201
     89  CD1       12.3960  -11.5940    3.2230 C.ar  298  TYR298     -0.0009
     90  CD2       13.9580  -13.4580    2.9960 C.ar  298  TYR298     -0.0009
     91  CE1       11.3150  -12.4530    3.3250 C.ar  298  TYR298      0.0417
     92  CE2       12.8750  -14.3550    3.0840 C.ar  298  TYR298      0.0417
     93  CZ        11.5640  -13.8480    3.2540 C.ar  298  TYR298      0.1957
     94  OH        10.4960  -14.7180    3.3600 O.3   298  TYR298     -0.2866
@<TRIPOS>BOND
     1    35    34    2
     2    34    33    1
     3    33    32    1
     4    33    36    1
     5    28    27    2
     6    27    26    1
     7    16    15    2
     8    36    37    1
     9    20    19    2
    10     7     5    1
    11    37    38    1
    12    15    14    1
    13    15    17   am
    14    19    18    1
    15    19    25   am
    16    26    25    1
    17    26    29    1
    18    31    29    1
    19    14    13    1
    20    18    17    1
    21    18    21    1
    22     5     6    1
    23     5     2    1
    24    29    30    1
    25    23    22    2
    26    38    39    1
    27     1     2    1
    28    13    10   am
    29     4     3    2
    30     2     3    1
    31    21    22    1
    32    22    24   am
    33     3     8   am
    34    39    40    1
    35    11    10    2
    36    10     9    1
    37    83    84    1
    38    57    55   am
    39     8     9    1
    40    85    84    1
    41    85    86    2
    42    84    87    1
    43    49    50    1
    44     9    12    1
    45    55    56    2
    46    55    54    1
    47    53    50    1
    48    53    54    1
    49    50    51    1
    50    90    88   ar
    51    90    92   ar
    52    87    88    1
    53    88    89   ar
    54    92    93   ar
    55    89    91   ar
    56    93    91   ar
    57    93    94    1
    58    48    46    1
    59    51    58   am
    60    51    52    2
    61    67    65   ar
    62    67    68   ar
    63    58    59    1
    64    65    63   ar
    65    44    43    2
    66    46    45    1
    67    68    66   ar
    68    43    42    1
    69    42    45    1
    70    42    41    1
    71    63    62    1
    72    63    64   ar
    73    59    62    1
    74    59    60    1
    75    45    47    1
    76    66    64   ar
    77    60    61    2
    78    78    77    1
    79    77    74    1
    80    80    79    1
    81    80    81    1
    82    82    81    2
    83    74    73    1
    84    74    75    1
    85    73    71   am
    86    75    76    2
    87    71    70    1
    88    71    72    2
    89    70    69    1
