@<TRIPOS>MOLECULE
tmp/5hbhA00.pdb
 194 185 0 0 0
SMALL
GASTEIGER

@<TRIPOS>ATOM
      1  N         10.1810   15.0950    2.8700 N.3    29  VAL29      -0.1231
      2  CA         8.9900   14.2540    2.6480 C.3    29  VAL29       0.1692
      3  C          7.7230   14.7710    3.3400 C.2    29  VAL29       0.2592
      4  O          6.6430   14.2120    3.1430 O.2    29  VAL29      -0.2718
      5  CB         9.2410   12.7870    3.0880 C.3    29  VAL29       0.0266
      6  CG1       10.2880   12.1410    2.1930 C.3    29  VAL29       0.0020
      7  CG2        9.6480   12.6970    4.5560 C.3    29  VAL29       0.0020
      8  N          7.8490   15.8370    4.1300 N.am   30  GLY30      -0.1957
      9  CA         6.7360   16.3520    4.9280 C.3    30  GLY30       0.1869
     10  C          6.8850   17.8240    5.2560 C.2    30  GLY30       0.2309
     11  O          7.9840   18.2950    5.5450 O.2    30  GLY30      -0.2863
     12  N          4.2070   22.7240   11.9490 N.3    34  TYR34      -0.1241
     13  CA         5.3030   22.2080   12.7770 C.3    34  TYR34       0.1605
     14  C          6.7030   22.4380   12.2160 C.2    34  TYR34       0.2264
     15  O          7.6590   22.5630   12.9770 O.2    34  TYR34      -0.2867
     16  CB         5.1200   20.7040   12.9790 C.3    34  TYR34       0.0534
     17  CG         5.1470   19.8700   11.7040 C.ar   34  TYR34      -0.0201
     18  CD1        3.9770   19.6180   10.9860 C.ar   34  TYR34      -0.0009
     19  CD2        6.3290   19.3040   11.2390 C.ar   34  TYR34      -0.0009
     20  CE1        3.9910   18.8450    9.8340 C.ar   34  TYR34       0.0417
     21  CE2        6.3510   18.5270   10.0900 C.ar   34  TYR34       0.0417
     22  CZ         5.1810   18.2970    9.3950 C.ar   34  TYR34       0.1957
     23  OH         5.1760   17.5370    8.2540 O.3    34  TYR34      -0.2866
     24  N          9.9530   17.6460    7.5540 N.3    37  VAL37      -0.1245
     25  CA        10.4910   16.3080    7.8130 C.3    37  VAL37       0.1561
     26  C         11.2030   15.7860    6.5710 C.2    37  VAL37       0.2260
     27  O         10.6750   15.8850    5.4600 O.2    37  VAL37      -0.2867
     28  CB         9.4020   15.3090    8.2600 C.3    37  VAL37       0.0252
     29  CG1        9.9290   13.8810    8.2870 C.3    37  VAL37       0.0019
     30  CG2        8.8920   15.6850    9.6380 C.3    37  VAL37       0.0019
     31  N         13.9490    9.6790   10.1170 N.3    52  ALA52      -0.1245
     32  CA        13.0530   10.8120    9.9480 C.3    52  ALA52       0.1562
     33  C         13.6560   12.0120   10.6570 C.2    52  ALA52       0.2260
     34  O         13.8240   11.9800   11.8660 O.2    52  ALA52      -0.2867
     35  CB        11.6790   10.4930   10.5040 C.3    52  ALA52       0.0290
     36  N         12.9280   15.7140   11.6270 N.3    54  LYS54      -0.1245
     37  CA        11.9800   16.8120   11.8190 C.3    54  LYS54       0.1561
     38  C         12.7220   18.0950   12.2060 C.2    54  LYS54       0.2260
     39  O         13.3450   18.1450   13.2610 O.2    54  LYS54      -0.2867
     40  CB        10.9830   16.4310   12.9190 C.3    54  LYS54       0.0271
     41  CG         9.8990   17.4560   13.2470 C.3    54  LYS54       0.0035
     42  CD         8.7750   16.7980   14.0470 C.3    54  LYS54       0.0206
     43  CE         7.9920   17.7860   14.9050 C.3    54  LYS54       0.1093
     44  NZ         6.9580   17.0850   15.7220 N.3    54  LYS54      -0.1314
     45  N          6.9760   17.5520   23.6060 N.3    68  GLU68      -0.1245
     46  CA         7.2090   16.4120   22.7180 C.3    68  GLU68       0.1567
     47  C          8.5040   15.6870   23.0710 C.2    68  GLU68       0.2260
     48  O          8.5330   14.4600   23.1030 O.2    68  GLU68      -0.2867
     49  CB         7.2440   16.8560   21.2530 C.3    68  GLU68       0.0388
     50  CG         7.2820   15.7080   20.2450 C.3    68  GLU68       0.1160
     51  CD         7.5040   16.1750   18.8090 C.2    68  GLU68       0.3649
     52  OE1        7.3660   17.3940   18.5170 O.co2  68  GLU68      -0.2457
     53  OE2        7.8240   15.3050   17.9620 O.co2  68  GLU68      -0.2457
     54  N          6.3710    5.6680   18.5000 N.3    81  ILE81      -0.1245
     55  CA         7.5550    6.0430   17.7030 C.3    81  ILE81       0.1561
     56  C          8.6900    6.4890   18.6140 C.2    81  ILE81       0.2260
     57  O          8.4520    7.1370   19.6260 O.2    81  ILE81      -0.2867
     58  CB         7.2160    7.1420   16.6550 C.3    81  ILE81       0.0252
     59  CG1        8.2620    7.2020   15.5340 C.3    81  ILE81       0.0019
     60  CG2        7.0580    8.5160   17.3070 C.3    81  ILE81       0.0019
     61  CD1        8.2670    6.0000   14.6010 C.3    81  ILE81       0.0001
     62  N         14.0220   10.5380   14.3790 N.3    99  PHE99      -0.1227
     63  CA        13.1890    9.3680   14.5890 C.3    99  PHE99       0.1736
     64  C         13.6240    8.2600   13.6440 C.2    99  PHE99       0.2595
     65  O         14.2600    8.5060   12.6150 O.2    99  PHE99      -0.2718
     66  CB        11.7220    9.6660   14.2830 C.3    99  PHE99       0.0547
     67  CG        11.1110   10.7360   15.1330 C.ar   99  PHE99      -0.0202
     68  CD1       10.5390   10.4260   16.3530 C.ar   99  PHE99      -0.0042
     69  CD2       11.0490   12.0530   14.6820 C.ar   99  PHE99      -0.0042
     70  CE1        9.9460   11.4120   17.1240 C.ar   99  PHE99      -0.0003
     71  CE2       10.4610   13.0440   15.4520 C.ar   99  PHE99      -0.0003
     72  CZ         9.9070   12.7200   16.6760 C.ar   99  PHE99      -0.0000
     73  N         13.2340    7.0390   13.9930 N.am  100  ASP100     -0.1960
     74  CA        13.1800    5.9500   13.0320 C.3   100  ASP100      0.1840
     75  C         12.1810    6.3080   11.9160 C.2   100  ASP100      0.2622
     76  O         11.2060    7.0370   12.1380 O.2   100  ASP100     -0.2715
     77  CB        12.7760    4.6420   13.7240 C.3   100  ASP100      0.1450
     78  CG        13.8720    4.0970   14.6180 C.2   100  ASP100      0.3671
     79  OD1       14.9120    3.6510   14.0880 O.co2 100  ASP100     -0.2456
     80  OD2       13.6930    4.1210   15.8520 O.co2 100  ASP100     -0.2456
     81  N         12.4400    5.7950   10.7170 N.am  101  TYR101     -0.1960
     82  CA        11.6630    6.1500    9.5340 C.3   101  TYR101      0.1771
     83  C         10.5430    5.1550    9.2530 C.2   101  TYR101      0.2619
     84  O         10.7950    3.9570    9.1020 O.2   101  TYR101     -0.2715
     85  CB        12.5760    6.2160    8.3240 C.3   101  TYR101      0.0574
     86  CG        11.8500    6.6290    7.0780 C.ar  101  TYR101     -0.0198
     87  CD1       11.4160    7.9410    6.9120 C.ar  101  TYR101     -0.0009
     88  CD2       11.5780    5.7100    6.0760 C.ar  101  TYR101     -0.0009
     89  CE1       10.7410    8.3280    5.7700 C.ar  101  TYR101      0.0417
     90  CE2       10.9000    6.0830    4.9320 C.ar  101  TYR101      0.0417
     91  CZ        10.4840    7.3900    4.7820 C.ar  101  TYR101      0.1957
     92  OH         9.8170    7.7550    3.6430 O.3   101  TYR101     -0.2866
     93  N          9.3170    5.6730    9.1540 N.am  102  ALA102     -0.1977
     94  CA         8.1500    4.8900    8.7730 C.3   102  ALA102      0.1597
     95  C          7.7660    5.1700    7.3150 C.2   102  ALA102      0.2287
     96  O          7.3100    6.2680    6.9930 O.2   102  ALA102     -0.2864
     97  CB         6.9950    5.2220    9.6900 C.3   102  ALA102      0.0319
     98  N          1.7960    4.9680    6.3110 N.3   105  ASP105     -0.1239
     99  CA         0.8980    5.3800    7.3850 C.3   105  ASP105      0.1674
    100  C         -0.5480    5.1900    6.9490 C.2   105  ASP105      0.2266
    101  O         -0.8130    4.8950    5.7810 O.2   105  ASP105     -0.2867
    102  CB         1.1590    6.8310    7.7800 C.3   105  ASP105      0.1410
    103  CG         1.1650    7.7520    6.6100 C.2   105  ASP105      0.3668
    104  OD1        0.0900    8.1390    6.1270 O.co2 105  ASP105     -0.2456
    105  OD2        2.2580    8.0900    6.1610 O.co2 105  ASP105     -0.2456
    106  N         -2.9140    7.4010    6.5470 N.3   107  TRP107     -0.1227
    107  CA        -3.3850    8.3920    5.5810 C.3   107  TRP107      0.1737
    108  C         -3.1340    7.9310    4.1740 C.2   107  TRP107      0.2595
    109  O         -4.0290    7.9920    3.3390 O.2   107  TRP107     -0.2718
    110  CB        -2.7350    9.7420    5.8100 C.3   107  TRP107      0.0564
    111  CG        -3.4680   10.8630    5.1240 C.ar  107  TRP107      0.0003
    112  CD1       -4.5370   11.6070    5.6150 C.ar  107  TRP107      0.0946
    113  CD2       -3.2000   11.4140    3.7940 C.ar  107  TRP107      0.0152
    114  NE1       -4.9390   12.5480    4.7030 N.ar  107  TRP107     -0.2442
    115  CE2       -4.1770   12.4890    3.5890 C.ar  107  TRP107      0.0810
    116  CE3       -2.2830   11.1340    2.7860 C.ar  107  TRP107      0.0012
    117  CZ2       -4.2160   13.2310    2.4190 C.ar  107  TRP107      0.0191
    118  CZ3       -2.3270   11.8940    1.6060 C.ar  107  TRP107      0.0001
    119  CH2       -3.2760   12.9140    1.4280 C.ar  107  TRP107      0.0015
    120  N         -1.9260    7.4380    3.9160 N.am  108  HIS108     -0.1975
    121  CA        -1.5340    6.9840    2.5810 C.3   108  HIS108      0.1656
    122  C         -2.0570    5.6230    2.2350 C.2   108  HIS108      0.2291
    123  O         -2.3910    5.3800    1.0880 O.2   108  HIS108     -0.2864
    124  CB        -0.0150    7.0340    2.4190 C.3   108  HIS108      0.0771
    125  CG         0.5410    8.4390    2.4340 C.ar  108  HIS108      0.0820
    126  ND1        0.8040    9.1010    3.5770 N.ar  108  HIS108     -0.2267
    127  CD2        0.8460    9.3130    1.3920 C.ar  108  HIS108      0.1154
    128  CE1        1.2660   10.3280    3.2820 C.ar  108  HIS108      0.1986
    129  NE2        1.2910   10.4570    1.9440 N.ar  108  HIS108     -0.2212
    130  N         -5.0550   11.0390   14.4140 N.3   148  LYS148     -0.1245
    131  CA        -5.5370   11.0540   13.0320 C.3   148  LYS148      0.1561
    132  C         -4.7830    9.9970   12.2270 C.2   148  LYS148      0.2260
    133  O         -3.7760    9.4850   12.6960 O.2   148  LYS148     -0.2867
    134  CB        -5.2620   12.4170   12.3850 C.3   148  LYS148      0.0271
    135  CG        -5.7590   13.6330   13.1640 C.3   148  LYS148      0.0035
    136  CD        -5.2480   14.9470   12.5870 C.3   148  LYS148      0.0206
    137  CE        -3.7280   15.0260   12.5790 C.3   148  LYS148      0.1093
    138  NZ        -3.2090   16.4220   12.5640 N.3   148  LYS148     -0.1314
    139  N         -2.7720   10.5040    9.7480 N.3   150  ALA150     -0.1231
    140  CA        -1.4050   11.0240    9.4920 C.3   150  ALA150      0.1694
    141  C         -0.4090   10.8460   10.6640 C.2   150  ALA150      0.2592
    142  O          0.7840   11.1010   10.4910 O.2   150  ALA150     -0.2718
    143  CB        -1.4770   12.4960    9.0930 C.3   150  ALA150      0.0304
    144  N         -0.9160   10.4610   11.8400 N.am  151  ASN151     -0.1974
    145  CA        -0.1280   10.1350   13.0400 C.3   151  ASN151      0.1688
    146  C          0.1740    8.6670   13.1980 C.2   151  ASN151      0.2292
    147  O          1.1310    8.3240   13.8860 O.2   151  ASN151     -0.2864
    148  CB        -0.9120   10.4440   14.3210 C.3   151  ASN151      0.1181
    149  CG        -1.3180   11.8790   14.4410 C.2   151  ASN151      0.2629
    150  OD1       -2.4120   12.1500   14.8960 O.2   151  ASN151     -0.2716
    151  ND2       -0.4370   12.8060   14.0660 N.am  151  ASN151     -0.0877
    152  N          1.5960    5.7480   11.9380 N.3   153  LEU153     -0.1245
    153  CA         2.5570    5.3030   10.9680 C.3   153  LEU153      0.1561
    154  C          2.5760    3.7720   10.9650 C.2   153  LEU153      0.2260
    155  O          2.1310    3.1270   11.9260 O.2   153  LEU153     -0.2867
    156  CB         3.9390    5.8580   11.3140 C.3   153  LEU153      0.0270
    157  CG         4.0520    7.3170   11.7770 C.3   153  LEU153      0.0019
    158  CD1        5.5180    7.6600   11.9680 C.3   153  LEU153      0.0001
    159  CD2        3.3770    8.2620   10.7880 C.3   153  LEU153      0.0001
    160  N          2.5910    8.6820   16.4970 N.3   167  ALA167     -0.1231
    161  CA         3.3840    9.9010   16.7090 C.3   167  ALA167      0.1694
    162  C          2.5350   11.1070   17.1130 C.2   167  ALA167      0.2592
    163  O          1.3080   11.0580   17.0720 O.2   167  ALA167     -0.2718
    164  CB         4.1910   10.2220   15.4640 C.3   167  ALA167      0.0304
    165  N          3.2210   12.1750   17.5190 N.am  168  ASP168     -0.1974
    166  CA         2.6190   13.4850   17.8410 C.3   168  ASP168      0.1709
    167  C          1.6840   13.4800   19.0470 C.2   168  ASP168      0.2293
    168  O          0.7050   14.2240   19.0760 O.2   168  ASP168     -0.2864
    169  CB         1.9010   14.0780   16.6170 C.3   168  ASP168      0.1436
    170  CG         2.7890   14.1730   15.4030 C.2   168  ASP168      0.3671
    171  OD1        4.0390   14.1310   15.5250 O.co2 168  ASP168     -0.2456
    172  OD2        2.2200   14.3090   14.3080 O.co2 168  ASP168     -0.2456
    173  N          0.9330   16.9570   23.2990 N.3   171  PHE171     -0.1241
    174  CA         1.3180   18.3930   23.2700 C.3   171  PHE171      0.1605
    175  C          0.4850   19.3450   22.3780 C.2   171  PHE171      0.2264
    176  O          0.8630   20.5000   22.2010 O.2   171  PHE171     -0.2867
    177  CB         2.8130   18.5050   22.9060 C.3   171  PHE171      0.0534
    178  CG         3.1470   17.9140   21.5660 C.ar  171  PHE171     -0.0203
    179  CD1        3.5040   16.5820   21.4530 C.ar  171  PHE171     -0.0042
    180  CD2        3.0620   18.6820   20.4150 C.ar  171  PHE171     -0.0042
    181  CE1        3.7890   16.0230   20.2220 C.ar  171  PHE171     -0.0003
    182  CE2        3.3460   18.1350   19.1790 C.ar  171  PHE171     -0.0003
    183  CZ         3.7130   16.8000   19.0800 C.ar  171  PHE171     -0.0000
    184  N          7.2100    7.0260   -0.0760 N.3   331  ARG331     -0.1245
    185  CA         6.9500    8.4660    0.0090 C.3   331  ARG331      0.1563
    186  C          7.7340    9.2270   -1.0550 C.2   331  ARG331      0.2260
    187  O          8.9490    9.0560   -1.1780 O.2   331  ARG331     -0.2867
    188  CB         7.3270    9.0090    1.3790 C.3   331  ARG331      0.0307
    189  CG         6.6260    8.3320    2.5380 C.3   331  ARG331      0.0489
    190  CD         6.8700    9.1130    3.8150 C.3   331  ARG331      0.2205
    191  NE         6.4420    8.3840    5.0080 N.pl3 331  ARG331     -0.0865
    192  CZ         5.2150    8.3990    5.5320 C.cat 331  ARG331      0.5346
    193  NH1        4.2330    9.1150    4.9830 N.pl3 331  ARG331      0.1354
    194  NH2        4.9740    7.6880    6.6340 N.pl3 331  ARG331      0.1354
@<TRIPOS>BOND
     1   187   186    2
     2   186   185    1
     3   184   185    1
     4   185   188    1
     5   123   122    2
     6   188   189    1
     7   127   129   ar
     8   127   125   ar
     9   119   118   ar
    10   119   117   ar
    11   118   116   ar
    12   129   128   ar
    13     6     5    1
    14   122   121    1
    15   124   125    1
    16   124   121    1
    17   117   115   ar
    18   125   126   ar
    19   189   190    1
    20   121   120    1
    21     2     1    1
    22     2     5    1
    23     2     3    1
    24   116   113   ar
    25     5     7    1
    26     4     3    2
    27   128   126   ar
    28   109   108    2
    29     3     8   am
    30   115   113   ar
    31   115   114   ar
    32    92    91    1
    33   113   111   ar
    34   190   191    1
    35   120   108   am
    36     8     9    1
    37   108   107    1
    38   114   112   ar
    39    91    90   ar
    40    91    89   ar
    41     9    10    1
    42    90    88   ar
    43   193   192    1
    44   191   192    2
    45   111   112   ar
    46   111   110    1
    47    10    11    2
    48    27    26    2
    49   192   194    1
    50   107   110    1
    51   107   106    1
    52    89    87   ar
    53   101   100    2
    54    88    86   ar
    55   104   103   ar
    56   105   103   ar
    57    98    99    1
    58    26    25    1
    59   103   102    1
    60    87    86   ar
    61   100    99    1
    62    96    95    2
    63    86    85    1
    64    95    94    1
    65    99   102    1
    66    24    25    1
    67    25    28    1
    68    23    22    1
    69    28    29    1
    70    28    30    1
    71    85    82    1
    72    94    93    1
    73    94    97    1
    74   143   140    1
    75    84    83    2
    76    93    83   am
    77    83    82    1
    78    22    20   ar
    79    22    21   ar
    80   140   139    1
    81   140   141    1
    82    82    81    1
    83    20    18   ar
    84    32    31    1
    85    32    35    1
    86    32    33    1
    87    21    19   ar
    88   142   141    2
    89    33    34    2
    90   141   144   am
    91    81    75   am
    92   159   157    1
    93   154   153    1
    94   154   155    2
    95   153   156    1
    96   153   152    1
    97    18    17   ar
    98    19    17   ar
    99   156   157    1
   100    36    37    1
   101    17    16    1
   102   157   158    1
   103    37    38    1
   104    37    40    1
   105   144   145    1
   106    75    76    2
   107    75    74    1
   108    12    13    1
   109    38    39    2
   110    14    13    1
   111    14    15    2
   112   132   133    2
   113   132   131    1
   114   134   131    1
   115   134   135    1
   116   138   137    1
   117   137   136    1
   118   136   135    1
   119    65    64    2
   120    13    16    1
   121    40    41    1
   122   131   130    1
   123    74    77    1
   124    74    73    1
   125   145   146    1
   126   145   148    1
   127   146   147    2
   128    41    42    1
   129    64    73   am
   130    64    63    1
   131    77    78    1
   132    42    43    1
   133   151   149   am
   134    79    78   ar
   135    66    63    1
   136    66    67    1
   137   172   170   ar
   138   148   149    1
   139    62    63    1
   140   149   150    2
   141    61    59    1
   142    78    80   ar
   143    69    67   ar
   144    69    71   ar
   145    43    44    1
   146    67    68   ar
   147   170   171   ar
   148   170   169    1
   149    71    72   ar
   150   164   161    1
   151    59    58    1
   152    68    70   ar
   153   160   161    1
   154   169   166    1
   155    58    60    1
   156    58    55    1
   157    72    70   ar
   158   161   162    1
   159   163   162    2
   160   162   165   am
   161   165   166    1
   162    55    54    1
   163    55    56    1
   164   166   167    1
   165    53    51   ar
   166    52    51   ar
   167    56    57    2
   168    51    50    1
   169   167   168    2
   170   183   182   ar
   171   183   181   ar
   172   182   180   ar
   173   181   179   ar
   174    50    49    1
   175   180   178   ar
   176    49    46    1
   177   179   178   ar
   178   178   177    1
   179   176   175    2
   180   175   174    1
   181    46    47    1
   182    46    45    1
   183   177   174    1
   184    47    48    2
   185   174   173    1
