@<TRIPOS>MOLECULE
tmp/5hbjA00.pdb
 179 168 0 0 0
SMALL
GASTEIGER

@<TRIPOS>ATOM
      1  N         -9.9850   14.9620   -4.4810 N.3    29  VAL29      -0.1231
      2  CA        -8.7760   14.1280   -4.3080 C.3    29  VAL29       0.1692
      3  C         -7.4700   14.7930   -4.7750 C.2    29  VAL29       0.2593
      4  O         -6.3930   14.4420   -4.2870 O.2    29  VAL29      -0.2718
      5  CB        -8.9090   12.7390   -4.9950 C.3    29  VAL29       0.0266
      6  CG1       -9.9750   11.9160   -4.3040 C.3    29  VAL29       0.0020
      7  CG2       -9.2020   12.8780   -6.4810 C.3    29  VAL29       0.0020
      8  N         -7.5650   15.7250   -5.7200 N.am   30  GLY30      -0.1942
      9  CA        -6.4010   16.4510   -6.2120 C.3    30  GLY30       0.2014
     10  C         -6.7070   17.8950   -6.5650 C.2    30  GLY30       0.2638
     11  O         -7.8120   18.2080   -7.0120 O.2    30  GLY30      -0.2714
     12  N         -5.7180   18.7640   -6.3510 N.am   31  ARG31      -0.1977
     13  CA        -5.7830   20.1720   -6.7390 C.3    31  ARG31       0.1597
     14  C         -4.4020   20.6100   -7.2290 C.2    31  ARG31       0.2287
     15  O         -3.4550   20.6550   -6.4480 O.2    31  ARG31      -0.2864
     16  CB        -6.2500   21.0290   -5.5520 C.3    31  ARG31       0.0334
     17  CG        -6.1310   22.5540   -5.7100 C.3    31  ARG31       0.0492
     18  CD        -6.7040   23.0840   -7.0260 C.3    31  ARG31       0.2205
     19  NE        -6.6680   24.5490   -7.0860 N.pl3  31  ARG31      -0.0865
     20  CZ        -6.7620   25.2890   -8.1970 C.cat  31  ARG31       0.5346
     21  NH1       -6.9060   24.7350   -9.4000 N.pl3  31  ARG31       0.1354
     22  NH2       -6.7090   26.6160   -8.1030 N.pl3  31  ARG31       0.1354
     23  N         -3.4370   21.6100  -13.4030 N.3    34  TYR34      -0.1241
     24  CA        -4.4930   20.9500  -14.2040 C.3    34  TYR34       0.1605
     25  C         -5.9140   21.4300  -13.8870 C.2    34  TYR34       0.2264
     26  O         -6.7760   21.4640  -14.7750 O.2    34  TYR34      -0.2867
     27  CB        -4.4350   19.4140  -14.0440 C.3    34  TYR34       0.0534
     28  CG        -4.4050   18.9060  -12.6060 C.ar   34  TYR34      -0.0201
     29  CD1       -5.5750   18.7870  -11.8480 C.ar   34  TYR34      -0.0009
     30  CD2       -3.2020   18.5350  -12.0100 C.ar   34  TYR34      -0.0009
     31  CE1       -5.5380   18.3220  -10.5270 C.ar   34  TYR34       0.0417
     32  CE2       -3.1560   18.0740  -10.6960 C.ar   34  TYR34       0.0417
     33  CZ        -4.3230   17.9650   -9.9630 C.ar   34  TYR34       0.1957
     34  OH        -4.2530   17.5040   -8.6710 O.3    34  TYR34      -0.2866
     35  N         -9.7410   18.0180   -9.1420 N.3    37  VAL37      -0.1245
     36  CA       -10.1260   16.6140   -9.3950 C.3    37  VAL37       0.1561
     37  C        -10.8270   16.0060   -8.1870 C.2    37  VAL37       0.2260
     38  O        -10.3150   16.0990   -7.0660 O.2    37  VAL37      -0.2867
     39  CB        -8.9110   15.7370   -9.7510 C.3    37  VAL37       0.0252
     40  CG1       -9.3430   14.2970  -10.0070 C.3    37  VAL37       0.0019
     41  CG2       -8.2100   16.2870  -10.9730 C.3    37  VAL37       0.0019
     42  N        -13.2270    9.5260  -11.5260 N.3    52  ALA52      -0.1245
     43  CA       -12.3820   10.7070  -11.3890 C.3    52  ALA52       0.1562
     44  C        -13.0060   11.8140  -12.2330 C.2    52  ALA52       0.2260
     45  O        -13.0410   11.7230  -13.4650 O.2    52  ALA52      -0.2867
     46  CB       -10.9650   10.4170  -11.8510 C.3    52  ALA52       0.0290
     47  N        -12.7690   15.6700  -13.2300 N.3    54  LYS54      -0.1245
     48  CA       -11.7910   16.7530  -13.2780 C.3    54  LYS54       0.1561
     49  C        -12.4320   18.0000  -13.8710 C.2    54  LYS54       0.2260
     50  O        -12.9860   17.9330  -14.9670 O.2    54  LYS54      -0.2867
     51  CB       -10.5950   16.3190  -14.1350 C.3    54  LYS54       0.0271
     52  CG        -9.5690   17.4090  -14.4930 C.3    54  LYS54       0.0035
     53  CD        -8.6340   16.9130  -15.5800 C.3    54  LYS54       0.0206
     54  CE        -7.7740   18.0320  -16.1120 C.3    54  LYS54       0.1093
     55  NZ        -6.7560   17.5500  -17.0790 N.3    54  LYS54      -0.1314
     56  N         -6.2910   18.3530  -25.3360 N.3    68  GLU68      -0.1245
     57  CA        -6.5800   17.2920  -24.3680 C.3    68  GLU68       0.1567
     58  C         -7.8770   16.5840  -24.7320 C.2    68  GLU68       0.2260
     59  O         -7.9040   15.3580  -24.8030 O.2    68  GLU68      -0.2867
     60  CB        -6.6620   17.8400  -22.9380 C.3    68  GLU68       0.0388
     61  CG        -6.9130   16.7580  -21.8610 C.3    68  GLU68       0.1160
     62  CD        -6.8040   17.2610  -20.4160 C.2    68  GLU68       0.3649
     63  OE1       -6.3740   18.4200  -20.1820 O.co2  68  GLU68      -0.2457
     64  OE2       -7.1550   16.4750  -19.5040 O.co2  68  GLU68      -0.2457
     65  N         -5.3500    6.2390  -20.1280 N.3    81  ILE81      -0.1245
     66  CA        -6.6390    6.5230  -19.4770 C.3    81  ILE81       0.1561
     67  C         -7.7110    6.9230  -20.4930 C.2    81  ILE81       0.2260
     68  O         -7.4730    7.7730  -21.3500 O.2    81  ILE81      -0.2867
     69  CB        -6.5360    7.5780  -18.3310 C.3    81  ILE81       0.0252
     70  CG1       -7.8470    7.6110  -17.5320 C.3    81  ILE81       0.0019
     71  CG2       -6.1820    8.9640  -18.8590 C.3    81  ILE81       0.0019
     72  CD1       -7.6710    7.9990  -16.0870 C.3    81  ILE81       0.0001
     73  N        -13.4200   10.3470  -15.8730 N.3    99  PHE99      -0.1227
     74  CA       -12.5640    9.1710  -16.0730 C.3    99  PHE99       0.1736
     75  C        -12.8960    8.0840  -15.0670 C.2    99  PHE99       0.2595
     76  O        -13.4100    8.3660  -13.9830 O.2    99  PHE99      -0.2718
     77  CB       -11.0950    9.5400  -15.8920 C.3    99  PHE99       0.0547
     78  CG       -10.6260   10.6300  -16.8030 C.ar   99  PHE99      -0.0202
     79  CD1      -10.4030   10.3740  -18.1440 C.ar   99  PHE99      -0.0042
     80  CD2      -10.3950   11.9100  -16.3180 C.ar   99  PHE99      -0.0042
     81  CE1       -9.9540   11.3790  -18.9980 C.ar   99  PHE99      -0.0003
     82  CE2       -9.9470   12.9280  -17.1590 C.ar   99  PHE99      -0.0003
     83  CZ        -9.7220   12.6650  -18.5020 C.ar   99  PHE99      -0.0000
     84  N        -12.5990    6.8390  -15.4280 N.am  100  ASP100     -0.1960
     85  CA       -12.6140    5.7510  -14.4540 C.3   100  ASP100      0.1840
     86  C        -11.5250    6.0590  -13.4110 C.2   100  ASP100      0.2622
     87  O        -10.3850    6.3750  -13.7570 O.2   100  ASP100     -0.2715
     88  CB       -12.3970    4.3790  -15.1210 C.3   100  ASP100      0.1450
     89  CG       -13.7060    3.7110  -15.5410 C.2   100  ASP100      0.3671
     90  OD1      -14.5910    3.5440  -14.6790 O.co2 100  ASP100     -0.2456
     91  OD2      -13.8500    3.3310  -16.7240 O.co2 100  ASP100     -0.2456
     92  N        -11.9040    5.9890  -12.1400 N.am  101  TYR101     -0.1960
     93  CA       -11.0480    6.4150  -11.0340 C.3   101  TYR101      0.1771
     94  C         -9.8630    5.4830  -10.7990 C.2   101  TYR101      0.2619
     95  O        -10.0390    4.2770  -10.6170 O.2   101  TYR101     -0.2715
     96  CB       -11.8790    6.4680   -9.7610 C.3   101  TYR101      0.0574
     97  CG       -11.1810    7.0330   -8.5550 C.ar  101  TYR101     -0.0198
     98  CD1      -10.6990    8.3390   -8.5540 C.ar  101  TYR101     -0.0009
     99  CD2      -11.0400    6.2750   -7.3890 C.ar  101  TYR101     -0.0009
    100  CE1      -10.0740    8.8740   -7.4250 C.ar  101  TYR101      0.0417
    101  CE2      -10.4210    6.7980   -6.2620 C.ar  101  TYR101      0.0417
    102  CZ        -9.9420    8.0960   -6.2870 C.ar  101  TYR101      0.1957
    103  OH        -9.3350    8.6070   -5.1720 O.3   101  TYR101     -0.2866
    104  N         -8.6660    6.0660  -10.7830 N.am  102  ALA102     -0.1977
    105  CA        -7.4390    5.3580  -10.4410 C.3   102  ALA102      0.1597
    106  C         -7.0700    5.6970   -9.0060 C.2   102  ALA102      0.2287
    107  O         -6.6690    6.8200   -8.7150 O.2   102  ALA102     -0.2864
    108  CB        -6.3290    5.7580  -11.3780 C.3   102  ALA102      0.0319
    109  N         -1.0520    5.4940   -7.7360 N.3   105  ASP105     -0.1239
    110  CA        -0.0990    5.9150   -8.7620 C.3   105  ASP105      0.1674
    111  C          1.3230    5.6430   -8.2890 C.2   105  ASP105      0.2266
    112  O          1.5570    5.4320   -7.0920 O.2   105  ASP105     -0.2867
    113  CB        -0.2930    7.3910   -9.1120 C.3   105  ASP105      0.1410
    114  CG        -0.2760    8.2910   -7.8910 C.2   105  ASP105      0.3668
    115  OD1       -1.3000    8.9510   -7.6140 O.co2 105  ASP105     -0.2456
    116  OD2        0.7600    8.3310   -7.1990 O.co2 105  ASP105     -0.2456
    117  N          2.8540    7.7660   -5.3180 N.3   108  HIS108     -0.1241
    118  CA         2.3970    7.3230   -3.9890 C.3   108  HIS108      0.1621
    119  C          2.8820    5.9160   -3.6270 C.2   108  HIS108      0.2264
    120  O          3.1010    5.6350   -2.4510 O.2   108  HIS108     -0.2867
    121  CB         0.8640    7.3880   -3.8800 C.3   108  HIS108      0.0745
    122  CG         0.3210    8.7810   -3.7940 C.ar  108  HIS108      0.0817
    123  ND1       -0.2110    9.4430   -4.8810 N.ar  108  HIS108     -0.2268
    124  CD2        0.2370    9.6410   -2.7520 C.ar  108  HIS108      0.1154
    125  CE1       -0.5990   10.6500   -4.5110 C.ar  108  HIS108      0.1986
    126  NE2       -0.3400   10.7960   -3.2230 N.ar  108  HIS108     -0.2212
    127  N          3.8580   10.4510  -10.9060 N.3   153  ALA153     -0.1231
    128  CA         2.4980   10.9580  -10.6340 C.3   153  ALA153      0.1694
    129  C          1.5240   10.8980  -11.8270 C.2   153  ALA153      0.2592
    130  O          0.3090   10.9890  -11.6280 O.2   153  ALA153     -0.2718
    131  CB         2.5650   12.3870  -10.0980 C.3   153  ALA153      0.0304
    132  N          2.0530   10.7780  -13.0450 N.am  154  ASN154     -0.1974
    133  CA         1.2450   10.5820  -14.2540 C.3   154  ASN154      0.1688
    134  C          1.0570    9.1130  -14.6530 C.2   154  ASN154      0.2292
    135  O          0.3600    8.8310  -15.6240 O.2   154  ASN154     -0.2864
    136  CB         1.8570   11.3580  -15.4290 C.3   154  ASN154      0.1181
    137  CG         1.8580   12.8660  -15.2030 C.2   154  ASN154      0.2629
    138  OD1        1.1030   13.3940  -14.3790 O.2   154  ASN154     -0.2716
    139  ND2        2.7040   13.5710  -15.9480 N.am  154  ASN154     -0.0877
    140  N         -0.7100    6.0630  -13.4020 N.3   156  LEU156     -0.1245
    141  CA        -1.7250    5.6300  -12.4400 C.3   156  LEU156      0.1561
    142  C         -1.8810    4.1140  -12.4500 C.2   156  LEU156      0.2260
    143  O         -1.7440    3.4930  -13.4920 O.2   156  LEU156     -0.2867
    144  CB        -3.0770    6.2620  -12.7820 C.3   156  LEU156      0.0270
    145  CG        -3.1400    7.7790  -12.9870 C.3   156  LEU156      0.0019
    146  CD1       -4.4380    8.1490  -13.6720 C.3   156  LEU156      0.0001
    147  CD2       -3.0050    8.5060  -11.6650 C.3   156  LEU156      0.0001
    148  N         -1.7180    8.9270  -17.5210 N.3   170  ALA170     -0.1231
    149  CA        -2.5700   10.1190  -17.4560 C.3   170  ALA170      0.1694
    150  C         -1.8560   11.3670  -17.9790 C.2   170  ALA170      0.2592
    151  O         -0.6940   11.3050  -18.3640 O.2   170  ALA170     -0.2718
    152  CB        -3.0200   10.3410  -16.0290 C.3   170  ALA170      0.0304
    153  N         -2.5850   12.4830  -18.0120 N.am  171  ASP171     -0.1974
    154  CA        -2.0350   13.8210  -18.2800 C.3   171  ASP171      0.1709
    155  C         -1.5920   14.0330  -19.7450 C.2   171  ASP171      0.2293
    156  O         -0.4340   13.7850  -20.1080 O.2   171  ASP171     -0.2864
    157  CB        -0.9010   14.1360  -17.2880 C.3   171  ASP171      0.1436
    158  CG        -0.5860   15.6140  -17.1960 C.2   171  ASP171      0.3671
    159  OD1       -1.5290   16.4390  -17.1890 O.co2 171  ASP171     -0.2456
    160  OD2        0.6160   15.9450  -17.1070 O.co2 171  ASP171     -0.2456
    161  N         -6.4890    7.4050   -1.5090 N.3   337  ARG337     -0.1245
    162  CA        -6.3350    8.8560   -1.6590 C.3   337  ARG337      0.1563
    163  C         -7.0270    9.6050   -0.5210 C.2   337  ARG337      0.2260
    164  O         -8.2080    9.3750   -0.2520 O.2   337  ARG337     -0.2867
    165  CB        -6.8990    9.3350   -2.9980 C.3   337  ARG337      0.0307
    166  CG        -6.2190    8.7280   -4.2180 C.3   337  ARG337      0.0489
    167  CD        -6.3250    9.6340   -5.4390 C.3   337  ARG337      0.2205
    168  NE        -5.7220    9.0350   -6.6290 N.pl3 337  ARG337     -0.0865
    169  CZ        -4.4220    9.0560   -6.9350 C.cat 337  ARG337      0.5346
    170  NH1       -3.5190    9.6410   -6.1390 N.pl3 337  ARG337      0.1354
    171  NH2       -4.0120    8.4690   -8.0570 N.pl3 337  ARG337      0.1354
    172  N         -9.5530   16.3710    0.2270 N.3   340  LEU340     -0.1245
    173  CA        -9.1390   17.7720    0.3840 C.3   340  LEU340      0.1561
    174  C        -10.3560   18.6860    0.6160 C.2   340  LEU340      0.2260
    175  O        -11.5010   18.2190    0.6390 O.2   340  LEU340     -0.2867
    176  CB        -8.3580   18.2280   -0.8550 C.3   340  LEU340      0.0270
    177  CG        -7.1590   17.3670   -1.2910 C.3   340  LEU340      0.0019
    178  CD1       -6.7180   17.7150   -2.7060 C.3   340  LEU340      0.0001
    179  CD2       -5.9940   17.5110   -0.3210 C.3   340  LEU340      0.0001
@<TRIPOS>BOND
     1    56    57    1
     2    59    58    2
     3    58    57    1
     4    57    60    1
     5    60    61    1
     6    61    62    1
     7    68    67    2
     8    67    66    1
     9    62    63   ar
    10    62    64   ar
    11    65    66    1
    12   156   155    2
    13   155   154    1
    14    66    69    1
    15    81    83   ar
    16    81    79   ar
    17    71    69    1
    18    83    82   ar
    19   151   150    2
    20    69    70    1
    21   154   153    1
    22   154   157    1
    23    79    78   ar
    24   153   150   am
    25   150   149    1
    26    70    72    1
    27   148   149    1
    28   149   152    1
    29   157   158    1
    30   158   159   ar
    31   158   160   ar
    32    82    80   ar
    33    55    54    1
    34    78    80   ar
    35    78    77    1
    36    91    89   ar
    37    54    53    1
    38    74    77    1
    39    74    73    1
    40    74    75    1
    41   139   137   am
    42   135   134    2
    43    53    52    1
    44    89    88    1
    45    89    90   ar
    46   136   137    1
    47   136   133    1
    48    84    75   am
    49    84    85    1
    50   137   138    2
    51    88    85    1
    52    75    76    2
    53    50    49    2
    54    26    25    2
    55   134   133    1
    56    52    51    1
    57    85    86    1
    58   133   132    1
    59    24    27    1
    60    24    25    1
    61    24    23    1
    62    51    48    1
    63    27    28    1
    64    49    48    1
    65    87    86    2
    66   146   145    1
    67   143   142    2
    68    45    44    2
    69    86    92   am
    70   140   141    1
    71    48    47    1
    72   132   129   am
    73   145   144    1
    74   145   147    1
    75   144   141    1
    76    28    30   ar
    77    28    29   ar
    78   142   141    1
    79    44    43    1
    80    92    93    1
    81    30    32   ar
    82    46    43    1
    83    29    31   ar
    84   129   130    2
    85   129   128    1
    86    42    43    1
    87   108   105    1
    88    93    94    1
    89    93    96    1
    90    41    39    1
    91   127   128    1
    92    94   104   am
    93    94    95    2
    94   104   105    1
    95    32    33   ar
    96   128   131    1
    97    31    33   ar
    98   105   106    1
    99    40    39    1
   100    33    34    1
   101    96    97    1
   102    39    36    1
   103    21    20    1
   104    36    35    1
   105    36    37    1
   106   113   110    1
   107   113   114    1
   108   106   107    2
   109   110   111    1
   110   110   109    1
   111    97    98   ar
   112    97    99   ar
   113    98   100   ar
   114   111   112    2
   115    20    22    1
   116    20    19    2
   117    37    38    2
   118   171   169    1
   119   114   115   ar
   120   114   116   ar
   121   100   102   ar
   122    99   101   ar
   123    14    13    1
   124    14    15    2
   125    19    18    1
   126    18    17    1
   127    11    10    2
   128   169   168    2
   129   169   170    1
   130    13    12    1
   131    13    16    1
   132   168   167    1
   133    10    12   am
   134    10     9    1
   135     7     5    1
   136   102   101   ar
   137   102   103    1
   138     9     8    1
   139     8     3   am
   140    17    16    1
   141   167   166    1
   142   117   118    1
   143     5     2    1
   144     5     6    1
   145   123   125   ar
   146   123   122   ar
   147     3     2    1
   148     3     4    2
   149   125   126   ar
   150     1     2    1
   151   166   165    1
   152   118   121    1
   153   118   119    1
   154   121   122    1
   155   122   124   ar
   156   119   120    2
   157   126   124   ar
   158   165   162    1
   159   178   177    1
   160   162   161    1
   161   162   163    1
   162   177   176    1
   163   177   179    1
   164   176   173    1
   165   163   164    2
   166   172   173    1
   167   173   174    1
   168   174   175    2
