@<TRIPOS>MOLECULE
tmp/5hbnA01.pdb
 105 100 0 0 0
SMALL
GASTEIGER

@<TRIPOS>ATOM
      1  N         10.5070   12.4420   -3.7400 N.3     3  THR3       -0.1218
      2  CA        10.7530   12.0630   -5.1220 C.3     3  THR3        0.1862
      3  C         12.2030   11.6400   -5.3020 C.2     3  THR3        0.2287
      4  O         13.0850   11.9170   -4.4690 O.2     3  THR3       -0.2866
      5  CB        10.4750   13.2100   -6.0990 C.3     3  THR3        0.1770
      6  OG1       11.4560   14.2260   -5.9040 O.3     3  THR3       -0.2211
      7  CG2        9.0940   13.7870   -5.9030 C.3     3  THR3        0.0375
      8  N         14.3100   12.8530   -7.4310 N.3     5  ARG5       -0.1245
      9  CA        15.2020   13.9990   -7.5690 C.3     5  ARG5        0.1563
     10  C         15.3750   14.7480   -6.2500 C.2     5  ARG5        0.2260
     11  O         16.4540   15.2780   -6.0040 O.2     5  ARG5       -0.2867
     12  CB        14.7230   14.9210   -8.6840 C.3     5  ARG5        0.0307
     13  CG        14.9260   14.2680  -10.0650 C.3     5  ARG5        0.0489
     14  CD        14.5390   15.2080  -11.1740 C.3     5  ARG5        0.2205
     15  NE        14.1730   14.5450  -12.4200 N.pl3   5  ARG5       -0.0865
     16  CZ        13.0930   14.8400  -13.1490 C.cat   5  ARG5        0.5346
     17  NH1       12.8550   14.1670  -14.2650 N.pl3   5  ARG5        0.1354
     18  NH2       12.2510   15.8090  -12.7890 N.pl3   5  ARG5        0.1354
     19  N         15.7520   18.6380  -11.7950 N.3    40  GLY40      -0.1210
     20  CA        14.4580   18.7140  -11.1650 C.3    40  GLY40       0.1956
     21  C         13.7840   20.0650  -11.3380 C.2    40  GLY40       0.2611
     22  O         14.3570   21.0230  -11.8440 O.2    40  GLY40      -0.2717
     23  N         12.5270   20.1230  -10.9000 N.am   41  ILE41      -0.1979
     24  CA        11.7700   21.3630  -11.0270 C.3    41  ILE41       0.1595
     25  C         12.4820   22.5090  -10.3060 C.2    41  ILE41       0.2287
     26  O         12.5200   23.6500  -10.7980 O.2    41  ILE41      -0.2864
     27  CB        10.3420   21.1600  -10.5150 C.3    41  ILE41       0.0276
     28  CG1        9.6550   20.0430  -11.3180 C.3    41  ILE41       0.0022
     29  CG2        9.5830   22.4730  -10.5980 C.3    41  ILE41       0.0022
     30  CD1        8.1990   19.8600  -11.0050 C.3    41  ILE41       0.0001
     31  N         15.2480   23.9500  -12.4610 N.3    44  LYS44      -0.1245
     32  CA        14.6880   24.6770  -13.5820 C.3    44  LYS44       0.1561
     33  C         14.0670   26.0060  -13.1240 C.2    44  LYS44       0.2260
     34  O         14.1980   27.0270  -13.8090 O.2    44  LYS44      -0.2867
     35  CB        13.6640   23.7960  -14.3040 C.3    44  LYS44       0.0271
     36  CG        14.3070   22.6260  -15.0340 C.3    44  LYS44       0.0035
     37  CD        13.3140   21.7210  -15.7610 C.3    44  LYS44       0.0206
     38  CE        12.3870   21.0180  -14.8010 C.3    44  LYS44       0.1093
     39  NZ        11.6560   19.8810  -15.4610 N.3    44  LYS44      -0.1314
     40  N          0.3230   17.2640   -2.9340 N.3    96  HIS96      -0.1241
     41  CA         1.3010   16.2710   -3.3390 C.3    96  HIS96       0.1621
     42  C          1.5540   15.3170   -2.1860 C.2    96  HIS96       0.2264
     43  O          1.7560   15.7500   -1.0430 O.2    96  HIS96      -0.2867
     44  CB         2.6390   16.8990   -3.7320 C.3    96  HIS96       0.0745
     45  CG         2.6160   17.6470   -5.0270 C.ar   96  HIS96       0.0817
     46  ND1        3.2100   17.1710   -6.1770 N.ar   96  HIS96      -0.2268
     47  CD2        2.0790   18.8420   -5.3510 C.ar   96  HIS96       0.1154
     48  CE1        3.0290   18.0430   -7.1530 C.ar   96  HIS96       0.1986
     49  NE2        2.3380   19.0600   -6.6810 N.ar   96  HIS96      -0.2212
     50  N          8.8350   16.8960   -3.6370 N.3   100  GLY100     -0.1210
     51  CA         9.7430   17.1040   -4.7410 C.3   100  GLY100      0.1956
     52  C         10.7470   18.2180   -4.4770 C.2   100  GLY100      0.2613
     53  O         10.6880   18.9240   -3.4720 O.2   100  GLY100     -0.2717
     54  N         11.6920   18.3360   -5.4090 N.am  101  THR101     -0.1938
     55  CA        12.7040   19.3810   -5.2930 C.3   101  THR101      0.2028
     56  C         12.0660   20.7480   -5.1400 C.2   101  THR101      0.2642
     57  O         12.5720   21.5850   -4.3870 O.2   101  THR101     -0.2714
     58  CB        13.6740   19.3880   -6.4940 C.3   101  THR101      0.1808
     59  OG1       12.9910   19.7240   -7.7080 O.3   101  THR101     -0.2208
     60  CG2       14.4070   18.0740   -6.6800 C.3   101  THR101      0.0379
     61  N         10.9350   20.9910   -5.8160 N.am  102  GLU102     -0.1963
     62  CA        10.3120   22.3150   -5.7170 C.3   102  GLU102      0.1733
     63  C          9.7730   22.5880   -4.3180 C.2   102  GLU102      0.2616
     64  O          9.6940   23.7450   -3.9030 O.2   102  GLU102     -0.2715
     65  CB         9.2030   22.4700   -6.7460 C.3   102  GLU102      0.0429
     66  CG         7.9820   21.6000   -6.5380 C.3   102  GLU102      0.1163
     67  CD         8.0900   20.2100   -7.1550 C.2   102  GLU102      0.3649
     68  OE1        9.2120   19.6660   -7.3440 O.co2 102  GLU102     -0.2457
     69  OE2        7.0130   19.6730   -7.4920 O.co2 102  GLU102     -0.2457
     70  N          9.4080   21.5410   -3.5760 N.am  103  HIS103     -0.1973
     71  CA         8.9110   21.7280   -2.2180 C.3   103  HIS103      0.1656
     72  C         10.0340   21.9860   -1.2360 C.2   103  HIS103      0.2291
     73  O          9.8500   22.7500   -0.2780 O.2   103  HIS103     -0.2864
     74  CB         8.0720   20.5250   -1.8210 C.3   103  HIS103      0.0771
     75  CG         7.0000   20.2580   -2.8090 C.ar  103  HIS103      0.0820
     76  ND1        6.8550   19.0510   -3.4470 N.ar  103  HIS103     -0.2267
     77  CD2        6.0420   21.0710   -3.3110 C.ar  103  HIS103      0.1154
     78  CE1        5.8620   19.1350   -4.3160 C.ar  103  HIS103      0.1986
     79  NE2        5.3470   20.3490   -4.2430 N.ar  103  HIS103     -0.2212
     80  N          2.2340   20.7380  -15.1690 N.3   142  GLU142     -0.1231
     81  CA         1.8500   19.5130  -14.4820 C.3   142  GLU142      0.1699
     82  C          3.0890   18.9440  -13.8050 C.2   142  GLU142      0.2593
     83  O          4.1130   18.7230  -14.4610 O.2   142  GLU142     -0.2718
     84  CB         1.2400   18.5070  -15.4560 C.3   142  GLU142      0.0402
     85  CG         0.0140   19.0560  -16.1930 C.3   142  GLU142      0.1161
     86  CD        -0.9640   17.9690  -16.6050 C.2   142  GLU142      0.3649
     87  OE1       -0.6240   16.7750  -16.4710 O.co2 142  GLU142     -0.2457
     88  OE2       -2.0780   18.3100  -17.0590 O.co2 142  GLU142     -0.2457
     89  N          3.0080   18.7280  -12.4900 N.am  143  THR143     -0.1939
     90  CA         4.1840   18.3700  -11.7040 C.3   143  THR143      0.2028
     91  C          3.9240   17.1670  -10.8080 C.2   143  THR143      0.2643
     92  O          4.6650   16.9450   -9.8480 O.2   143  THR143     -0.2714
     93  CB         4.6520   19.5490  -10.8460 C.3   143  THR143      0.1808
     94  OG1        3.6720   19.8250   -9.8330 O.3   143  THR143     -0.2208
     95  CG2        4.9020   20.8200  -11.6990 C.3   143  THR143      0.0379
     96  N          2.8890   16.3760  -11.0960 N.am  144  GLY144     -0.1939
     97  CA         2.5670   15.2590  -10.2390 C.3   144  GLY144      0.2014
     98  C          3.5330   14.1000  -10.4250 C.2   144  GLY144      0.2639
     99  O          4.2240   14.0070  -11.4380 O.2   144  GLY144     -0.2714
    100  N          3.5850   13.2360   -9.4100 N.am  145  SER145     -0.1949
    101  CA         4.2720   11.9430   -9.5040 C.3   145  SER145      0.1924
    102  C          3.7030   11.1020  -10.6380 C.2   145  SER145      0.2314
    103  O          2.5340   10.7180  -10.6110 O.2   145  SER145     -0.2863
    104  CB         4.1710   11.1750   -8.1850 C.3   145  SER145      0.2116
    105  OG         2.8670   10.6610   -7.9950 O.3   145  SER145     -0.2180
@<TRIPOS>BOND
     1    88    86   ar
     2    86    87   ar
     3    86    85    1
     4    85    84    1
     5    37    36    1
     6    37    38    1
     7    39    38    1
     8    84    81    1
     9    80    81    1
    10    36    35    1
    11    81    82    1
    12    83    82    2
    13    35    32    1
    14    17    16    1
    15    34    33    2
    16    82    89   am
    17    32    33    1
    18    32    31    1
    19    16    18    1
    20    16    15    2
    21    89    90    1
    22    15    14    1
    23    22    21    2
    24    19    20    1
    25    90    93    1
    26    90    91    1
    27    95    93    1
    28    99    98    2
    29    21    20    1
    30    21    23   am
    31    28    30    1
    32    28    27    1
    33    14    13    1
    34    96    91   am
    35    96    97    1
    36    24    23    1
    37    24    27    1
    38    24    25    1
    39    93    94    1
    40    91    92    2
    41    26    25    2
    42   102   103    2
    43   102   101    1
    44    29    27    1
    45    98    97    1
    46    98   100   am
    47    13    12    1
    48   101   100    1
    49   101   104    1
    50    12     9    1
    51   104   105    1
    52    59    58    1
    53     9     8    1
    54     9    10    1
    55    69    67   ar
    56    68    67   ar
    57    67    66    1
    58    48    49   ar
    59    48    46   ar
    60    65    66    1
    61    65    62    1
    62    49    47   ar
    63    60    58    1
    64    58    55    1
    65    10    11    2
    66    46    45   ar
    67     5     6    1
    68     5     7    1
    69     5     2    1
    70    61    62    1
    71    61    56   am
    72    62    63    1
    73    54    55    1
    74    54    52   am
    75    47    45   ar
    76     3     2    1
    77     3     4    2
    78    55    56    1
    79    56    57    2
    80     2     1    1
    81    45    44    1
    82    51    52    1
    83    51    50    1
    84    52    53    2
    85    63    64    2
    86    63    70   am
    87    78    79   ar
    88    78    76   ar
    89    79    77   ar
    90    44    41    1
    91    70    71    1
    92    76    75   ar
    93    41    40    1
    94    41    42    1
    95    77    75   ar
    96    75    74    1
    97    71    74    1
    98    71    72    1
    99    42    43    2
   100    72    73    2
