@<TRIPOS>MOLECULE
tmp/5hbnA00.pdb
 82 79 0 0 0
SMALL
GASTEIGER

@<TRIPOS>ATOM
      1  N         28.8710   21.1990    8.9860 N.3    24  ASN24      -0.1240
      2  CA        27.4220   21.3030    9.0390 C.3    24  ASN24       0.1653
      3  C         26.8500   21.1330    7.6440 C.2    24  ASN24       0.2266
      4  O         27.4620   21.5650    6.6580 O.2    24  ASN24      -0.2867
      5  CB        26.9580   22.6620    9.5650 C.3    24  ASN24       0.1155
      6  CG        27.3650   22.9120   10.9880 C.2    24  ASN24       0.2627
      7  OD1       26.8430   22.2890   11.9120 O.2    24  ASN24      -0.2716
      8  ND2       28.2830   23.8530   11.1820 N.am   24  ASN24      -0.0877
      9  N         23.9430   22.8130    6.0790 N.3    26  GLY26      -0.1210
     10  CA        23.0680   23.9260    6.3630 C.3    26  GLY26       0.1956
     11  C         22.1610   24.2620    5.1920 C.2    26  GLY26       0.2613
     12  O         22.1720   23.6150    4.1540 O.2    26  GLY26      -0.2717
     13  N         21.3920   25.3480    5.3750 N.am   27  THR27      -0.1938
     14  CA        20.5250   25.8210    4.2980 C.3    27  THR27       0.2028
     15  C         21.3260   26.0980    3.0340 C.2    27  THR27       0.2642
     16  O         20.8080   25.9010    1.9300 O.2    27  THR27      -0.2714
     17  CB        19.7420   27.0740    4.7130 C.3    27  THR27       0.1808
     18  OG1       20.6500   28.1720    4.9430 O.3    27  THR27      -0.2208
     19  CG2       18.8850   26.8120    5.9360 C.3    27  THR27       0.0379
     20  N         22.5880   26.5540    3.1680 N.am   28  GLU28      -0.1963
     21  CA        23.3880   26.8530    1.9900 C.3    28  GLU28       0.1733
     22  C         23.7160   25.5940    1.2040 C.2    28  GLU28       0.2616
     23  O         23.8380   25.6490   -0.0250 O.2    28  GLU28      -0.2715
     24  CB        24.6690   27.6000    2.3840 C.3    28  GLU28       0.0429
     25  CG        25.6780   26.8290    3.2290 C.3    28  GLU28       0.1163
     26  CD        25.4560   26.9210    4.7290 C.2    28  GLU28       0.3649
     27  OE1       24.3010   27.0240    5.1600 O.co2  28  GLU28      -0.2457
     28  OE2       26.4730   26.8190    5.4850 O.co2  28  GLU28      -0.2457
     29  N         23.8550   24.4630    1.8840 N.am   29  HIS29      -0.1973
     30  CA        24.1190   23.2040    1.1720 C.3    29  HIS29       0.1656
     31  C         22.8590   22.6470    0.5420 C.2    29  HIS29       0.2291
     32  O         22.9290   22.0280   -0.5230 O.2    29  HIS29      -0.2864
     33  CB        24.7430   22.1860    2.1160 C.3    29  HIS29       0.0771
     34  CG        25.9800   22.7090    2.7630 C.ar   29  HIS29       0.0820
     35  ND1       25.9960   23.1730    4.0580 N.ar   29  HIS29      -0.2267
     36  CD2       27.2130   22.9460    2.2590 C.ar   29  HIS29       0.1154
     37  CE1       27.2100   23.6250    4.3440 C.ar   29  HIS29       0.1986
     38  NE2       27.9610   23.4970    3.2670 N.ar   29  HIS29      -0.2212
     39  N         31.0280   31.9350    3.1820 N.3    64  ILE64      -0.1245
     40  CA        31.4110   31.0090    4.2310 C.3    64  ILE64       0.1561
     41  C         32.8920   30.6740    4.1680 C.2    64  ILE64       0.2260
     42  O         33.5440   30.5590    5.2080 O.2    64  ILE64      -0.2867
     43  CB        30.5630   29.7190    4.1590 C.3    64  ILE64       0.0252
     44  CG1       29.0740   30.0520    4.2150 C.3    64  ILE64       0.0019
     45  CG2       30.9440   28.7770    5.2800 C.3    64  ILE64       0.0019
     46  CD1       28.6630   30.8910    5.4010 C.3    64  ILE64       0.0001
     47  N         21.9910   21.3270   10.2320 N.3    77  THR77      -0.1204
     48  CA        21.7450   22.3770   11.2000 C.3    77  THR77       0.1979
     49  C         20.2720   22.3890   11.5790 C.2    77  THR77       0.2460
     50  O         19.4280   21.8280   10.8680 O.2    77  THR77      -0.2732
     51  CB        22.1130   23.7420   10.6250 C.3    77  THR77       0.1783
     52  OG1       21.2410   23.9820    9.5230 O.3    77  THR77      -0.2211
     53  CG2       23.5740   23.7730   10.1280 C.3    77  THR77       0.0376
     54  N         19.9230   23.0400   12.6900 N.am   78  PRO78      -0.2717
     55  CA        18.4960   23.1760   13.0140 C.3    78  PRO78       0.1535
     56  C         17.6930   23.8430   11.9160 C.2    78  PRO78       0.2598
     57  O         16.5590   23.4210   11.6460 O.2    78  PRO78      -0.2715
     58  CB        18.5040   24.0180   14.3010 C.3    78  PRO78       0.0310
     59  CG        19.8140   23.7530   14.8930 C.3    78  PRO78       0.0237
     60  CD        20.7790   23.5130   13.7880 C.3    78  PRO78       0.0939
     61  N         18.2320   24.8700   11.2720 N.am   79  ARG79      -0.1978
     62  CA        17.4850   25.5250   10.2030 C.3    79  ARG79       0.1597
     63  C         17.3290   24.6050    9.0060 C.2    79  ARG79       0.2287
     64  O         16.2870   24.6030    8.3540 O.2    79  ARG79      -0.2864
     65  CB        18.1700   26.8260    9.7690 C.3    79  ARG79       0.0334
     66  CG        17.6860   28.0820   10.4390 C.3    79  ARG79       0.0492
     67  CD        18.2670   29.3390    9.7580 C.3    79  ARG79       0.2205
     68  NE        19.7060   29.4530    9.9680 N.pl3  79  ARG79      -0.0865
     69  CZ        20.2890   30.1430   10.9530 C.cat  79  ARG79       0.5346
     70  NH1       21.6170   30.1590   11.0520 N.pl3  79  ARG79       0.1354
     71  NH2       19.5580   30.8030   11.8430 N.pl3  79  ARG79       0.1354
     72  N         18.8900   32.1670    7.5910 N.3   114  GLY114     -0.1210
     73  CA        20.1000   31.4090    7.4220 C.3   114  GLY114      0.1956
     74  C         20.9660   31.8400    6.2590 C.2   114  GLY114      0.2611
     75  O         20.7340   32.8440    5.5650 O.2   114  GLY114     -0.2717
     76  N         22.0270   31.0520    6.0570 N.am  115  VAL115     -0.1979
     77  CA        23.0160   31.4000    5.0410 C.3   115  VAL115      0.1595
     78  C         22.3740   31.4380    3.6680 C.2   115  VAL115      0.2287
     79  O         22.6920   32.3010    2.8520 O.2   115  VAL115     -0.2864
     80  CB        24.2090   30.4390    5.0610 C.3   115  VAL115      0.0276
     81  CG1       25.2220   30.8430    3.9770 C.3   115  VAL115      0.0022
     82  CG2       24.8400   30.4180    6.4370 C.3   115  VAL115      0.0022
@<TRIPOS>BOND
     1    32    31    2
     2    23    22    2
     3    31    30    1
     4    30    29    1
     5    30    33    1
     6    22    29   am
     7    22    21    1
     8    16    15    2
     9    21    24    1
    10    21    20    1
    11    33    34    1
    12    36    34   ar
    13    36    38   ar
    14    24    25    1
    15    34    35   ar
    16    79    78    2
    17    15    20   am
    18    15    14    1
    19    39    40    1
    20    25    26    1
    21    38    37   ar
    22    78    77    1
    23    81    80    1
    24    35    37   ar
    25    12    11    2
    26    43    44    1
    27    43    40    1
    28    43    45    1
    29    41    40    1
    30    41    42    2
    31    44    46    1
    32    14    17    1
    33    14    13    1
    34    17    18    1
    35    17    19    1
    36    26    27   ar
    37    26    28   ar
    38    77    80    1
    39    77    76    1
    40    80    82    1
    41    11    13   am
    42    11    10    1
    43    75    74    2
    44    76    74   am
    45     9    10    1
    46    74    73    1
    47     4     3    2
    48    73    72    1
    49     3     2    1
    50    64    63    2
    51     1     2    1
    52    63    62    1
    53     2     5    1
    54    52    51    1
    55     5     6    1
    56    67    68    1
    57    67    66    1
    58    65    62    1
    59    65    66    1
    60    68    69    2
    61    53    51    1
    62    62    61    1
    63    47    48    1
    64    51    48    1
    65    50    49    2
    66    69    70    1
    67    69    71    1
    68     6     8   am
    69     6     7    2
    70    48    49    1
    71    61    56   am
    72    49    54   am
    73    57    56    2
    74    56    55    1
    75    54    55    1
    76    54    60    1
    77    55    58    1
    78    60    59    1
    79    58    59    1
