@<TRIPOS>MOLECULE
tmp/5hc8A01.pdb
 105 99 0 0 0
SMALL
GASTEIGER

@<TRIPOS>ATOM
      1  N        -19.7920  -13.4100  -10.6600 N.3    11  ILE11      -0.1231
      2  CA       -18.6510  -13.5780  -11.5740 C.3    11  ILE11       0.1692
      3  C        -17.6690  -12.4360  -11.4180 C.2    11  ILE11       0.2592
      4  O        -17.9540  -11.3020  -11.7740 O.2    11  ILE11      -0.2718
      5  CB       -19.1440  -13.6620  -13.0460 C.3    11  ILE11       0.0266
      6  CG1      -20.0710  -14.8570  -13.2380 C.3    11  ILE11       0.0019
      7  CG2      -18.0150  -13.7290  -14.0490 C.3    11  ILE11       0.0020
      8  CD1      -20.6440  -14.9660  -14.6330 C.3    11  ILE11       0.0001
      9  N        -16.4730  -12.7460  -10.9100 N.am   12  ILE12      -0.1966
     10  CA       -15.4150  -11.7620  -10.7100 C.3    12  ILE12       0.1727
     11  C        -14.6040  -11.6110  -11.9770 C.2    12  ILE12       0.2616
     12  O        -14.3430  -12.5860  -12.7140 O.2    12  ILE12      -0.2715
     13  CB       -14.5180  -12.1240   -9.4450 C.3    12  ILE12       0.0290
     14  CG1      -13.7500  -13.4120   -9.6460 C.3    12  ILE12       0.0022
     15  CG2      -15.3940  -12.2880   -8.1810 C.3    12  ILE12       0.0023
     16  CD1      -13.0350  -13.9010   -8.4120 C.3    12  ILE12       0.0001
     17  N        -14.2500  -10.3690  -12.2750 N.am   13  ASP13      -0.1971
     18  CA       -13.5940  -10.0530  -13.5170 C.3    13  ASP13       0.1709
     19  C        -12.9840   -8.6620  -13.4280 C.2    13  ASP13       0.2293
     20  O        -13.3930   -7.8570  -12.5690 O.2    13  ASP13      -0.2864
     21  CB       -14.6150  -10.1710  -14.6710 C.3    13  ASP13       0.1436
     22  CG       -13.9600  -10.4260  -16.0430 C.2    13  ASP13       0.3671
     23  OD1      -12.8710  -11.0080  -15.9920 O.co2  13  ASP13      -0.2456
     24  OD2      -14.4910   -9.9660  -17.0930 O.co2  13  ASP13      -0.2456
     25  N        -17.5980  -17.2470   -8.0110 N.3    55  TRP55      -0.1227
     26  CA       -16.8350  -18.0330   -9.0150 C.3    55  TRP55       0.1737
     27  C        -15.4470  -17.4980   -9.1360 C.2    55  TRP55       0.2595
     28  O        -15.2700  -16.3150   -9.4570 O.2    55  TRP55      -0.2718
     29  CB       -17.4480  -17.9130  -10.3870 C.3    55  TRP55       0.0564
     30  CG       -16.9550  -18.8840  -11.4260 C.ar   55  TRP55       0.0003
     31  CD1      -16.4970  -20.1860  -11.2640 C.ar   55  TRP55       0.0946
     32  CD2      -16.9790  -18.6600  -12.8280 C.ar   55  TRP55       0.0152
     33  NE1      -16.2500  -20.7410  -12.4980 N.ar   55  TRP55      -0.2442
     34  CE2      -16.6010  -19.8530  -13.4640 C.ar   55  TRP55       0.0810
     35  CE3      -17.3960  -17.5940  -13.6180 C.ar   55  TRP55       0.0012
     36  CZ2      -16.5100  -19.9440  -14.8640 C.ar   55  TRP55       0.0191
     37  CZ3      -17.2750  -17.7030  -14.9570 C.ar   55  TRP55       0.0001
     38  CH2      -16.8930  -18.8720  -15.5600 C.ar   55  TRP55       0.0015
     39  N        -14.4460  -18.3480   -8.8720 N.am   56  ALA56      -0.1980
     40  CA       -13.0340  -17.8690   -8.8060 C.3    56  ALA56       0.1597
     41  C        -12.1480  -18.4420   -9.9290 C.2    56  ALA56       0.2287
     42  O        -11.0990  -17.9040  -10.2550 O.2    56  ALA56      -0.2864
     43  CB       -12.4240  -18.2240   -7.4760 C.3    56  ALA56       0.0319
     44  N        -12.3330  -20.8660  -13.6150 N.3    58  SER58      -0.1217
     45  CA       -12.8770  -21.7300  -14.6490 C.3    58  SER58       0.1889
     46  C        -11.8580  -22.7200  -15.2150 C.2    58  SER58       0.2288
     47  O        -10.6440  -22.5160  -15.0420 O.2    58  SER58      -0.2866
     48  CB       -13.4200  -20.8880  -15.8420 C.3    58  SER58       0.2089
     49  OG       -12.3760  -20.3530  -16.6390 O.3    58  SER58      -0.2183
     50  N        -11.1830  -23.0180  -18.3750 N.3    60  GLN60      -0.1231
     51  CA       -10.4940  -22.1490  -19.3250 C.3    60  GLN60       0.1698
     52  C         -9.3360  -21.3450  -18.7530 C.2    60  GLN60       0.2592
     53  O         -8.2920  -21.1570  -19.4160 O.2    60  GLN60      -0.2718
     54  CB       -11.5210  -21.2050  -19.9850 C.3    60  GLN60       0.0381
     55  CG       -12.5110  -21.8720  -20.9670 C.3    60  GLN60       0.0905
     56  CD       -13.5570  -22.8190  -20.3220 C.2    60  GLN60       0.2608
     57  OE1      -13.9870  -22.6170  -19.1720 O.2    60  GLN60      -0.2717
     58  NE2      -13.8980  -23.9170  -21.0430 N.am   60  GLN60      -0.0878
     59  N         -9.4950  -20.8610  -17.5240 N.am   61  ASN61      -0.1974
     60  CA        -8.4690  -20.1520  -16.8450 C.3    61  ASN61       0.1688
     61  C         -7.1430  -20.9160  -16.7020 C.2    61  ASN61       0.2292
     62  O         -6.1110  -20.2840  -16.4590 O.2    61  ASN61      -0.2864
     63  CB        -8.8780  -19.7820  -15.4210 C.3    61  ASN61       0.1181
     64  CG        -9.9340  -18.6570  -15.3210 C.2    61  ASN61       0.2629
     65  OD1      -10.6150  -18.5140  -14.2650 O.2    61  ASN61      -0.2716
     66  ND2      -10.0200  -17.8210  -16.3370 N.am   61  ASN61      -0.0877
     67  N         -4.0950  -19.8950  -18.8550 N.3    64  ARG64      -0.1245
     68  CA        -3.3200  -18.6750  -18.5860 C.3    64  ARG64       0.1563
     69  C         -1.9060  -19.1080  -18.2370 C.2    64  ARG64       0.2260
     70  O         -1.6340  -20.3130  -18.1860 O.2    64  ARG64      -0.2867
     71  CB        -3.9090  -17.8590  -17.4410 C.3    64  ARG64       0.0307
     72  CG        -5.3070  -17.3330  -17.8460 C.3    64  ARG64       0.0489
     73  CD        -5.8330  -16.3740  -16.7970 C.3    64  ARG64       0.2205
     74  NE        -7.1870  -15.9630  -17.0750 N.pl3  64  ARG64      -0.0865
     75  CZ        -7.8070  -14.9140  -16.5070 C.cat  64  ARG64       0.5346
     76  NH1       -7.2040  -14.1420  -15.6020 N.pl3  64  ARG64       0.1354
     77  NH2       -9.0550  -14.6730  -16.8520 N.pl3  64  ARG64       0.1354
     78  N        -22.2320   -9.8870  -12.5640 N.3   185  ARG185     -0.1245
     79  CA       -20.9360   -9.9130  -13.2090 C.3   185  ARG185      0.1563
     80  C        -20.3170   -8.5500  -13.2760 C.2   185  ARG185      0.2260
     81  O        -20.8850   -7.6400  -13.8220 O.2   185  ARG185     -0.2867
     82  CB       -20.9910  -10.5340  -14.6110 C.3   185  ARG185      0.0307
     83  CG       -19.6320  -10.5470  -15.3200 C.3   185  ARG185      0.0489
     84  CD       -19.6210  -11.3710  -16.6020 C.3   185  ARG185      0.2205
     85  NE       -18.2900  -11.2510  -17.1560 N.pl3 185  ARG185     -0.0865
     86  CZ       -17.6450  -12.2060  -17.8180 C.cat 185  ARG185      0.5346
     87  NH1      -18.2130  -13.3630  -18.1350 N.pl3 185  ARG185      0.1354
     88  NH2      -16.4130  -11.9850  -18.2080 N.pl3 185  ARG185      0.1354
     89  N        -21.7290  -11.8150  -20.6970 N.3   191  ARG191     -0.1245
     90  CA       -21.5580  -13.1970  -21.1330 C.3   191  ARG191      0.1563
     91  C        -21.2990  -13.9940  -19.8410 C.2   191  ARG191      0.2260
     92  O        -20.9700  -13.4240  -18.8050 O.2   191  ARG191     -0.2867
     93  CB       -20.4050  -13.3870  -22.1490 C.3   191  ARG191      0.0307
     94  CG       -19.0440  -12.9090  -21.6850 C.3   191  ARG191      0.0489
     95  CD       -17.9380  -13.3060  -22.6430 C.3   191  ARG191      0.2205
     96  NE       -16.6390  -12.7260  -22.2280 N.pl3 191  ARG191     -0.0865
     97  CZ       -16.0940  -11.6080  -22.6860 C.cat 191  ARG191      0.5346
     98  NH1      -16.6670  -10.9000  -23.6400 N.pl3 191  ARG191      0.1354
     99  NH2      -14.9180  -11.2150  -22.1720 N.pl3 191  ARG191      0.1354
    100  N        -19.2300  -16.8400  -19.8610 N.3   193  SER193     -0.1217
    101  CA       -17.8750  -17.4120  -19.8070 C.3   193  SER193      0.1889
    102  C        -17.7510  -18.8200  -19.2220 C.2   193  SER193      0.2288
    103  O        -16.7510  -19.1740  -18.5970 O.2   193  SER193     -0.2866
    104  CB       -16.8850  -16.4740  -19.1000 C.3   193  SER193      0.2089
    105  OG       -16.9850  -15.1770  -19.6510 O.3   193  SER193     -0.2183
@<TRIPOS>BOND
     1    98    97    1
     2    97    96    2
     3    97    99    1
     4    95    96    1
     5    95    94    1
     6    93    94    1
     7    93    90    1
     8    90    89    1
     9    90    91    1
    10    58    56   am
    11    55    56    1
    12    55    54    1
    13    56    57    2
    14    54    51    1
    15   100   101    1
    16    91    92    2
    17   101   102    1
    18   101   104    1
    19   105   104    1
    20    53    52    2
    21    51    52    1
    22    51    50    1
    23   102   103    2
    24    67    68    1
    25    52    59   am
    26    68    69    1
    27    68    71    1
    28    69    70    2
    29    88    86    1
    30    87    86    1
    31    72    71    1
    32    72    73    1
    33    86    85    2
    34    59    60    1
    35    85    84    1
    36    24    22   ar
    37    74    73    1
    38    74    75    2
    39    77    75    1
    40    60    61    1
    41    60    63    1
    42    61    62    2
    43    49    48    1
    44    84    83    1
    45    75    76    1
    46    66    64   am
    47    22    23   ar
    48    22    21    1
    49    48    45    1
    50    38    37   ar
    51    38    36   ar
    52    63    64    1
    53    64    65    2
    54    83    82    1
    55    46    47    2
    56    46    45    1
    57    37    35   ar
    58    36    34   ar
    59    21    18    1
    60    45    44    1
    61     8     6    1
    62    82    79    1
    63     7     5    1
    64    81    80    2
    65    35    32   ar
    66    18    19    1
    67    18    17    1
    68    34    32   ar
    69    34    33   ar
    70    19    20    2
    71    80    79    1
    72     6     5    1
    73    79    78    1
    74     5     2    1
    75    32    30   ar
    76    12    11    2
    77    33    31   ar
    78    17    11   am
    79    11    10    1
    80     4     3    2
    81     2     3    1
    82     2     1    1
    83    30    31   ar
    84    30    29    1
    85     3     9   am
    86     9    10    1
    87    10    13    1
    88    29    26    1
    89    42    41    2
    90    41    40    1
    91    14    13    1
    92    14    16    1
    93    28    27    2
    94    13    15    1
    95    27    26    1
    96    27    39   am
    97    26    25    1
    98    39    40    1
    99    40    43    1
