@<TRIPOS>MOLECULE
tmp/5hcaB00.pdb
 98 91 0 0 0
SMALL
GASTEIGER

@<TRIPOS>ATOM
      1  N          3.8370   13.0000  -23.3630 N.3    89  TYR89      -0.1241
      2  CA         4.5950   14.2230  -23.5970 C.3    89  TYR89       0.1605
      3  C          6.0530   14.0820  -23.1550 C.2    89  TYR89       0.2264
      4  O          6.4630   13.0860  -22.5470 O.2    89  TYR89      -0.2867
      5  CB         3.9020   15.4260  -22.9030 C.3    89  TYR89       0.0534
      6  CG         3.3750   15.1440  -21.5030 C.ar   89  TYR89      -0.0201
      7  CD1        4.1920   15.2770  -20.3820 C.ar   89  TYR89      -0.0009
      8  CD2        2.0530   14.7520  -21.3100 C.ar   89  TYR89      -0.0009
      9  CE1        3.7070   15.0060  -19.1110 C.ar   89  TYR89       0.0417
     10  CE2        1.5530   14.4870  -20.0480 C.ar   89  TYR89       0.0417
     11  CZ         2.3870   14.6170  -18.9510 C.ar   89  TYR89       0.1957
     12  OH         1.8940   14.3440  -17.7040 O.3    89  TYR89      -0.2866
     13  N          9.6460   16.5860  -21.7310 N.3    91  LYS91      -0.1245
     14  CA        10.1330   17.8050  -21.0910 C.3    91  LYS91       0.1561
     15  C         11.5780   18.0750  -21.4980 C.2    91  LYS91       0.2260
     16  O         12.3710   17.1380  -21.6380 O.2    91  LYS91      -0.2867
     17  CB        10.0560   17.7060  -19.5460 C.3    91  LYS91       0.0271
     18  CG         8.6500   17.6190  -18.9720 C.3    91  LYS91       0.0035
     19  CD         8.7010   17.4420  -17.4600 C.3    91  LYS91       0.0206
     20  CE         7.3080   17.5940  -16.8210 C.3    91  LYS91       0.1093
     21  NZ         7.3750   17.4210  -15.3330 N.3    91  LYS91      -0.1314
     22  N          9.1170   14.6750  -11.2540 N.3   106  PRO106     -0.2116
     23  CA         8.0450   15.4900  -11.8510 C.3   106  PRO106      0.1372
     24  C          8.0460   16.9420  -11.3890 C.2   106  PRO106      0.2244
     25  O          7.4280   17.7820  -12.0570 O.2   106  PRO106     -0.2868
     26  CB         6.7680   14.7650  -11.4120 C.3   106  PRO106      0.0268
     27  CG         7.2340   13.3660  -11.0010 C.3   106  PRO106      0.0207
     28  CD         8.5910   13.5790  -10.4190 C.3   106  PRO106      0.0892
     29  N         11.8570   22.9020  -15.6370 N.3   110  TYR110     -0.1241
     30  CA        12.0890   22.6660  -17.0570 C.3   110  TYR110      0.1605
     31  C         11.8750   23.9450  -17.8630 C.2   110  TYR110      0.2264
     32  O         11.2540   24.9020  -17.3940 O.2   110  TYR110     -0.2867
     33  CB        11.1990   21.5300  -17.5790 C.3   110  TYR110      0.0534
     34  CG         9.7130   21.7680  -17.4070 C.ar  110  TYR110     -0.0201
     35  CD1        8.9980   22.5420  -18.3220 C.ar  110  TYR110     -0.0009
     36  CD2        9.0250   21.2020  -16.3450 C.ar  110  TYR110     -0.0009
     37  CE1        7.6290   22.7530  -18.1680 C.ar  110  TYR110      0.0417
     38  CE2        7.6660   21.4100  -16.1710 C.ar  110  TYR110      0.0417
     39  CZ         6.9670   22.1880  -17.0910 C.ar  110  TYR110      0.1957
     40  OH         5.6110   22.3950  -16.9380 O.3   110  TYR110     -0.2866
     41  N          7.5840   21.9540  -21.9310 N.3   113  MET113     -0.1245
     42  CA         6.9230   20.6570  -21.9640 C.3   113  MET113      0.1570
     43  C          6.0120   20.6110  -23.1840 C.2   113  MET113      0.2261
     44  O          5.2580   21.5660  -23.4300 O.2   113  MET113     -0.2867
     45  CB         6.1410   20.3970  -20.6740 C.3   113  MET113      0.0387
     46  CG         5.3510   19.0980  -20.6690 C.3   113  MET113      0.0595
     47  SD         4.5660   18.7560  -19.0610 S.3   113  MET113     -0.1393
     48  CE         2.8870   18.4790  -19.6590 C.3   113  MET113      0.0692
     49  N         -1.5720   14.3220  -24.4510 N.3   117  ASP117     -0.1239
     50  CA        -2.0140   13.9400  -23.1140 C.3   117  ASP117      0.1674
     51  C         -3.4730   13.5480  -23.2800 C.2   117  ASP117      0.2266
     52  O         -4.2620   14.3600  -23.7810 O.2   117  ASP117     -0.2867
     53  CB        -1.8700   15.1090  -22.1200 C.3   117  ASP117      0.1410
     54  CG        -1.9730   14.6760  -20.6610 C.2   117  ASP117      0.3668
     55  OD1       -2.2050   13.4750  -20.4100 O.co2 117  ASP117     -0.2456
     56  OD2       -1.8760   15.5550  -19.7580 O.co2 117  ASP117     -0.2456
     57  N          0.0170   19.6120  -25.2010 N.3   126  HIS126     -0.1241
     58  CA         0.5880   20.6180  -24.3120 C.3   126  HIS126      0.1621
     59  C          1.6690   21.4280  -25.0160 C.2   126  HIS126      0.2264
     60  O          2.4720   20.8850  -25.7790 O.2   126  HIS126     -0.2867
     61  CB         1.1910   19.9510  -23.0820 C.3   126  HIS126      0.0745
     62  CG         0.1710   19.4410  -22.1210 C.ar  126  HIS126      0.0817
     63  ND1       -0.7140   20.2730  -21.4750 N.ar  126  HIS126     -0.2268
     64  CD2       -0.1010   18.1860  -21.6920 C.ar  126  HIS126      0.1154
     65  CE1       -1.4900   19.5500  -20.6840 C.ar  126  HIS126      0.1986
     66  NE2       -1.1330   18.2830  -20.7940 N.ar  126  HIS126     -0.2212
     67  N          3.9460   24.0530  -22.9180 N.3   128  ILE128     -0.1245
     68  CA         4.1190   24.7560  -21.6480 C.3   128  ILE128      0.1561
     69  C          5.4460   25.4980  -21.6930 C.2   128  ILE128      0.2260
     70  O          6.5030   24.8820  -21.8740 O.2   128  ILE128     -0.2867
     71  CB         4.0430   23.8070  -20.4340 C.3   128  ILE128      0.0252
     72  CG1        2.7550   22.9640  -20.4600 C.3   128  ILE128      0.0019
     73  CG2        4.0710   24.5950  -19.1270 C.3   128  ILE128      0.0019
     74  CD1        2.5050   22.1230  -19.1400 C.3   128  ILE128      0.0001
     75  N          5.4580   27.8090  -14.7570 N.3   135  ASN135     -0.1240
     76  CA         5.1290   27.0190  -15.9510 C.3   135  ASN135      0.1653
     77  C          3.8080   27.5310  -16.5270 C.2   135  ASN135      0.2266
     78  O          2.7720   27.4580  -15.8600 O.2   135  ASN135     -0.2867
     79  CB         5.0120   25.5360  -15.6080 C.3   135  ASN135      0.1155
     80  CG         6.2930   24.9650  -15.0580 C.2   135  ASN135      0.2627
     81  OD1        7.3710   25.2880  -15.5450 O.2   135  ASN135     -0.2716
     82  ND2        6.1860   24.1210  -14.0230 N.am  135  ASN135     -0.0877
     83  N          0.8630   27.4040  -19.3140 N.3   137  LEU137     -0.1245
     84  CA         0.1850   26.5880  -20.3170 C.3   137  LEU137      0.1561
     85  C         -0.3800   27.4830  -21.4190 C.2   137  LEU137      0.2260
     86  O         -0.9300   28.5520  -21.1400 O.2   137  LEU137     -0.2867
     87  CB        -0.9460   25.7690  -19.6690 C.3   137  LEU137      0.0270
     88  CG        -0.5920   24.5460  -18.7990 C.3   137  LEU137      0.0019
     89  CD1        0.1540   24.9250  -17.5050 C.3   137  LEU137      0.0001
     90  CD2       -1.8600   23.7570  -18.4650 C.3   137  LEU137      0.0001
     91  N          8.1540   11.7970  -18.1270 N.3   218  ASP218     -0.1239
     92  CA         7.5730   11.7910  -16.7800 C.3   218  ASP218      0.1674
     93  C          6.0570   11.7160  -16.9650 C.2   218  ASP218      0.2266
     94  O          5.3880   12.7450  -17.0980 O.2   218  ASP218     -0.2867
     95  CB         8.0050   13.0330  -16.0030 C.3   218  ASP218      0.1410
     96  CG         7.0260   13.4160  -14.8940 C.2   218  ASP218      0.3668
     97  OD1        6.4550   12.5110  -14.2440 O.co2 218  ASP218     -0.2456
     98  OD2        6.8050   14.6360  -14.7000 O.co2 218  ASP218     -0.2456
@<TRIPOS>BOND
     1    60    59    2
     2    57    58    1
     3    59    58    1
     4    49    50    1
     5    58    61    1
     6    52    51    2
     7     2     1    1
     8     2     3    1
     9     2     5    1
    10    44    43    2
    11    51    50    1
    12    43    42    1
    13     3     4    2
    14    50    53    1
    15    61    62    1
    16    67    68    1
    17     5     6    1
    18    62    64   ar
    19    62    63   ar
    20    53    54    1
    21    42    41    1
    22    42    45    1
    23    70    69    2
    24    13    14    1
    25    69    68    1
    26    64    66   ar
    27    68    71    1
    28    16    15    2
    29     6     8   ar
    30     6     7   ar
    31    15    14    1
    32    63    65   ar
    33    85    86    2
    34    85    84    1
    35     8    10   ar
    36    14    17    1
    37    66    65   ar
    38    45    46    1
    39    46    47    1
    40    54    55   ar
    41    54    56   ar
    42    72    71    1
    43    72    74    1
    44    71    73    1
    45     7     9   ar
    46    84    87    1
    47    84    83    1
    48    10    11   ar
    49    87    88    1
    50    48    47    1
    51    17    18    1
    52     9    11   ar
    53    18    19    1
    54    11    12    1
    55    88    90    1
    56    88    89    1
    57    35    37   ar
    58    35    34   ar
    59    37    39   ar
    60    91    92    1
    61    31    32    2
    62    31    30    1
    63    33    34    1
    64    33    30    1
    65    19    20    1
    66    34    36   ar
    67    94    93    2
    68    39    40    1
    69    39    38   ar
    70    30    29    1
    71    93    92    1
    72    20    21    1
    73    92    95    1
    74    77    76    1
    75    77    78    2
    76    36    38   ar
    77    95    96    1
    78    76    79    1
    79    76    75    1
    80    79    80    1
    81    81    80    2
    82    80    82   am
    83    96    98   ar
    84    96    97   ar
    85    25    24    2
    86    23    26    1
    87    23    24    1
    88    23    22    1
    89    26    27    1
    90    22    28    1
    91    27    28    1
