@<TRIPOS>MOLECULE
tmp/5hcfB00.pdb
 94 92 0 0 0
SMALL
GASTEIGER

@<TRIPOS>ATOM
      1  N         36.1640   47.7650  -23.2210 N.3    51  PHE51      -0.1241
      2  CA        36.9480   46.5440  -23.1640 C.3    51  PHE51       0.1605
      3  C         37.7920   46.5590  -21.8980 C.2    51  PHE51       0.2264
      4  O         38.1940   47.6230  -21.4210 O.2    51  PHE51      -0.2867
      5  CB        37.8320   46.4030  -24.4000 C.3    51  PHE51       0.0534
      6  CG        37.0720   46.1220  -25.6580 C.ar   51  PHE51      -0.0203
      7  CD1       36.7740   44.8200  -26.0210 C.ar   51  PHE51      -0.0042
      8  CD2       36.6410   47.1550  -26.4710 C.ar   51  PHE51      -0.0042
      9  CE1       36.0700   44.5500  -27.1770 C.ar   51  PHE51      -0.0003
     10  CE2       35.9370   46.8920  -27.6300 C.ar   51  PHE51      -0.0003
     11  CZ        35.6510   45.5850  -27.9830 C.ar   51  PHE51      -0.0000
     12  N         34.5240   35.8330  -18.0840 N.3    87  TYR87      -0.1241
     13  CA        35.4180   34.6860  -18.1420 C.3    87  TYR87       0.1605
     14  C         36.8720   35.1070  -17.9680 C.2    87  TYR87       0.2264
     15  O         37.2410   36.2470  -18.2580 O.2    87  TYR87      -0.2867
     16  CB        35.2360   33.9380  -19.4620 C.3    87  TYR87       0.0534
     17  CG        35.2850   34.8420  -20.6690 C.ar   87  TYR87      -0.0201
     18  CD1       36.4970   35.1930  -21.2530 C.ar   87  TYR87      -0.0009
     19  CD2       34.1180   35.3530  -21.2210 C.ar   87  TYR87      -0.0009
     20  CE1       36.5420   36.0220  -22.3550 C.ar   87  TYR87       0.0417
     21  CE2       34.1540   36.1810  -22.3220 C.ar   87  TYR87       0.0417
     22  CZ        35.3660   36.5120  -22.8840 C.ar   87  TYR87       0.1957
     23  OH        35.3990   37.3390  -23.9770 O.3    87  TYR87      -0.2866
     24  N         41.2240   33.9390  -18.3990 N.3    89  LYS89      -0.1245
     25  CA        42.1350   33.2020  -19.2660 C.3    89  LYS89       0.1561
     26  C         43.3950   32.7810  -18.5240 C.2    89  LYS89       0.2260
     27  O         43.8780   33.4950  -17.6470 O.2    89  LYS89      -0.2867
     28  CB        42.5140   34.0400  -20.4840 C.3    89  LYS89       0.0271
     29  CG        41.3460   34.3620  -21.3850 C.3    89  LYS89       0.0035
     30  CD        41.8090   35.1990  -22.5410 C.3    89  LYS89       0.0206
     31  CE        40.7660   35.2920  -23.6230 C.3    89  LYS89       0.1093
     32  NZ        41.3310   36.1060  -24.7170 N.3    89  LYS89      -0.1314
     33  N         42.7970   40.4790  -26.8100 N.3   101  GLY101     -0.1210
     34  CA        42.0060   39.3620  -27.3020 C.3   101  GLY101      0.1956
     35  C         42.7520   38.3300  -28.1300 C.2   101  GLY101      0.2611
     36  O         42.3430   37.1720  -28.1890 O.2   101  GLY101     -0.2717
     37  N         43.8410   38.7440  -28.7740 N.am  102  GLU102     -0.1979
     38  CA        44.5730   37.8650  -29.6820 C.3   102  GLU102      0.1602
     39  C         45.7340   37.1460  -28.9970 C.2   102  GLU102      0.2287
     40  O         46.2690   36.1740  -29.5330 O.2   102  GLU102     -0.2864
     41  CB        45.0900   38.6590  -30.8820 C.3   102  GLU102      0.0415
     42  CG        44.0180   39.4680  -31.5930 C.3   102  GLU102      0.1163
     43  CD        43.1650   38.6170  -32.5140 C.2   102  GLU102      0.3649
     44  OE1       43.3060   38.7520  -33.7500 O.co2 102  GLU102     -0.2457
     45  OE2       42.3500   37.8190  -32.0020 O.co2 102  GLU102     -0.2457
     46  N         46.2550   32.1030  -25.3160 N.3   105  TYR105     -0.1241
     47  CA        45.9350   31.5110  -24.0190 C.3   105  TYR105      0.1605
     48  C         45.8750   29.9960  -24.1460 C.2   105  TYR105      0.2264
     49  O         45.8110   29.4650  -25.2530 O.2   105  TYR105     -0.2867
     50  CB        44.6050   32.0450  -23.4840 C.3   105  TYR105      0.0534
     51  CG        43.4300   31.7760  -24.4000 C.ar  105  TYR105     -0.0201
     52  CD1       42.7350   30.5720  -24.3430 C.ar  105  TYR105     -0.0009
     53  CD2       43.0200   32.7230  -25.3290 C.ar  105  TYR105     -0.0009
     54  CE1       41.6690   30.3230  -25.1860 C.ar  105  TYR105      0.0417
     55  CE2       41.9520   32.4810  -26.1710 C.ar  105  TYR105      0.0417
     56  CZ        41.2820   31.2850  -26.0990 C.ar  105  TYR105      0.1957
     57  OH        40.2210   31.0510  -26.9440 O.3   105  TYR105     -0.2866
     58  N         40.3170   29.4950  -21.8940 N.3   108  MET108     -0.1245
     59  CA        39.3620   30.5760  -21.7000 C.3   108  MET108      0.1570
     60  C         38.1460   29.9880  -20.9920 C.2   108  MET108      0.2261
     61  O         37.4900   29.0820  -21.5100 O.2   108  MET108     -0.2867
     62  CB        38.9770   31.2260  -23.0290 C.3   108  MET108      0.0387
     63  CG        37.8820   32.2790  -22.9170 C.3   108  MET108      0.0595
     64  SD        37.7230   33.2740  -24.4150 S.3   108  MET108     -0.1393
     65  CE        35.9600   33.5920  -24.4290 C.3   108  MET108      0.0692
     66  N         40.0930   39.3920  -19.8560 N.3   214  ASP214     -0.1225
     67  CA        39.9480   40.0470  -21.1430 C.3   214  ASP214      0.1805
     68  C         38.4920   39.9510  -21.5690 C.2   214  ASP214      0.2598
     69  O         38.0710   38.9550  -22.1580 O.2   214  ASP214     -0.2718
     70  CB        40.8740   39.3980  -22.1800 C.3   214  ASP214      0.1424
     71  CG        40.4930   39.7450  -23.6130 C.2   214  ASP214      0.3668
     72  OD1       40.0740   40.8990  -23.8670 O.co2 214  ASP214     -0.2456
     73  OD2       40.6000   38.8480  -24.4830 O.co2 214  ASP214     -0.2456
     74  N         37.7130   40.9770  -21.2490 N.am  215  VAL215     -0.1966
     75  CA        36.2860   40.9360  -21.5300 C.3   215  VAL215      0.1727
     76  C         35.7460   42.2470  -22.0880 C.2   215  VAL215      0.2616
     77  O         36.3150   43.3140  -21.8680 O.2   215  VAL215     -0.2715
     78  CB        35.4830   40.5850  -20.2620 C.3   215  VAL215      0.0290
     79  CG1       35.9220   39.2460  -19.7130 C.3   215  VAL215      0.0023
     80  CG2       35.6420   41.6780  -19.2130 C.3   215  VAL215      0.0023
     81  N         34.6350   42.1490  -22.8040 N.am  216  TRP216     -0.1974
     82  CA        33.8750   43.3150  -23.2310 C.3   216  TRP216      0.1640
     83  C         32.5720   43.3760  -22.4420 C.2   216  TRP216      0.2290
     84  O         31.8900   42.3610  -22.2710 O.2   216  TRP216     -0.2864
     85  CB        33.5920   43.2610  -24.7330 C.3   216  TRP216      0.0576
     86  CG        32.4040   44.0780  -25.1560 C.ar  216  TRP216      0.0006
     87  CD1       31.1230   43.6390  -25.3240 C.ar  216  TRP216      0.0946
     88  CD2       32.3910   45.4780  -25.4660 C.ar  216  TRP216      0.0152
     89  NE1       30.3140   44.6770  -25.7180 N.ar  216  TRP216     -0.2442
     90  CE2       31.0670   45.8170  -25.8100 C.ar  216  TRP216      0.0810
     91  CE3       33.3690   46.4780  -25.4810 C.ar  216  TRP216      0.0012
     92  CZ2       30.6980   47.1120  -26.1700 C.ar  216  TRP216      0.0191
     93  CZ3       33.0000   47.7610  -25.8350 C.ar  216  TRP216      0.0001
     94  CH2       31.6770   48.0680  -26.1760 C.ar  216  TRP216      0.0015
@<TRIPOS>BOND
     1    44    43   ar
     2    43    45   ar
     3    43    42    1
     4    42    41    1
     5    41    38    1
     6    38    39    1
     7    38    37    1
     8    40    39    2
     9    37    35   am
    10    36    35    2
    11    35    34    1
    12    11    10   ar
    13    11     9   ar
    14    10     8   ar
    15    34    33    1
    16     9     7   ar
    17    57    56    1
    18     8     6   ar
    19    94    92   ar
    20    94    93   ar
    21    55    56   ar
    22    55    53   ar
    23    92    90   ar
    24    56    54   ar
    25     7     6   ar
    26    93    91   ar
    27    90    89   ar
    28    90    88   ar
    29    89    87   ar
    30     6     5    1
    31    91    88   ar
    32    88    86   ar
    33    53    51   ar
    34    87    86   ar
    35    46    47    1
    36    49    48    2
    37    54    52   ar
    38    86    85    1
    39    85    82    1
    40    32    31    1
    41    73    71   ar
    42    65    64    1
    43    64    63    1
    44    51    52   ar
    45    51    50    1
    46     5     2    1
    47    48    47    1
    48    47    50    1
    49    23    22    1
    50    72    71   ar
    51    31    30    1
    52    71    70    1
    53    82    81    1
    54    82    83    1
    55     1     2    1
    56     2     3    1
    57    62    63    1
    58    62    59    1
    59    22    20   ar
    60    22    21   ar
    61    81    76   am
    62    30    29    1
    63    83    84    2
    64    20    18   ar
    65    21    19   ar
    66    70    67    1
    67    69    68    2
    68    76    77    2
    69    76    75    1
    70     3     4    2
    71    58    59    1
    72    59    60    1
    73    68    74   am
    74    68    67    1
    75    75    74    1
    76    75    78    1
    77    61    60    2
    78    29    28    1
    79    18    17   ar
    80    19    17   ar
    81    67    66    1
    82    17    16    1
    83    28    25    1
    84    78    79    1
    85    78    80    1
    86    16    13    1
    87    25    26    1
    88    25    24    1
    89    26    27    2
    90    15    14    2
    91    13    12    1
    92    13    14    1
