@<TRIPOS>MOLECULE
tmp/5hchA00.pdb
 91 86 0 0 0
SMALL
GASTEIGER

@<TRIPOS>ATOM
      1  N        -24.7430   78.4670   41.3450 N.3    21  ASN21      -0.1225
      2  CA       -25.0340   78.3040   42.7670 C.3    21  ASN21       0.1785
      3  C        -24.4200   77.0180   43.2990 C.2    21  ASN21       0.2598
      4  O        -25.1030   76.2070   43.9240 O.2    21  ASN21      -0.2718
      5  CB       -26.5470   78.2950   43.0220 C.3    21  ASN21       0.1169
      6  CG       -27.1940   79.6490   42.7850 C.2    21  ASN21       0.2627
      7  OD1      -27.5080   80.0110   41.6510 O.2    21  ASN21      -0.2716
      8  ND2      -27.4060   80.3990   43.8590 N.am   21  ASN21      -0.0877
      9  N        -23.1300   76.8320   43.0410 N.am   22  SER22      -0.1938
     10  CA       -22.4460   75.6030   43.4200 C.3    22  SER22       0.2055
     11  C        -20.9320   75.7850   43.4440 C.2    22  SER22       0.2644
     12  O        -20.3840   76.6180   42.7190 O.2    22  SER22      -0.2714
     13  CB       -22.8230   74.4800   42.4560 C.3    22  SER22       0.2130
     14  OG       -21.8770   73.4300   42.4870 O.3    22  SER22      -0.2179
     15  N        -20.2580   75.0000   44.2810 N.am   23  SER23      -0.1935
     16  CA       -18.7990   75.0120   44.3250 C.3    23  SER23       0.2055
     17  C        -18.2310   74.4020   43.0470 C.2    23  SER23       0.2643
     18  O        -17.0820   74.6520   42.6850 O.2    23  SER23      -0.2714
     19  CB       -18.2790   74.2570   45.5520 C.3    23  SER23       0.2130
     20  OG       -18.5740   72.8740   45.4700 O.3    23  SER23      -0.2179
     21  N        -19.0460   73.5990   42.3700 N.am   24  GLY24      -0.1954
     22  CA       -18.6700   73.0230   41.0920 C.3    24  GLY24       0.1869
     23  C        -18.5610   74.0780   40.0080 C.2    24  GLY24       0.2309
     24  O        -19.2330   75.1100   40.0570 O.2    24  GLY24      -0.2863
     25  N        -21.3010   80.7070   44.2160 N.3    45  THR45      -0.1218
     26  CA       -22.3020   80.1980   45.1400 C.3    45  THR45       0.1862
     27  C        -23.1550   81.3680   45.5990 C.2    45  THR45       0.2287
     28  O        -23.8500   81.2900   46.6100 O.2    45  THR45      -0.2866
     29  CB       -21.6780   79.4930   46.3570 C.3    45  THR45       0.1770
     30  OG1      -20.8740   80.4230   47.0910 O.3    45  THR45      -0.2211
     31  CG2      -20.8240   78.3150   45.9150 C.3    45  THR45       0.0375
     32  N        -28.7850   70.0130   38.2490 N.3    95  GLU95      -0.1231
     33  CA       -28.2220   69.4840   39.4870 C.3    95  GLU95       0.1699
     34  C        -26.9280   68.7180   39.2410 C.2    95  GLU95       0.2592
     35  O        -26.9050   67.7570   38.4730 O.2    95  GLU95      -0.2718
     36  CB       -29.2320   68.5730   40.1860 C.3    95  GLU95       0.0402
     37  CG       -28.7480   68.0340   41.5170 C.3    95  GLU95       0.1161
     38  CD       -28.3290   69.1400   42.4640 C.2    95  GLU95       0.3649
     39  OE1      -29.1540   69.5390   43.3110 O.co2  95  GLU95      -0.2457
     40  OE2      -27.1780   69.6150   42.3560 O.co2  95  GLU95      -0.2457
     41  N        -25.8540   69.1430   39.9000 N.am   96  ASP96      -0.1960
     42  CA       -24.5710   68.4580   39.7830 C.3    96  ASP96       0.1840
     43  C        -24.2760   67.5950   41.0100 C.2    96  ASP96       0.2623
     44  O        -23.4570   66.6770   40.9520 O.2    96  ASP96      -0.2715
     45  CB       -23.4350   69.4670   39.5570 C.3    96  ASP96       0.1450
     46  CG       -23.3670   70.5460   40.6350 C.2    96  ASP96       0.3671
     47  OD1      -23.7510   70.2840   41.7940 O.co2  96  ASP96      -0.2456
     48  OD2      -22.9120   71.6660   40.3160 O.co2  96  ASP96      -0.2456
     49  N        -24.9510   67.8970   42.1170 N.am   97  GLY97      -0.1940
     50  CA       -24.7020   67.2200   43.3780 C.3    97  GLY97       0.2014
     51  C        -25.7560   66.2000   43.7670 C.2    97  GLY97       0.2640
     52  O        -26.1660   65.3760   42.9470 O.2    97  GLY97      -0.2714
     53  N        -26.1910   66.2500   45.0250 N.am   98  THR98      -0.1936
     54  CA       -27.1490   65.2770   45.5450 C.3    98  THR98       0.2028
     55  C        -28.2070   65.8790   46.4720 C.2    98  THR98       0.2642
     56  O        -29.0920   65.1650   46.9460 O.2    98  THR98      -0.2714
     57  CB       -26.4350   64.1480   46.3190 C.3    98  THR98       0.1808
     58  OG1      -25.5130   64.7170   47.2560 O.3    98  THR98      -0.2208
     59  CG2      -25.6850   63.2290   45.3670 C.3    98  THR98       0.0379
     60  N        -28.1230   67.1800   46.7340 N.am   99  ASP99      -0.1971
     61  CA       -29.0470   67.8130   47.6750 C.3    99  ASP99       0.1709
     62  C        -30.3270   68.3110   46.9980 C.2    99  ASP99       0.2293
     63  O        -31.1930   68.8940   47.6500 O.2    99  ASP99      -0.2864
     64  CB       -28.3570   68.9650   48.4140 C.3    99  ASP99       0.1436
     65  CG       -28.0160   70.1290   47.5040 C.2    99  ASP99       0.3671
     66  OD1      -27.8690   69.9210   46.2810 O.co2  99  ASP99      -0.2456
     67  OD2      -27.8850   71.2580   48.0200 O.co2  99  ASP99      -0.2456
     68  N        -31.3850   70.7840   44.9280 N.3   101  ASP101     -0.1239
     69  CA       -31.8810   72.1560   44.9280 C.3   101  ASP101      0.1674
     70  C        -32.0380   72.6420   43.4910 C.2   101  ASP101      0.2266
     71  O        -32.8640   73.5100   43.2000 O.2   101  ASP101     -0.2867
     72  CB       -30.9470   73.0770   45.7200 C.3   101  ASP101      0.1410
     73  CG       -29.4870   72.8920   45.3540 C.2   101  ASP101      0.3668
     74  OD1      -29.1900   72.6020   44.1760 O.co2 101  ASP101     -0.2456
     75  OD2      -28.6300   73.0410   46.2510 O.co2 101  ASP101     -0.2456
     76  N        -30.2510   74.4670   41.5000 N.3   103  ASN103     -0.1225
     77  CA       -29.9590   75.8640   41.2070 C.3   103  ASN103      0.1785
     78  C        -28.4940   76.0720   40.8370 C.2   103  ASN103      0.2597
     79  O        -28.0780   77.1890   40.5270 O.2   103  ASN103     -0.2718
     80  CB       -30.3290   76.7520   42.4000 C.3   103  ASN103      0.1169
     81  CG       -29.6340   76.3310   43.6860 C.2   103  ASN103      0.2627
     82  OD1      -28.8080   75.4190   43.6920 O.2   103  ASN103     -0.2716
     83  ND2      -29.9640   77.0030   44.7830 N.am  103  ASN103     -0.0877
     84  N        -27.7260   74.9850   40.8750 N.am  104  ASP104     -0.1974
     85  CA       -26.2900   75.0110   40.6080 C.3   104  ASP104      0.1709
     86  C        -25.9570   75.7790   39.3360 C.2   104  ASP104      0.2293
     87  O        -25.0140   76.5690   39.3020 O.2   104  ASP104     -0.2864
     88  CB       -25.7530   73.5860   40.5160 C.3   104  ASP104      0.1436
     89  CG       -26.0710   72.7730   41.7470 C.2   104  ASP104      0.3671
     90  OD1      -26.1690   73.3680   42.8400 O.co2 104  ASP104     -0.2456
     91  OD2      -26.2330   71.5430   41.6240 O.co2 104  ASP104     -0.2456
@<TRIPOS>BOND
     1    32    33    1
     2    35    34    2
     3    34    33    1
     4    34    41   am
     5    87    86    2
     6    86    85    1
     7    33    36    1
     8    45    42    1
     9    45    46    1
    10    42    41    1
    11    42    43    1
    12    23    24    2
    13    23    22    1
    14    36    37    1
    15    48    46   ar
    16    88    85    1
    17    88    89    1
    18    79    78    2
    19    85    84    1
    20    46    47   ar
    21    78    84   am
    22    78    77    1
    23    44    43    2
    24    43    49   am
    25    22    21    1
    26    77    76    1
    27    77    80    1
    28     1     2    1
    29    37    38    1
    30    91    89   ar
    31     7     6    2
    32    89    90   ar
    33    49    50    1
    34    40    38   ar
    35    21    17   am
    36    80    81    1
    37    13    14    1
    38    13    10    1
    39    38    39   ar
    40    18    17    2
    41    12    11    2
    42     2     5    1
    43     2     3    1
    44     6     5    1
    45     6     8   am
    46    52    51    2
    47     9     3   am
    48     9    10    1
    49    17    16    1
    50    71    70    2
    51     3     4    2
    52    50    51    1
    53    10    11    1
    54    11    15   am
    55    70    69    1
    56    81    82    2
    57    81    83   am
    58    51    53   am
    59    74    73   ar
    60    25    26    1
    61    15    16    1
    62    16    19    1
    63    68    69    1
    64    69    72    1
    65    53    54    1
    66    26    27    1
    67    26    29    1
    68    73    72    1
    69    73    75   ar
    70    59    57    1
    71    20    19    1
    72    54    57    1
    73    54    55    1
    74    27    28    2
    75    31    29    1
    76    66    65   ar
    77    57    58    1
    78    29    30    1
    79    55    60   am
    80    55    56    2
    81    60    61    1
    82    62    63    2
    83    62    61    1
    84    65    67   ar
    85    65    64    1
    86    61    64    1
