@<TRIPOS>MOLECULE
tmp/5hciE00.pdb
 103 98 0 0 0
SMALL
GASTEIGER

@<TRIPOS>ATOM
      1  N         43.9490  -42.4250  -27.7790 N.3    10  MET10      -0.1230
      2  CA        43.6330  -41.0150  -27.9540 C.3    10  MET10       0.1702
      3  C         44.6050  -40.1420  -27.1630 C.2    10  MET10       0.2592
      4  O         45.1180  -40.5670  -26.1240 O.2    10  MET10      -0.2718
      5  CB        42.1780  -40.7530  -27.5150 C.3    10  MET10       0.0401
      6  CG        41.4240  -39.7050  -28.2990 C.3    10  MET10       0.0596
      7  SD        41.0760  -40.2240  -29.9640 S.3    10  MET10      -0.1393
      8  CE        40.7060  -41.9530  -29.6800 C.3    10  MET10       0.0692
      9  N         44.8430  -38.9220  -27.6440 N.am   11  ALA11      -0.1966
     10  CA        45.6700  -37.9720  -26.8980 C.3    11  ALA11       0.1728
     11  C         45.1020  -37.7480  -25.5060 C.2    11  ALA11       0.2616
     12  O         43.8770  -37.6010  -25.3470 O.2    11  ALA11      -0.2715
     13  CB        45.7850  -36.6630  -27.6490 C.3    11  ALA11       0.0334
     14  N         45.9840  -37.7550  -24.5010 N.am   12  GLY12      -0.1955
     15  CA        45.5440  -37.6360  -23.1140 C.3    12  GLY12       0.1869
     16  C         44.8910  -38.8660  -22.4650 C.2    12  GLY12       0.2309
     17  O         44.5060  -38.8050  -21.2930 O.2    12  GLY12      -0.2863
     18  N         46.4180  -41.4900  -21.6540 N.3    14  GLY14      -0.1210
     19  CA        47.4010  -41.9050  -20.6580 C.3    14  GLY14       0.1956
     20  C         48.4760  -42.8710  -21.1760 C.2    14  GLY14       0.2612
     21  O         49.0770  -43.5850  -20.3840 O.2    14  GLY14      -0.2717
     22  N         48.6970  -42.9130  -22.4900 N.am   15  LYS15      -0.1965
     23  CA        49.7080  -43.7960  -23.0870 C.3    15  LYS15       0.1728
     24  C         51.0620  -43.7570  -22.3580 C.2    15  LYS15       0.2617
     25  O         51.6110  -44.7950  -21.9900 O.2    15  LYS15      -0.2715
     26  CB        49.9390  -43.4490  -24.5720 C.3    15  LYS15       0.0311
     27  CG        48.7410  -43.7380  -25.4840 C.3    15  LYS15       0.0038
     28  CD        49.0740  -43.4340  -26.9520 C.3    15  LYS15       0.0206
     29  CE        49.2730  -41.9190  -27.1800 C.3    15  LYS15       0.1093
     30  NZ        48.0840  -41.0470  -26.8160 N.3    15  LYS15      -0.1314
     31  N         51.5810  -42.5530  -22.1390 N.am   16  THR16      -0.1937
     32  CA        52.9000  -42.3510  -21.5410 C.3    16  THR16       0.2028
     33  C         52.9390  -42.6890  -20.0520 C.2    16  THR16       0.2642
     34  O         53.9060  -43.2690  -19.5710 O.2    16  THR16      -0.2714
     35  CB        53.3320  -40.9030  -21.7530 C.3    16  THR16       0.1808
     36  OG1       53.3290  -40.6360  -23.1620 O.3    16  THR16      -0.2208
     37  CG2       54.7040  -40.6150  -21.1260 C.3    16  THR16       0.0379
     38  N         51.8940  -42.3100  -19.3190 N.am   17  THR17      -0.1950
     39  CA        51.7610  -42.7160  -17.9150 C.3    17  THR17       0.1897
     40  C         51.6300  -44.2460  -17.7650 C.2    17  THR17       0.2313
     41  O         52.2030  -44.8510  -16.8470 O.2    17  THR17      -0.2863
     42  CB        50.5400  -42.0590  -17.2670 C.3    17  THR17       0.1794
     43  OG1       50.4850  -40.6940  -17.6660 O.3    17  THR17      -0.2208
     44  CG2       50.6090  -42.1450  -15.7540 C.3    17  THR17       0.0378
     45  N         51.1810  -38.4090  -29.3440 N.3   108  GLY108     -0.1225
     46  CA        49.9250  -38.1230  -28.6700 C.3   108  GLY108      0.1811
     47  C         48.7010  -38.4640  -29.5200 C.2   108  GLY108      0.2280
     48  O         47.7980  -39.1520  -29.0530 O.2   108  GLY108     -0.2866
     49  N         41.8910  -47.2530  -18.9700 N.3   172  ASN172     -0.1225
     50  CA        42.8490  -46.6340  -18.0630 C.3   172  ASN172      0.1785
     51  C         42.1160  -45.6840  -17.0880 C.2   172  ASN172      0.2597
     52  O         40.9220  -45.4300  -17.2580 O.2   172  ASN172     -0.2718
     53  CB        43.9270  -45.9100  -18.9020 C.3   172  ASN172      0.1169
     54  CG        45.0530  -45.3400  -18.0660 C.2   172  ASN172      0.2627
     55  OD1       45.4080  -45.8780  -17.0230 O.2   172  ASN172     -0.2716
     56  ND2       45.6120  -44.2260  -18.5220 N.am  172  ASN172     -0.0877
     57  N         42.8320  -45.1940  -16.0690 N.am  173  LYS173     -0.1980
     58  CA        42.3320  -44.2750  -15.0480 C.3   173  LYS173      0.1596
     59  C         41.1430  -44.7970  -14.1970 C.2   173  LYS173      0.2287
     60  O         40.3500  -44.0010  -13.7240 O.2   173  LYS173     -0.2864
     61  CB        41.9060  -42.9240  -15.6720 C.3   173  LYS173      0.0298
     62  CG        42.7300  -42.4240  -16.8130 C.3   173  LYS173      0.0038
     63  CD        42.4530  -40.9430  -17.1410 C.3   173  LYS173      0.0206
     64  CE        43.3930  -40.4620  -18.3030 C.3   173  LYS173      0.1093
     65  NZ        43.0600  -39.0970  -18.7600 N.3   173  LYS173     -0.1314
     66  N         41.0700  -45.4050  -11.2880 N.3   175  ASP175     -0.1225
     67  CA        41.0770  -44.7940   -9.9700 C.3   175  ASP175      0.1805
     68  C         40.1410  -43.5770   -9.9890 C.2   175  ASP175      0.2597
     69  O         39.6980  -43.1210   -8.9410 O.2   175  ASP175     -0.2718
     70  CB        42.5200  -44.3780   -9.5590 C.3   175  ASP175      0.1424
     71  CG        43.1540  -43.4360  -10.5570 C.2   175  ASP175      0.3668
     72  OD1       43.4280  -43.8730  -11.6910 O.co2 175  ASP175     -0.2456
     73  OD2       43.3570  -42.2540  -10.2180 O.co2 175  ASP175     -0.2456
     74  N         39.8650  -43.0500  -11.1780 N.am  176  VAL176     -0.1980
     75  CA        38.8950  -41.9590  -11.3170 C.3   176  VAL176      0.1595
     76  C         37.5050  -42.5190  -11.6270 C.2   176  VAL176      0.2287
     77  O         36.4670  -42.1130  -11.0530 O.2   176  VAL176     -0.2864
     78  CB        39.2830  -40.9600  -12.4340 C.3   176  VAL176      0.0276
     79  CG1       38.1020  -39.9690  -12.7070 C.3   176  VAL176      0.0022
     80  CG2       40.5240  -40.2010  -12.0430 C.3   176  VAL176      0.0022
     81  N         44.6520  -48.7380  -13.3990 N.3   228  SER228     -0.1202
     82  CA        45.0360  -47.3890  -13.0500 C.3   228  SER228      0.2020
     83  C         46.5540  -47.2710  -13.2260 C.2   228  SER228      0.2619
     84  O         47.3330  -47.9540  -12.5440 O.2   228  SER228     -0.2717
     85  CB        44.6310  -47.0390  -11.6310 C.3   228  SER228      0.2103
     86  OG        45.2300  -45.8030  -11.2290 O.3   228  SER228     -0.2182
     87  N         46.9770  -46.4230  -14.1540 N.am  229  SER229     -0.1937
     88  CA        48.4100  -46.1590  -14.3400 C.3   229  SER229      0.2055
     89  C         48.9650  -45.3780  -13.1440 C.2   229  SER229      0.2643
     90  O         50.1460  -45.3780  -12.9180 O.2   229  SER229     -0.2714
     91  CB        48.6580  -45.4020  -15.6350 C.3   229  SER229      0.2130
     92  OG        48.2420  -46.1460  -16.7660 O.3   229  SER229     -0.2179
     93  N         48.1090  -44.7410  -12.3560 N.am  230  PHE230     -0.1973
     94  CA        48.5600  -44.0650  -11.1410 C.3   230  PHE230      0.1639
     95  C         48.8980  -45.0150  -10.0090 C.2   230  PHE230      0.2290
     96  O         49.8630  -44.7720   -9.2880 O.2   230  PHE230     -0.2864
     97  CB        47.4940  -43.0840  -10.6150 C.3   230  PHE230      0.0560
     98  CG        47.5370  -41.7200  -11.2430 C.ar  230  PHE230     -0.0200
     99  CD1       48.1520  -41.5200  -12.4640 C.ar  230  PHE230     -0.0042
    100  CD2       46.9410  -40.6410  -10.6060 C.ar  230  PHE230     -0.0042
    101  CE1       48.1680  -40.2540  -13.0430 C.ar  230  PHE230     -0.0003
    102  CE2       46.9320  -39.3860  -11.1840 C.ar  230  PHE230     -0.0003
    103  CZ        47.5650  -39.1850  -12.3930 C.ar  230  PHE230     -0.0000
@<TRIPOS>BOND
     1     7     8    1
     2     7     6    1
     3    47    48    2
     4    47    46    1
     5    45    46    1
     6     6     5    1
     7     2     1    1
     8     2     5    1
     9     2     3    1
    10    13    10    1
    11     9     3   am
    12     9    10    1
    13    29    28    1
    14    29    30    1
    15     3     4    2
    16    28    27    1
    17    10    11    1
    18    11    12    2
    19    11    14   am
    20    27    26    1
    21    26    23    1
    22    14    15    1
    23    36    35    1
    24    15    16    1
    25    23    22    1
    26    23    24    1
    27    22    20   am
    28    16    17    2
    29    24    31   am
    30    24    25    2
    31    31    32    1
    32    35    32    1
    33    35    37    1
    34    18    19    1
    35    32    33    1
    36    20    19    1
    37    20    21    2
    38    33    34    2
    39    33    38   am
    40    38    39    1
    41    49    50    1
    42    53    54    1
    43    53    50    1
    44    65    64    1
    45    56    54   am
    46    64    63    1
    47    54    55    2
    48    50    51    1
    49    39    40    1
    50    39    42    1
    51    40    41    2
    52    43    42    1
    53    42    44    1
    54    52    51    2
    55    63    62    1
    56    51    57   am
    57    62    61    1
    58    92    91    1
    59    57    58    1
    60    61    58    1
    61    91    88    1
    62    58    59    1
    63    88    87    1
    64    88    89    1
    65    59    60    2
    66    87    83   am
    67    81    82    1
    68    83    82    1
    69    83    84    2
    70    89    90    2
    71    89    93   am
    72    82    85    1
    73   101    99   ar
    74   101   103   ar
    75    79    78    1
    76    99    98   ar
    77    78    80    1
    78    78    75    1
    79   103   102   ar
    80    93    94    1
    81    72    71   ar
    82    85    86    1
    83    76    75    1
    84    76    77    2
    85    75    74    1
    86    66    67    1
    87    98    97    1
    88    98   100   ar
    89   102   100   ar
    90    74    68   am
    91    94    97    1
    92    94    95    1
    93    71    73   ar
    94    71    70    1
    95    95    96    2
    96    68    67    1
    97    68    69    2
    98    67    70    1
