@<TRIPOS>MOLECULE
tmp/5hcnA00.pdb
 171 164 0 0 0
SMALL
GASTEIGER

@<TRIPOS>ATOM
      1  N         37.4460   19.4260    9.0650 N.3   130  TYR130     -0.1241
      2  CA        37.3170   19.6090    7.6220 C.3   130  TYR130      0.1605
      3  C         38.6290   19.2530    6.9390 C.2   130  TYR130      0.2264
      4  O         39.5840   20.0460    6.9150 O.2   130  TYR130     -0.2867
      5  CB        36.8840   21.0410    7.2610 C.3   130  TYR130      0.0534
      6  CG        36.5490   21.1700    5.7920 C.ar  130  TYR130     -0.0201
      7  CD1       35.2960   20.8150    5.3170 C.ar  130  TYR130     -0.0009
      8  CD2       37.4880   21.6200    4.8750 C.ar  130  TYR130     -0.0009
      9  CE1       34.9870   20.9070    3.9700 C.ar  130  TYR130      0.0417
     10  CE2       37.1860   21.7180    3.5180 C.ar  130  TYR130      0.0417
     11  CZ        35.9320   21.3590    3.0770 C.ar  130  TYR130      0.1957
     12  OH        35.6090   21.4440    1.7400 O.3   130  TYR130     -0.2866
     13  N         41.3220   18.6250    4.2260 N.3   132  VAL132     -0.1245
     14  CA        41.6610   19.2450    2.9670 C.3   132  VAL132      0.1561
     15  C         42.7650   18.4690    2.2640 C.2   132  VAL132      0.2260
     16  O         43.7390   18.0540    2.8880 O.2   132  VAL132     -0.2867
     17  CB        42.1040   20.7030    3.1830 C.3   132  VAL132      0.0252
     18  CG1       42.7840   21.2470    1.9420 C.3   132  VAL132      0.0019
     19  CG2       40.8970   21.5600    3.5690 C.3   132  VAL132      0.0019
     20  N         45.6080   21.6550   -2.8790 N.3   137  ASN137     -0.1240
     21  CA        44.7690   22.7220   -2.3400 C.3   137  ASN137      0.1653
     22  C         44.7120   23.9670   -3.2240 C.2   137  ASN137      0.2266
     23  O         43.7050   24.6780   -3.2300 O.2   137  ASN137     -0.2867
     24  CB        45.2570   23.1330   -0.9460 C.3   137  ASN137      0.1155
     25  CG        46.4300   24.0930   -1.0010 C.2   137  ASN137      0.2627
     26  OD1       47.4770   23.7800   -1.5770 O.2   137  ASN137     -0.2716
     27  ND2       46.2540   25.2840   -0.4240 N.am  137  ASN137     -0.0877
     28  N         40.3950   24.7530   -4.5480 N.3   143  PHE143     -0.1241
     29  CA        40.3920   25.9070   -3.6670 C.3   143  PHE143      0.1605
     30  C         38.9850   26.5110   -3.5420 C.2   143  PHE143      0.2264
     31  O         38.4970   26.7510   -2.4340 O.2   143  PHE143     -0.2867
     32  CB        41.3630   26.9650   -4.1770 C.3   143  PHE143      0.0534
     33  CG        41.4790   28.1540   -3.2820 C.ar  143  PHE143     -0.0203
     34  CD1       42.2680   28.1000   -2.1440 C.ar  143  PHE143     -0.0042
     35  CD2       40.8110   29.3370   -3.5780 C.ar  143  PHE143     -0.0042
     36  CE1       42.3900   29.1950   -1.3180 C.ar  143  PHE143     -0.0003
     37  CE2       40.9340   30.4320   -2.7530 C.ar  143  PHE143     -0.0003
     38  CZ        41.7230   30.3610   -1.6220 C.ar  143  PHE143     -0.0000
     39  N         36.6160   24.1320   -1.7630 N.3   146  ASN146     -0.1225
     40  CA        36.9440   24.0310   -0.3500 C.3   146  ASN146      0.1785
     41  C         36.5570   25.2820    0.4120 C.2   146  ASN146      0.2597
     42  O         36.0510   25.1910    1.5240 O.2   146  ASN146     -0.2718
     43  CB        38.4410   23.7440   -0.1540 C.3   146  ASN146      0.1169
     44  CG        38.7240   22.2640   -0.0660 C.2   146  ASN146      0.2627
     45  OD1       37.9030   21.4930    0.4280 O.2   146  ASN146     -0.2716
     46  ND2       39.8790   21.8570   -0.5540 N.am  146  ASN146     -0.0877
     47  N         36.7990   26.4490   -0.1730 N.am  147  MET147     -0.1979
     48  CA        36.3620   27.6930    0.4540 C.3   147  MET147      0.1605
     49  C         34.8300   27.7120    0.5700 C.2   147  MET147      0.2287
     50  O         34.2760   27.9700    1.6400 O.2   147  MET147     -0.2864
     51  CB        36.8820   28.9030   -0.3350 C.3   147  MET147      0.0413
     52  CG        38.3730   29.1540   -0.1870 C.3   147  MET147      0.0598
     53  SD        38.8000   29.6880    1.4890 S.3   147  MET147     -0.1393
     54  CE        37.6960   31.0830    1.6280 C.3   147  MET147      0.0692
     55  N         33.5070   24.7700    3.0620 N.3   150  ALA150     -0.1231
     56  CA        33.9160   25.0770    4.4240 C.3   150  ALA150      0.1694
     57  C         33.0940   26.2150    5.0140 C.2   150  ALA150      0.2592
     58  O         32.5600   26.1020    6.1170 O.2   150  ALA150     -0.2718
     59  CB        35.4160   25.4280    4.4570 C.3   150  ALA150      0.0304
     60  N         33.0010   27.3240    4.2890 N.am  151  CYS151     -0.1970
     61  CA        32.2180   28.4490    4.7820 C.3   151  CYS151      0.1712
     62  C         30.7290   28.0960    4.9350 C.2   151  CYS151      0.2296
     63  O         30.0660   28.5810    5.8560 O.2   151  CYS151     -0.2864
     64  CB        32.4120   29.6540    3.8630 C.3   151  CYS151      0.0983
     65  SG        34.0970   30.3630    3.9690 S.3   151  CYS151     -0.0798
     66  N         30.4090   26.1130    8.3130 N.3   154  LEU154     -0.1245
     67  CA        30.5120   27.0930    9.3970 C.3   154  LEU154      0.1561
     68  C         29.2000   27.8510    9.5770 C.2   154  LEU154      0.2260
     69  O         28.7080   28.0250   10.6960 O.2   154  LEU154     -0.2867
     70  CB        31.6430   28.0830    9.1160 C.3   154  LEU154      0.0270
     71  CG        33.0160   27.5880    9.5560 C.3   154  LEU154      0.0019
     72  CD1       34.0840   28.6330    9.2810 C.3   154  LEU154      0.0001
     73  CD2       32.9610   27.2610   11.0320 C.3   154  LEU154      0.0001
     74  N         35.0700   24.5390   14.0280 N.3   161  MET161     -0.1245
     75  CA        35.6630   23.7990   12.9220 C.3   161  MET161      0.1570
     76  C         37.1690   23.8000   12.9820 C.2   161  MET161      0.2261
     77  O         37.7770   24.8310   13.2260 O.2   161  MET161     -0.2867
     78  CB        35.2050   24.3870   11.5910 C.3   161  MET161      0.0387
     79  CG        36.0660   24.0230   10.3970 C.3   161  MET161      0.0595
     80  SD        35.0540   24.1620    8.9290 S.3   161  MET161     -0.1393
     81  CE        36.2010   24.7050    7.7160 C.3   161  MET161      0.0692
     82  N         40.1910   23.1430   10.4680 N.3   163  VAL163     -0.1245
     83  CA        40.5990   22.8620    9.0990 C.3   163  VAL163      0.1561
     84  C         41.8510   21.9950    9.1340 C.2   163  VAL163      0.2260
     85  O         42.8700   22.3680    9.7070 O.2   163  VAL163     -0.2867
     86  CB        40.8470   24.1420    8.2960 C.3   163  VAL163      0.0252
     87  CG1       41.3500   23.7830    6.9060 C.3   163  VAL163      0.0019
     88  CG2       39.5390   24.9700    8.2130 C.3   163  VAL163      0.0019
     89  N         44.6660   20.5170    7.1360 N.3   165  PHE165     -0.1241
     90  CA        45.4960   20.3450    5.9480 C.3   165  PHE165      0.1605
     91  C         46.1770   18.9920    6.0370 C.2   165  PHE165      0.2264
     92  O         47.1920   18.8480    6.6960 O.2   165  PHE165     -0.2867
     93  CB        46.5130   21.4750    5.8020 C.3   165  PHE165      0.0534
     94  CG        45.8880   22.7590    5.3850 C.ar  165  PHE165     -0.0203
     95  CD1       45.2970   22.8680    4.1380 C.ar  165  PHE165     -0.0042
     96  CD2       45.8350   23.8400    6.2520 C.ar  165  PHE165     -0.0042
     97  CE1       44.6840   24.0470    3.7480 C.ar  165  PHE165     -0.0003
     98  CE2       45.2370   25.0280    5.8690 C.ar  165  PHE165     -0.0003
     99  CZ        44.6570   25.1330    4.6140 C.ar  165  PHE165     -0.0000
    100  N         50.1020   28.9770    6.3240 N.3   179  TRP179     -0.1241
    101  CA        48.7570   29.2740    5.8260 C.3   179  TRP179      0.1605
    102  C         48.0760   30.3280    6.6990 C.2   179  TRP179      0.2264
    103  O         47.5650   31.3180    6.1890 O.2   179  TRP179     -0.2867
    104  CB        47.8990   28.0020    5.7740 C.3   179  TRP179      0.0550
    105  CG        46.7180   28.1350    4.8690 C.ar  179  TRP179      0.0003
    106  CD1       46.6400   27.7590    3.5590 C.ar  179  TRP179      0.0946
    107  CD2       45.4490   28.6940    5.2020 C.ar  179  TRP179      0.0152
    108  NE1       45.3970   28.0460    3.0530 N.ar  179  TRP179     -0.2442
    109  CE2       44.6450   28.6290    4.0430 C.ar  179  TRP179      0.0810
    110  CE3       44.9070   29.2520    6.3680 C.ar  179  TRP179      0.0012
    111  CZ2       43.3370   29.0950    4.0130 C.ar  179  TRP179      0.0191
    112  CZ3       43.6050   29.7190    6.3380 C.ar  179  TRP179      0.0001
    113  CH2       42.8340   29.6350    5.1690 C.ar  179  TRP179      0.0015
    114  N         47.0630   34.1650    5.8550 N.3   183  PHE183     -0.1241
    115  CA        45.6550   34.5620    5.9380 C.3   183  PHE183      0.1605
    116  C         45.5300   35.7970    6.8190 C.2   183  PHE183      0.2264
    117  O         44.8510   36.7490    6.4620 O.2   183  PHE183     -0.2867
    118  CB        44.7540   33.4560    6.4840 C.3   183  PHE183      0.0534
    119  CG        43.2880   33.8430    6.5190 C.ar  183  PHE183     -0.0203
    120  CD1       42.7620   34.5530    7.5900 C.ar  183  PHE183     -0.0042
    121  CD2       42.4510   33.5270    5.4650 C.ar  183  PHE183     -0.0042
    122  CE1       41.4180   34.9190    7.6160 C.ar  183  PHE183     -0.0003
    123  CE2       41.0980   33.8940    5.4830 C.ar  183  PHE183     -0.0003
    124  CZ        40.5880   34.5910    6.5610 C.ar  183  PHE183     -0.0000
    125  N         33.2150   39.8200    7.4190 N.3   208  MET208     -0.1230
    126  CA        32.8160   38.4680    7.0610 C.3   208  MET208      0.1702
    127  C         34.0020   37.5180    7.2030 C.2   208  MET208      0.2592
    128  O         33.8770   36.4180    7.7430 O.2   208  MET208     -0.2718
    129  CB        32.2650   38.4240    5.6370 C.3   208  MET208      0.0401
    130  CG        31.7100   37.0420    5.2570 C.3   208  MET208      0.0596
    131  SD        31.2730   36.9200    3.5150 S.3   208  MET208     -0.1393
    132  CE        32.8080   37.3940    2.7280 C.3   208  MET208      0.0692
    133  N         35.1620   37.9590    6.7370 N.am  209  LEU209     -0.1980
    134  CA        36.3810   37.1780    6.8970 C.3   209  LEU209      0.1596
    135  C         36.6710   36.8810    8.3580 C.2   209  LEU209      0.2287
    136  O         36.9850   35.7490    8.7190 O.2   209  LEU209     -0.2864
    137  CB        37.5780   37.9010    6.2940 C.3   209  LEU209      0.0297
    138  CG        38.0990   37.3430    4.9790 C.3   209  LEU209      0.0022
    139  CD1       36.9350   37.0580    4.0550 C.3   209  LEU209      0.0001
    140  CD2       39.0380   38.3710    4.3640 C.3   209  LEU209      0.0001
    141  N         34.1750   34.2250   10.0420 N.3   212  PHE212     -0.1227
    142  CA        34.4910   32.8520    9.6560 C.3   212  PHE212      0.1736
    143  C         35.7740   32.3670   10.3080 C.2   212  PHE212      0.2595
    144  O         35.7890   31.3300   10.9580 O.2   212  PHE212     -0.2718
    145  CB        34.6060   32.7350    8.1390 C.3   212  PHE212      0.0547
    146  CG        33.2790   32.6670    7.4460 C.ar  212  PHE212     -0.0202
    147  CD1       32.2240   31.9700    8.0190 C.ar  212  PHE212     -0.0042
    148  CD2       33.0730   33.3080    6.2370 C.ar  212  PHE212     -0.0042
    149  CE1       31.0030   31.9020    7.3940 C.ar  212  PHE212     -0.0003
    150  CE2       31.8440   33.2510    5.6120 C.ar  212  PHE212     -0.0003
    151  CZ        30.8110   32.5380    6.1870 C.ar  212  PHE212     -0.0000
    152  N         36.8400   33.1380   10.1490 N.am  213  TYR213     -0.1976
    153  CA        38.1430   32.7330   10.6420 C.3   213  TYR213      0.1639
    154  C         38.1390   32.4720   12.1470 C.2   213  TYR213      0.2290
    155  O         38.7820   31.5370   12.6250 O.2   213  TYR213     -0.2864
    156  CB        39.1710   33.7980   10.2900 C.3   213  TYR213      0.0560
    157  CG        40.5960   33.3720   10.5210 C.ar  213  TYR213     -0.0198
    158  CD1       41.1020   32.2150    9.9460 C.ar  213  TYR213     -0.0009
    159  CD2       41.4430   34.1360   11.3020 C.ar  213  TYR213     -0.0009
    160  CE1       42.4160   31.8280   10.1560 C.ar  213  TYR213      0.0417
    161  CE2       42.7690   33.7580   11.5150 C.ar  213  TYR213      0.0417
    162  CZ        43.2460   32.6040   10.9390 C.ar  213  TYR213      0.1957
    163  OH        44.5600   32.2450   11.1580 O.3   213  TYR213     -0.2866
    164  N         37.1250   29.0250   13.5170 N.3   216  LEU216     -0.1245
    165  CA        37.8750   27.8520   13.1180 C.3   216  LEU216      0.1561
    166  C         39.2840   27.8440   13.6760 C.2   216  LEU216      0.2260
    167  O         39.7710   28.8600   14.1710 O.2   216  LEU216     -0.2867
    168  CB        37.9020   27.7330   11.5860 C.3   216  LEU216      0.0270
    169  CG        38.7640   28.6590   10.7270 C.3   216  LEU216      0.0019
    170  CD1       40.1370   28.0950   10.5490 C.3   216  LEU216      0.0001
    171  CD2       38.1320   28.8180    9.3760 C.3   216  LEU216      0.0001
@<TRIPOS>BOND
     1    28    29    1
     2    32    29    1
     3    32    33    1
     4    29    30    1
     5    35    33   ar
     6    35    37   ar
     7    30    31    2
     8    33    34   ar
     9    23    22    2
    10    22    21    1
    11    20    21    1
    12    37    38   ar
    13    21    24    1
    14    34    36   ar
    15    39    40    1
    16    38    36   ar
    17    26    25    2
    18    25    24    1
    19    25    27   am
    20    46    44   am
    21    40    43    1
    22    40    41    1
    23    51    52    1
    24    51    48    1
    25    52    53    1
    26    47    41   am
    27    47    48    1
    28    43    44    1
    29    44    45    2
    30    41    42    2
    31    48    49    1
    32    49    50    2
    33    53    54    1
    34    12    11    1
    35    18    17    1
    36    15    16    2
    37    15    14    1
    38   132   131    1
    39    14    17    1
    40    14    13    1
    41   108   106   ar
    42   108   109   ar
    43    55    56    1
    44    11    10   ar
    45    11     9   ar
    46    17    19    1
    47   131   130    1
    48    10     8   ar
    49   106   105   ar
    50    97    95   ar
    51    97    99   ar
    52    64    65    1
    53    64    61    1
    54     9     7   ar
    55   111   109   ar
    56   111   113   ar
    57   109   107   ar
    58   139   138    1
    59    95    94   ar
    60    60    61    1
    61    60    57   am
    62   140   138    1
    63    56    59    1
    64    56    57    1
    65    99    98   ar
    66    61    62    1
    67   105   107   ar
    68   105   104    1
    69     8     6   ar
    70    62    63    2
    71   138   137    1
    72    57    58    2
    73   113   112   ar
    74   107   110   ar
    75   130   129    1
    76     7     6   ar
    77    94    93    1
    78    94    96   ar
    79   121   123   ar
    80   121   119   ar
    81   123   124   ar
    82   150   151   ar
    83   150   148   ar
    84   129   126    1
    85   104   101    1
    86     6     5    1
    87    93    90    1
    88   101   100    1
    89   101   102    1
    90   114   115    1
    91    98    96   ar
    92   115   118    1
    93   115   116    1
    94    90    91    1
    95    90    89    1
    96    91    92    2
    97   151   149   ar
    98   103   102    2
    99   148   146   ar
   100   137   134    1
   101   112   110   ar
   102   117   116    2
   103   118   119    1
   104   119   120   ar
   105   124   122   ar
   106   133   134    1
   107   133   127   am
   108   134   135    1
   109    87    86    1
   110     4     3    2
   111     3     2    1
   112   126   127    1
   113   126   125    1
   114   127   128    2
   115     5     2    1
   116   149   147   ar
   117   146   147   ar
   118   146   145    1
   119   120   122   ar
   120     2     1    1
   121    81    80    1
   122   145   142    1
   123    88    86    1
   124    86    83    1
   125    66    67    1
   126   135   136    2
   127    80    79    1
   128    83    84    1
   129    83    82    1
   130    70    67    1
   131    70    71    1
   132    84    85    2
   133    72    71    1
   134   171   169    1
   135    67    68    1
   136    71    73    1
   137    68    69    2
   138   142   141    1
   139   142   143    1
   140   158   160   ar
   141   158   157   ar
   142   152   143   am
   143   152   153    1
   144   160   162   ar
   145   156   157    1
   146   156   153    1
   147   143   144    2
   148    79    78    1
   149   157   159   ar
   150   170   169    1
   151   153   154    1
   152   169   168    1
   153   162   163    1
   154   162   161   ar
   155   159   161   ar
   156   168   165    1
   157    78    75    1
   158   154   155    2
   159    75    76    1
   160    75    74    1
   161    76    77    2
   162   165   164    1
   163   165   166    1
   164   166   167    2
