@<TRIPOS>MOLECULE
tmp/5hcnA01.pdb
 110 104 0 0 0
SMALL
GASTEIGER

@<TRIPOS>ATOM
      1  N         36.0700   14.3350   -1.9930 N.3    11  ALA11      -0.1231
      2  CA        36.6320   13.0560   -2.4190 C.3    11  ALA11       0.1694
      3  C         38.1400   13.1550   -2.5550 C.2    11  ALA11       0.2593
      4  O         38.6490   14.0910   -3.1710 O.2    11  ALA11      -0.2718
      5  CB        36.0210   12.6200   -3.7310 C.3    11  ALA11       0.0304
      6  N         38.8510   12.2120   -1.9460 N.am   12  GLY12      -0.1942
      7  CA        40.2970   12.1550   -2.0670 C.3    12  GLY12       0.2014
      8  C         41.0970   12.9940   -1.0830 C.2    12  GLY12       0.2640
      9  O         42.3230   12.9830   -1.1130 O.2    12  GLY12      -0.2714
     10  N         40.4140   13.7160   -0.2040 N.am   13  SER13      -0.1935
     11  CA        41.1000   14.5230    0.7990 C.3    13  SER13       0.2055
     12  C         41.7810   13.6480    1.8420 C.2    13  SER13       0.2644
     13  O         42.6370   14.1150    2.5910 O.2    13  SER13      -0.2714
     14  CB        40.1240   15.4740    1.4820 C.3    13  SER13       0.2130
     15  OG        39.0390   14.7480    2.0310 O.3    13  SER13      -0.2179
     16  N         41.3890   12.3760    1.8850 N.am   14  GLY14      -0.1939
     17  CA        41.9790   11.4100    2.7970 C.3    14  GLY14       0.2014
     18  C         41.2930   11.3200    4.1530 C.2    14  GLY14       0.2639
     19  O         41.9480   11.0910    5.1740 O.2    14  GLY14      -0.2714
     20  N         39.9740   11.4770    4.1770 N.am   15  LYS15      -0.1963
     21  CA        39.2790   11.5380    5.4520 C.3    15  LYS15       0.1728
     22  C         39.1920   10.1570    6.1200 C.2    15  LYS15       0.2617
     23  O         39.2910   10.0490    7.3480 O.2    15  LYS15      -0.2715
     24  CB        37.8890   12.1660    5.2760 C.3    15  LYS15       0.0311
     25  CG        36.8040   11.2380    4.8130 C.3    15  LYS15       0.0038
     26  CD        35.4820   11.9790    4.7460 C.3    15  LYS15       0.0206
     27  CE        35.4930   12.9610    3.6020 C.3    15  LYS15       0.1093
     28  NZ        35.5660   12.2650    2.2760 N.3    15  LYS15      -0.1314
     29  N         39.0430    9.0970    5.3320 N.am   16  THR16      -0.1937
     30  CA        39.0000    7.7620    5.9390 C.3    16  THR16       0.2028
     31  C         40.3820    7.3740    6.5130 C.2    16  THR16       0.2642
     32  O         40.4630    6.8150    7.6130 O.2    16  THR16      -0.2714
     33  CB        38.4900    6.6970    4.9430 C.3    16  THR16       0.1808
     34  OG1       37.1280    7.0090    4.5710 O.3    16  THR16      -0.2208
     35  CG2       38.5200    5.2900    5.5830 C.3    16  THR16       0.0379
     36  N         41.4590    7.7070    5.8020 N.am   17  THR17      -0.1950
     37  CA        42.8170    7.4630    6.3130 C.3    17  THR17       0.1897
     38  C         43.0810    8.3110    7.5610 C.2    17  THR17       0.2313
     39  O         43.6970    7.8470    8.5230 O.2    17  THR17      -0.2863
     40  CB        43.8780    7.7700    5.2540 C.3    17  THR17       0.1794
     41  OG1       43.5400    7.0910    4.0390 O.3    17  THR17      -0.2208
     42  CG2       45.2700    7.3260    5.7210 C.3    17  THR17       0.0378
     43  N         29.2750    6.5770    5.3220 N.3    39  ASP39      -0.1239
     44  CA        29.4450    6.3500    3.8910 C.3    39  ASP39       0.1674
     45  C         28.9120    4.9700    3.5650 C.2    39  ASP39       0.2266
     46  O         29.4610    3.9680    4.0170 O.2    39  ASP39      -0.2867
     47  CB        30.9060    6.4680    3.4630 C.3    39  ASP39       0.1410
     48  CG        31.0850    6.4450    1.9450 C.2    39  ASP39       0.3668
     49  OD1       30.1470    6.0360    1.2220 O.co2  39  ASP39      -0.2456
     50  OD2       32.1810    6.8320    1.4750 O.co2  39  ASP39      -0.2456
     51  N         31.4240    2.5920    1.0280 N.3    42  VAL42      -0.1245
     52  CA        32.7700    2.1220    1.3550 C.3    42  VAL42       0.1561
     53  C         32.8930    0.6130    1.3770 C.2    42  VAL42       0.2260
     54  O         31.9230   -0.1100    1.6010 O.2    42  VAL42      -0.2867
     55  CB        33.2630    2.6300    2.7230 C.3    42  VAL42       0.0252
     56  CG1       33.4050    4.1210    2.7110 C.3    42  VAL42       0.0019
     57  CG2       32.3390    2.1760    3.8360 C.3    42  VAL42       0.0019
     58  N         32.2100   10.6230    0.6780 N.3   102  GLY102     -0.1225
     59  CA        32.9970   11.4900   -0.1770 C.3   102  GLY102      0.1811
     60  C         32.1890   12.5280   -0.9260 C.2   102  GLY102      0.2280
     61  O         32.5610   13.7020   -0.9610 O.2   102  GLY102     -0.2866
     62  N         45.5780   17.9970    5.3850 N.3   166  ASN166     -0.1225
     63  CA        46.0540   16.6200    5.4320 C.3   166  ASN166      0.1785
     64  C         47.2450   16.3160    4.5100 C.2   166  ASN166      0.2597
     65  O         47.5550   17.0960    3.6200 O.2   166  ASN166     -0.2718
     66  CB        44.8900   15.6930    5.0800 C.3   166  ASN166      0.1169
     67  CG        45.1730   14.2350    5.4050 C.2   166  ASN166      0.2627
     68  OD1       46.0420   13.9160    6.2240 O.2   166  ASN166     -0.2716
     69  ND2       44.4260   13.3360    4.7620 N.am  166  ASN166     -0.0877
     70  N         47.8860   15.1640    4.7190 N.am  167  LYS167     -0.1980
     71  CA        49.0340   14.6980    3.9220 C.3   167  LYS167      0.1596
     72  C         50.2510   15.6500    3.9350 C.2   167  LYS167      0.2287
     73  O         50.8550   15.8810    2.8800 O.2   167  LYS167     -0.2864
     74  CB        48.6300   14.4550    2.4530 C.3   167  LYS167      0.0298
     75  CG        47.2040   14.0010    2.2270 C.3   167  LYS167      0.0038
     76  CD        46.9010   13.7840    0.7380 C.3   167  LYS167      0.0206
     77  CE        45.4940   13.2080    0.5400 C.3   167  LYS167      0.1093
     78  NZ        45.1210   13.0570   -0.9010 N.3   167  LYS167     -0.1314
     79  N         53.0580   15.0490    4.9500 N.3   169  ASP169     -0.1225
     80  CA        54.2690   14.2850    4.6680 C.3   169  ASP169      0.1805
     81  C         54.7850   14.5140    3.2410 C.2   169  ASP169      0.2597
     82  O         55.9710   14.2940    2.9730 O.2   169  ASP169     -0.2718
     83  CB        54.0300   12.7950    4.9010 C.3   169  ASP169      0.1424
     84  CG        52.8610   12.2650    4.1000 C.2   169  ASP169      0.3668
     85  OD1       51.7150   12.3300    4.6030 O.co2 169  ASP169     -0.2456
     86  OD2       53.0890   11.7990    2.9590 O.co2 169  ASP169     -0.2456
     87  N         53.9140   14.9520    2.3270 N.am  170  VAL170     -0.1980
     88  CA        54.3780   15.3220    0.9850 C.3   170  VAL170      0.1595
     89  C         54.1610   16.8020    0.6690 C.2   170  VAL170      0.2287
     90  O         54.1860   17.2070   -0.4950 O.2   170  VAL170     -0.2864
     91  CB        53.6990   14.4910   -0.1200 C.3   170  VAL170      0.0276
     92  CG1       54.0350   12.9950    0.0280 C.3   170  VAL170      0.0022
     93  CG2       52.1880   14.7210   -0.1130 C.3   170  VAL170      0.0022
     94  N         48.2910   11.7470    7.7850 N.3   223  SER223     -0.1202
     95  CA        47.5580   10.5580    8.2390 C.3   223  SER223      0.2020
     96  C         48.4030    9.2880    8.1760 C.2   223  SER223      0.2618
     97  O         48.1600    8.3340    8.9040 O.2   223  SER223     -0.2717
     98  CB        46.2950   10.3760    7.4150 C.3   223  SER223      0.2103
     99  OG        45.4280   11.4710    7.6160 O.3   223  SER223     -0.2182
    100  N         49.3860    9.2870    7.2890 N.am  224  PHE224     -0.1975
    101  CA        50.3570    8.2100    7.2100 C.3   224  PHE224      0.1639
    102  C         51.2310    8.1100    8.4630 C.2   224  PHE224      0.2290
    103  O         51.3350    7.0430    9.0810 O.2   224  PHE224     -0.2864
    104  CB        51.2510    8.3980    5.9850 C.3   224  PHE224      0.0560
    105  CG        50.5820    8.0620    4.6870 C.ar  224  PHE224     -0.0200
    106  CD1       49.2990    7.5470    4.6640 C.ar  224  PHE224     -0.0042
    107  CD2       51.2490    8.2490    3.4900 C.ar  224  PHE224     -0.0042
    108  CE1       48.6910    7.2260    3.4710 C.ar  224  PHE224     -0.0003
    109  CE2       50.6470    7.9350    2.2980 C.ar  224  PHE224     -0.0003
    110  CZ        49.3630    7.4210    2.2880 C.ar  224  PHE224     -0.0000
@<TRIPOS>BOND
     1     5     2    1
     2     4     3    2
     3     3     2    1
     4     3     6   am
     5     2     1    1
     6     7     6    1
     7     7     8    1
     8     9     8    2
     9     8    10   am
    10    61    60    2
    11    60    59    1
    12    78    77    1
    13    90    89    2
    14    10    11    1
    15    59    58    1
    16    91    93    1
    17    91    92    1
    18    91    88    1
    19    77    76    1
    20    89    88    1
    21    76    75    1
    22    11    14    1
    23    11    12    1
    24    88    87    1
    25    51    52    1
    26    49    48   ar
    27    52    53    1
    28    52    55    1
    29    53    54    2
    30    50    48   ar
    31    14    15    1
    32    12    16   am
    33    12    13    2
    34    16    17    1
    35    48    47    1
    36    75    74    1
    37    28    27    1
    38   110   109   ar
    39   110   108   ar
    40   109   107   ar
    41    87    81   am
    42    74    71    1
    43    56    55    1
    44    55    57    1
    45    17    18    1
    46    73    72    2
    47    86    84   ar
    48    82    81    2
    49    81    80    1
    50    47    44    1
    51   108   106   ar
    52   107   105   ar
    53    45    44    1
    54    45    46    2
    55    27    26    1
    56    65    64    2
    57    44    43    1
    58    71    72    1
    59    71    70    1
    60    41    40    1
    61    84    85   ar
    62    84    83    1
    63    18    20   am
    64    18    19    2
    65    20    21    1
    66    64    70   am
    67    64    63    1
    68    34    33    1
    69   106   105   ar
    70    80    83    1
    71    80    79    1
    72   105   104    1
    73    26    25    1
    74    69    67   am
    75    25    24    1
    76    33    35    1
    77    33    30    1
    78    66    67    1
    79    66    63    1
    80    40    42    1
    81    40    37    1
    82    24    21    1
    83    29    30    1
    84    29    22   am
    85    62    63    1
    86    67    68    2
    87    21    22    1
    88    36    37    1
    89    36    31   am
    90    30    31    1
    91   104   101    1
    92    22    23    2
    93    37    38    1
    94    31    32    2
    95   101   100    1
    96   101   102    1
    97   100    96   am
    98    98    99    1
    99    98    95    1
   100    38    39    2
   101    94    95    1
   102    96    95    1
   103    96    97    2
   104   102   103    2
