@<TRIPOS>MOLECULE
tmp/5hcoA00.pdb
 110 101 0 0 0
SMALL
GASTEIGER

@<TRIPOS>ATOM
      1  N          1.5060   -6.4450   11.2860 N.3    33  ASP33      -0.1239
      2  CA         1.6040   -5.5140   10.1780 C.3    33  ASP33       0.1674
      3  C          2.9310   -4.7720   10.3120 C.2    33  ASP33       0.2266
      4  O          3.0910   -3.9210   11.1990 O.2    33  ASP33      -0.2867
      5  CB         0.4000   -4.5680   10.2670 C.3    33  ASP33       0.1410
      6  CG         0.2770   -3.6080    9.1140 C.2    33  ASP33       0.3668
      7  OD1        1.2040   -3.4930    8.2800 O.co2  33  ASP33      -0.2456
      8  OD2       -0.8030   -2.9490    9.0720 O.co2  33  ASP33      -0.2456
      9  N          5.4850   -2.1040    9.7560 N.3    35  ASP35      -0.1239
     10  CA         5.1310   -0.7210    9.5120 C.3    35  ASP35       0.1674
     11  C          6.3600    0.1760    9.5290 C.2    35  ASP35       0.2266
     12  O          6.8110    0.5930   10.5960 O.2    35  ASP35      -0.2867
     13  CB         4.1400   -0.2810   10.5920 C.3    35  ASP35       0.1410
     14  CG         3.6640    1.1400   10.4040 C.2    35  ASP35       0.3668
     15  OD1        3.9650    1.7330    9.3510 O.co2  35  ASP35      -0.2456
     16  OD2        2.9630    1.6630   11.2970 O.co2  35  ASP35      -0.2456
     17  N          6.4600    3.1540    8.8530 N.3    37  GLY37      -0.1225
     18  CA         6.0480    4.4820    9.2810 C.3    37  GLY37       0.1811
     19  C          5.8120    4.6640   10.7810 C.2    37  GLY37       0.2280
     20  O          5.3250    5.7070   11.1960 O.2    37  GLY37      -0.2866
     21  N         -2.0890    7.0760   14.7440 N.3    79  TYR79      -0.1227
     22  CA        -1.6150    7.0080   13.3750 C.3    79  TYR79       0.1736
     23  C         -2.3430    8.0450   12.5270 C.2    79  TYR79       0.2596
     24  O         -3.3450    8.6160   12.9580 O.2    79  TYR79      -0.2718
     25  CB        -1.8260    5.5850   12.8410 C.3    79  TYR79       0.0548
     26  CG        -1.1100    4.5180   13.6660 C.ar   79  TYR79      -0.0200
     27  CD1       -1.7550    3.8480   14.6980 C.ar   79  TYR79      -0.0009
     28  CD2        0.2120    4.2000   13.4130 C.ar   79  TYR79      -0.0009
     29  CE1       -1.1040    2.8700   15.4510 C.ar   79  TYR79       0.0417
     30  CE2        0.8840    3.2240   14.1680 C.ar   79  TYR79       0.0417
     31  CZ         0.2170    2.5770   15.2000 C.ar   79  TYR79       0.1957
     32  OH         0.8500    1.5990   15.9500 O.3    79  TYR79      -0.2866
     33  N         -1.8360    8.2770   11.3210 N.am   80  GLY80      -0.1942
     34  CA        -2.3310    9.3430   10.4660 C.3    80  GLY80       0.2014
     35  C         -3.7810    9.1930   10.0500 C.2    80  GLY80       0.2638
     36  O         -4.4310   10.1790    9.6930 O.2    80  GLY80      -0.2714
     37  N         -4.2920    7.9660   10.0890 N.am   81  ASP81      -0.1971
     38  CA        -5.6750    7.6960    9.7040 C.3    81  ASP81       0.1709
     39  C         -6.6430    7.9320   10.8560 C.2    81  ASP81       0.2293
     40  O         -7.8540    7.7910   10.6850 O.2    81  ASP81      -0.2864
     41  CB        -5.8260    6.2510    9.2370 C.3    81  ASP81       0.1436
     42  CG        -5.6990    5.2620   10.3780 C.2    81  ASP81       0.3671
     43  OD1       -4.9280    5.5380   11.3130 O.co2  81  ASP81      -0.2456
     44  OD2       -6.3640    4.2060   10.3520 O.co2  81  ASP81      -0.2456
     45  N         -6.4250    6.1400   13.7190 N.3    83  SER83      -0.1217
     46  CA        -6.4080    4.9440   14.5550 C.3    83  SER83       0.1889
     47  C         -5.4770    5.1560   15.7440 C.2    83  SER83       0.2288
     48  O         -4.5820    6.0000   15.6980 O.2    83  SER83      -0.2866
     49  CB        -5.9520    3.7260   13.7450 C.3    83  SER83       0.2089
     50  OG        -6.8280    3.4650   12.6590 O.3    83  SER83      -0.2183
     51  N        -10.8980    0.5900   14.2920 N.3   115  SER115     -0.1202
     52  CA       -10.2470    0.1520   13.0630 C.3   115  SER115      0.2020
     53  C         -9.4480   -1.1290   13.3050 C.2   115  SER115      0.2618
     54  O         -9.4960   -2.0650   12.5090 O.2   115  SER115     -0.2717
     55  CB        -9.3330    1.2580   12.5390 C.3   115  SER115      0.2103
     56  OG        -8.4830    1.7320   13.5670 O.3   115  SER115     -0.2182
     57  N         -8.7320   -1.1780   14.4210 N.am  116  PHE116     -0.1975
     58  CA        -7.9440   -2.3590   14.7560 C.3   116  PHE116      0.1639
     59  C         -8.8570   -3.5380   15.1290 C.2   116  PHE116      0.2290
     60  O         -8.6590   -4.6610   14.6530 O.2   116  PHE116     -0.2864
     61  CB        -6.9360   -2.0550   15.8680 C.3   116  PHE116      0.0560
     62  CG        -5.8110   -1.1450   15.4340 C.ar  116  PHE116     -0.0200
     63  CD1       -4.9250   -1.5310   14.4350 C.ar  116  PHE116     -0.0042
     64  CD2       -5.6600    0.1120   16.0010 C.ar  116  PHE116     -0.0042
     65  CE1       -3.8980   -0.6910   14.0250 C.ar  116  PHE116     -0.0003
     66  CE2       -4.6150    0.9400   15.6030 C.ar  116  PHE116     -0.0003
     67  CZ        -3.7490    0.5470   14.6060 C.ar  116  PHE116     -0.0000
     68  N        -10.1990   -5.1960   12.0520 N.3   119  ASP119     -0.1239
     69  CA        -9.2400   -5.9060   11.2130 C.3   119  ASP119      0.1674
     70  C         -8.8540   -7.2190   11.8960 C.2   119  ASP119      0.2266
     71  O         -7.8310   -7.3100   12.5690 O.2   119  ASP119     -0.2867
     72  CB        -8.0030   -5.0520   10.9410 C.3   119  ASP119      0.1410
     73  CG        -8.2860   -3.8660   10.0330 C.2   119  ASP119      0.3668
     74  OD1       -9.3550   -3.8520    9.3770 O.co2 119  ASP119     -0.2456
     75  OD2       -7.4230   -2.9500    9.9740 O.co2 119  ASP119     -0.2456
     76  N         -5.1930   -8.7370   11.6250 N.3   122  ILE122     -0.1245
     77  CA        -3.9990   -8.0350   12.1020 C.3   122  ILE122      0.1561
     78  C         -3.9360   -8.1500   13.6280 C.2   122  ILE122      0.2260
     79  O         -4.7990   -7.6290   14.3430 O.2   122  ILE122     -0.2867
     80  CB        -4.0050   -6.5680   11.6330 C.3   122  ILE122      0.0252
     81  CG1       -3.8780   -6.5130   10.1050 C.3   122  ILE122      0.0019
     82  CG2       -2.8850   -5.7760   12.3070 C.3   122  ILE122      0.0019
     83  CD1       -4.0420   -5.1250    9.5170 C.3   122  ILE122      0.0001
     84  N          1.1470   -4.5430   15.3190 N.3   125  LEU125     -0.1245
     85  CA         2.0580   -3.8490   14.4160 C.3   125  LEU125      0.1561
     86  C          3.4940   -4.0790   14.8560 C.2   125  LEU125      0.2260
     87  O          3.7710   -4.1830   16.0530 O.2   125  LEU125     -0.2867
     88  CB         1.7620   -2.3330   14.3560 C.3   125  LEU125      0.0270
     89  CG         0.7970   -1.8810   13.2350 C.3   125  LEU125      0.0019
     90  CD1       -0.5700   -2.5260   13.3990 C.3   125  LEU125      0.0001
     91  CD2        0.6670   -0.3500   13.2020 C.3   125  LEU125      0.0001
     92  N          6.3250    4.2200    3.6450 N.3   219  ASP219     -0.1239
     93  CA         5.4850    3.7010    4.7300 C.3   219  ASP219      0.1674
     94  C          4.7440    2.4340    4.3120 C.2   219  ASP219      0.2266
     95  O          3.6760    2.4930    3.6920 O.2   219  ASP219     -0.2867
     96  CB         4.4710    4.7500    5.1920 C.3   219  ASP219      0.1410
     97  CG         3.6770    4.2980    6.4070 C.2   219  ASP219      0.3668
     98  OD1        2.7520    5.0210    6.8410 O.co2 219  ASP219     -0.2456
     99  OD2        3.9770    3.2110    6.9370 O.co2 219  ASP219     -0.2456
    100  N          3.0930    0.6220    6.1680 N.3   221  GLY221     -0.1210
    101  CA         1.8470    0.5630    6.9070 C.3   221  GLY221      0.1956
    102  C          0.7220    1.4390    6.3910 C.2   221  GLY221      0.2612
    103  O         -0.3540    1.4350    6.9750 O.2   221  GLY221     -0.2717
    104  N          0.9540    2.1740    5.3050 N.am  222  THR222     -0.1952
    105  CA        -0.0960    2.9350    4.6280 C.3   222  THR222      0.1897
    106  C         -0.4320    2.2250    3.3200 C.2   222  THR222      0.2313
    107  O          0.4660    1.8280    2.5810 O.2   222  THR222     -0.2863
    108  CB         0.3650    4.3900    4.3490 C.3   222  THR222      0.1794
    109  OG1        0.4260    5.1080    5.5760 O.3   222  THR222     -0.2208
    110  CG2       -0.6100    5.1400    3.4590 C.3   222  THR222      0.0378
@<TRIPOS>BOND
     1   107   106    2
     2   106   105    1
     3   110   108    1
     4    92    93    1
     5    95    94    2
     6    94    93    1
     7   108   105    1
     8   108   109    1
     9   105   104    1
    10    93    96    1
    11    96    97    1
    12   104   102   am
    13   100   101    1
    14   102   101    1
    15   102   103    2
    16    97    98   ar
    17    97    99   ar
    18     7     6   ar
    19    17    18    1
    20     8     6   ar
    21     6     5    1
    22    41    38    1
    23    41    42    1
    24    18    19    1
    25    15    14   ar
    26    74    73   ar
    27    10    11    1
    28    10     9    1
    29    10    13    1
    30    83    81    1
    31    11    12    2
    32    36    35    2
    33    38    37    1
    34    38    39    1
    35    75    73   ar
    36    73    72    1
    37    35    37   am
    38    35    34    1
    39    81    80    1
    40     2     5    1
    41     2     3    1
    42     2     1    1
    43     3     4    2
    44    44    42   ar
    45    42    43   ar
    46    14    13    1
    47    14    16   ar
    48    34    33    1
    49    40    39    2
    50    19    20    2
    51    72    69    1
    52    69    70    1
    53    69    68    1
    54    33    23   am
    55    76    77    1
    56    80    77    1
    57    80    82    1
    58    70    71    2
    59    77    78    1
    60    54    53    2
    61    23    24    2
    62    23    22    1
    63    55    52    1
    64    55    56    1
    65    50    49    1
    66    25    22    1
    67    25    26    1
    68    52    53    1
    69    52    51    1
    70    91    89    1
    71    89    90    1
    72    89    88    1
    73    53    57   am
    74    22    21    1
    75    28    26   ar
    76    28    30   ar
    77    78    79    2
    78    26    27   ar
    79    45    46    1
    80    49    46    1
    81    65    63   ar
    82    65    67   ar
    83    30    31   ar
    84    88    85    1
    85    85    86    1
    86    85    84    1
    87    57    58    1
    88    63    62   ar
    89    46    47    1
    90    67    66   ar
    91    60    59    2
    92    27    29   ar
    93    58    59    1
    94    58    61    1
    95    86    87    2
    96    31    29   ar
    97    31    32    1
    98    62    61    1
    99    62    64   ar
   100    66    64   ar
   101    48    47    2
