@<TRIPOS>MOLECULE
tmp/5hctA00.pdb
 143 131 0 0 0
SMALL
GASTEIGER

@<TRIPOS>ATOM
      1  N         24.6660   -2.8860   53.3720 N.3    16  ALA16      -0.1245
      2  CA        25.8450   -2.9410   54.2410 C.3    16  ALA16       0.1562
      3  C         26.4560   -4.3160   54.0570 C.2    16  ALA16       0.2260
      4  O         25.8530   -5.1840   53.4200 O.2    16  ALA16      -0.2867
      5  CB        25.4770   -2.7140   55.7130 C.3    16  ALA16       0.0290
      6  N         29.7000   -5.0330   61.2010 N.3    33  ASP33      -0.1239
      7  CA        29.8030   -4.1220   60.0750 C.3    33  ASP33       0.1674
      8  C         31.1250   -3.3690   60.2180 C.2    33  ASP33       0.2266
      9  O         31.2730   -2.5080   61.0880 O.2    33  ASP33      -0.2867
     10  CB        28.5960   -3.1770   60.1420 C.3    33  ASP33       0.1410
     11  CG        28.4810   -2.2510   58.9590 C.2    33  ASP33       0.3668
     12  OD1       29.4450   -2.1030   58.1890 O.co2  33  ASP33      -0.2456
     13  OD2       27.3870   -1.6410   58.8270 O.co2  33  ASP33      -0.2456
     14  N         33.5850   -0.6410   59.6430 N.3    35  ASP35      -0.1239
     15  CA        33.2350    0.7450   59.3670 C.3    35  ASP35       0.1674
     16  C         34.4780    1.6200   59.4050 C.2    35  ASP35       0.2266
     17  O         34.9390    2.0110   60.4740 O.2    35  ASP35      -0.2867
     18  CB        32.2410    1.2150   60.4300 C.3    35  ASP35       0.1410
     19  CG        31.7800    2.6350   60.2240 C.2    35  ASP35       0.3668
     20  OD1       32.0000    3.1560   59.1250 O.co2  35  ASP35      -0.2456
     21  OD2       31.2090    3.2300   61.1680 O.co2  35  ASP35      -0.2456
     22  N         34.5760    4.5780   58.7430 N.3    37  GLY37      -0.1225
     23  CA        34.1150    5.8880   59.1700 C.3    37  GLY37       0.1811
     24  C         33.9420    6.0960   60.6760 C.2    37  GLY37       0.2280
     25  O         33.5190    7.1690   61.1040 O.2    37  GLY37      -0.2866
     26  N         26.1060    8.5590   65.2110 N.3    79  TYR79      -0.1227
     27  CA        26.5870    8.5390   63.8400 C.3    79  TYR79       0.1736
     28  C         25.9480    9.6690   63.0420 C.2    79  TYR79       0.2596
     29  O         24.9040   10.2070   63.4270 O.2    79  TYR79      -0.2718
     30  CB        26.3190    7.1650   63.2090 C.3    79  TYR79       0.0548
     31  CG        27.0560    6.0360   63.9160 C.ar   79  TYR79      -0.0200
     32  CD1       26.4080    5.2130   64.8290 C.ar   79  TYR79      -0.0009
     33  CD2       28.4060    5.8070   63.6760 C.ar   79  TYR79      -0.0009
     34  CE1       27.0850    4.1930   65.4870 C.ar   79  TYR79       0.0417
     35  CE2       29.0940    4.7810   64.3230 C.ar   79  TYR79       0.0417
     36  CZ        28.4250    3.9790   65.2280 C.ar   79  TYR79       0.1957
     37  OH        29.0860    2.9680   65.8900 O.3    79  TYR79      -0.2866
     38  N         26.5930   10.0370   61.9430 N.am   80  GLY80      -0.1942
     39  CA        26.1570   11.1650   61.1370 C.3    80  GLY80       0.2014
     40  C         24.7100   11.0790   60.6920 C.2    80  GLY80       0.2638
     41  O         24.0430   12.1050   60.5320 O.2    80  GLY80      -0.2714
     42  N         24.2220    9.8570   60.4980 N.am   81  ASP81      -0.1971
     43  CA        22.8580    9.6390   60.0170 C.3    81  ASP81       0.1709
     44  C         21.8040    9.8390   61.1120 C.2    81  ASP81       0.2293
     45  O         20.6240    9.9880   60.8140 O.2    81  ASP81      -0.2864
     46  CB        22.7230    8.2250   59.4450 C.3    81  ASP81       0.1436
     47  CG        22.7950    7.1580   60.5140 C.2    81  ASP81       0.3671
     48  OD1       23.5560    7.3400   61.4860 O.co2  81  ASP81      -0.2456
     49  OD2       22.0870    6.1410   60.3860 O.co2  81  ASP81      -0.2456
     50  N         21.7560    7.6630   63.9170 N.3    83  SER83      -0.1217
     51  CA        21.7490    6.4340   64.6990 C.3    83  SER83       0.1889
     52  C         22.6530    6.6010   65.9080 C.2    83  SER83       0.2288
     53  O         23.4890    7.5030   65.9350 O.2    83  SER83      -0.2866
     54  CB        22.2390    5.2640   63.8480 C.3    83  SER83       0.2089
     55  OG        21.4330    5.1250   62.6960 O.3    83  SER83      -0.2183
     56  N         17.2450    1.9810   64.3560 N.3   115  SER115     -0.1202
     57  CA        17.8370    1.5090   63.1020 C.3   115  SER115      0.2020
     58  C         18.6800    0.2490   63.3270 C.2   115  SER115      0.2618
     59  O         18.6660   -0.6730   62.5070 O.2   115  SER115     -0.2717
     60  CB        18.6790    2.6000   62.4570 C.3   115  SER115      0.2103
     61  OG        19.5470    3.1950   63.4030 O.3   115  SER115     -0.2182
     62  N         19.4170    0.2050   64.4390 N.am  116  PHE116     -0.1975
     63  CA        20.2190   -0.9700   64.7530 C.3   116  PHE116      0.1639
     64  C         19.3220   -2.1370   65.1520 C.2   116  PHE116      0.2290
     65  O         19.5260   -3.2550   64.6890 O.2   116  PHE116     -0.2864
     66  CB        21.2520   -0.6570   65.8350 C.3   116  PHE116      0.0560
     67  CG        22.3550    0.2570   65.3670 C.ar  116  PHE116     -0.0200
     68  CD1       23.1810   -0.1020   64.3150 C.ar  116  PHE116     -0.0042
     69  CD2       22.5500    1.4870   65.9710 C.ar  116  PHE116     -0.0042
     70  CE1       24.1870    0.7500   63.8840 C.ar  116  PHE116     -0.0003
     71  CE2       23.5640    2.3340   65.5460 C.ar  116  PHE116     -0.0003
     72  CZ        24.3660    1.9690   64.4950 C.ar  116  PHE116     -0.0000
     73  N         17.9270   -3.7620   62.0690 N.3   119  ASP119     -0.1239
     74  CA        18.8890   -4.4660   61.2140 C.3   119  ASP119      0.1674
     75  C         19.2570   -5.8030   61.8910 C.2   119  ASP119      0.2266
     76  O         20.2640   -5.8780   62.5870 O.2   119  ASP119     -0.2867
     77  CB        20.1860   -3.6500   61.0220 C.3   119  ASP119      0.1410
     78  CG        20.0240   -2.4130   60.1280 C.2   119  ASP119      0.3668
     79  OD1       19.0450   -2.3250   59.3630 O.co2 119  ASP119     -0.2456
     80  OD2       20.9200   -1.5250   60.1720 O.co2 119  ASP119     -0.2456
     81  N         22.9640   -7.3090   61.5740 N.3   122  ILE122     -0.1245
     82  CA        24.1710   -6.6250   62.0470 C.3   122  ILE122      0.1561
     83  C         24.2570   -6.7390   63.5620 C.2   122  ILE122      0.2260
     84  O         23.4090   -6.2120   64.2820 O.2   122  ILE122     -0.2867
     85  CB        24.1820   -5.1540   61.5850 C.3   122  ILE122      0.0252
     86  CG1       24.3290   -5.0960   60.0610 C.3   122  ILE122      0.0019
     87  CG2       25.3230   -4.3780   62.2380 C.3   122  ILE122      0.0019
     88  CD1       24.2280   -3.6890   59.4770 C.3   122  ILE122      0.0001
     89  N         29.3140   -3.0870   65.2610 N.3   125  LEU125     -0.1245
     90  CA        30.2060   -2.4160   64.3200 C.3   125  LEU125      0.1561
     91  C         31.6470   -2.6250   64.7590 C.2   125  LEU125      0.2260
     92  O         31.9230   -2.7040   65.9520 O.2   125  LEU125     -0.2867
     93  CB        29.9160   -0.8980   64.2540 C.3   125  LEU125      0.0270
     94  CG        28.9640   -0.4220   63.1470 C.3   125  LEU125      0.0019
     95  CD1       27.5870   -1.0440   63.3070 C.3   125  LEU125      0.0001
     96  CD2       28.8740    1.1090   63.1020 C.3   125  LEU125      0.0001
     97  N         34.5380    5.5780   53.4210 N.3   219  ASP219     -0.1239
     98  CA        33.6900    5.1040   54.5150 C.3   219  ASP219      0.1674
     99  C         32.9300    3.8300   54.1310 C.2   219  ASP219      0.2266
    100  O         31.8610    3.8670   53.5120 O.2   219  ASP219     -0.2867
    101  CB        32.6980    6.2020   54.9130 C.3   219  ASP219      0.1410
    102  CG        31.8750    5.8220   56.1270 C.2   219  ASP219      0.3668
    103  OD1       31.0120    6.6260   56.5430 O.co2 219  ASP219     -0.2456
    104  OD2       32.0820    4.7210   56.6690 O.co2 219  ASP219     -0.2456
    105  N         31.2790    2.0220   56.0080 N.3   221  GLY221     -0.1210
    106  CA        30.0480    1.9400   56.7720 C.3   221  GLY221      0.1956
    107  C         28.8980    2.8010   56.2680 C.2   221  GLY221      0.2612
    108  O         27.8470    2.8370   56.9030 O.2   221  GLY221     -0.2717
    109  N         29.0940    3.4870   55.1420 N.am  222  THR222     -0.1952
    110  CA        28.0370    4.2430   54.4670 C.3   222  THR222      0.1897
    111  C         27.7010    3.5530   53.1540 C.2   222  THR222      0.2313
    112  O         28.6010    3.1400   52.4080 O.2   222  THR222     -0.2863
    113  CB        28.5000    5.6940   54.2140 C.3   222  THR222      0.1794
    114  OG1       28.5700    6.3640   55.4720 O.3   222  THR222     -0.2208
    115  CG2       27.5390    6.4550   53.3030 C.3   222  THR222      0.0378
    116  N         28.0820   10.1660   48.4210 N.3   226  TYR226     -0.1241
    117  CA        27.5620   11.5040   48.6820 C.3   226  TYR226      0.1605
    118  C         28.5960   12.5330   48.2370 C.2   226  TYR226      0.2264
    119  O         29.7170   12.5660   48.7620 O.2   226  TYR226     -0.2867
    120  CB        27.2560   11.6930   50.1670 C.3   226  TYR226      0.0534
    121  CG        26.1380   10.8120   50.6700 C.ar  226  TYR226     -0.0201
    122  CD1       24.8150   11.2360   50.6190 C.ar  226  TYR226     -0.0009
    123  CD2       26.3960    9.5430   51.1680 C.ar  226  TYR226     -0.0009
    124  CE1       23.7900   10.4320   51.0640 C.ar  226  TYR226      0.0417
    125  CE2       25.3780    8.7330   51.6150 C.ar  226  TYR226      0.0417
    126  CZ        24.0760    9.1690   51.5590 C.ar  226  TYR226      0.1957
    127  OH        23.0780    8.3370   52.0070 O.3   226  TYR226     -0.2866
    128  N         25.2820   17.3410   54.9540 N.3   300  ILE300     -0.1245
    129  CA        26.0980   16.4030   55.7290 C.3   300  ILE300      0.1561
    130  C         27.3190   17.0950   56.3080 C.2   300  ILE300      0.2260
    131  O         27.7180   16.8100   57.4370 O.2   300  ILE300     -0.2867
    132  CB        26.6020   15.2120   54.8790 C.3   300  ILE300      0.0252
    133  CG1       25.4190   14.4350   54.3110 C.3   300  ILE300      0.0019
    134  CG2       27.4730   14.2800   55.7290 C.3   300  ILE300      0.0019
    135  CD1       25.8020   13.2060   53.4770 C.3   300  ILE300      0.0001
    136  N         31.2360   11.8210   51.0940 N.3   304  ILE304     -0.1245
    137  CA        31.4250   10.4500   51.5700 C.3   304  ILE304      0.1561
    138  C         31.5170    9.4760   50.4020 C.2   304  ILE304      0.2260
    139  O         30.5500    9.2800   49.6600 O.2   304  ILE304     -0.2867
    140  CB        30.2990    9.9920   52.5390 C.3   304  ILE304      0.0252
    141  CG1       30.0810   10.9700   53.6970 C.3   304  ILE304      0.0019
    142  CG2       30.6490    8.6120   53.0900 C.3   304  ILE304      0.0019
    143  CD1       28.8620   10.6340   54.5370 C.3   304  ILE304      0.0001
@<TRIPOS>BOND
     1   118   117    1
     2   118   119    2
     3   116   117    1
     4   117   120    1
     5   139   138    2
     6   120   121    1
     7   138   137    1
     8   122   121   ar
     9   122   124   ar
    10   121   123   ar
    11   124   126   ar
    12   136   137    1
    13   123   125   ar
    14   126   125   ar
    15   126   127    1
    16   137   140    1
    17   112   111    2
    18   140   142    1
    19   140   141    1
    20   111   110    1
    21   115   113    1
    22     1     2    1
    23     4     3    2
    24    97    98    1
    25   135   133    1
    26   100    99    2
    27   141   143    1
    28     3     2    1
    29    99    98    1
    30   113   110    1
    31   113   114    1
    32     2     5    1
    33   133   132    1
    34   110   109    1
    35    98   101    1
    36   132   134    1
    37   132   129    1
    38   101   102    1
    39   128   129    1
    40   109   107   am
    41   129   130    1
    42   105   106    1
    43   102   103   ar
    44   102   104   ar
    45   107   106    1
    46   107   108    2
    47   130   131    2
    48    12    11   ar
    49    22    23    1
    50    13    11   ar
    51    11    10    1
    52    20    19   ar
    53    23    24    1
    54    79    78   ar
    55    15    16    1
    56    15    14    1
    57    15    18    1
    58    16    17    2
    59    46    43    1
    60    46    47    1
    61    88    86    1
    62    43    42    1
    63    43    44    1
    64    86    85    1
    65     7    10    1
    66     7     8    1
    67     7     6    1
    68    78    80   ar
    69    78    77    1
    70     8     9    2
    71    19    18    1
    72    19    21   ar
    73    49    47   ar
    74    42    40   am
    75    47    48   ar
    76    41    40    2
    77    24    25    2
    78    40    39    1
    79    45    44    2
    80    77    74    1
    81    39    38    1
    82    74    75    1
    83    74    73    1
    84    81    82    1
    85    85    82    1
    86    85    87    1
    87    75    76    2
    88    38    28   am
    89    82    83    1
    90    60    57    1
    91    60    61    1
    92    59    58    2
    93    55    54    1
    94    28    29    2
    95    28    27    1
    96    57    58    1
    97    57    56    1
    98    96    94    1
    99    94    95    1
   100    94    93    1
   101    30    27    1
   102    30    31    1
   103    58    62   am
   104    83    84    2
   105    33    31   ar
   106    33    35   ar
   107    27    26    1
   108    54    51    1
   109    70    68   ar
   110    70    72   ar
   111    31    32   ar
   112    50    51    1
   113    93    90    1
   114    68    67   ar
   115    90    91    1
   116    90    89    1
   117    35    36   ar
   118    62    63    1
   119    72    71   ar
   120    65    64    2
   121    51    52    1
   122    63    64    1
   123    63    66    1
   124    91    92    2
   125    32    34   ar
   126    36    34   ar
   127    36    37    1
   128    67    66    1
   129    67    69   ar
   130    71    69   ar
   131    52    53    2
