@<TRIPOS>MOLECULE
tmp/5hctA01.pdb
 87 83 0 0 0
SMALL
GASTEIGER

@<TRIPOS>ATOM
      1  N         20.4490   -5.3490   48.0540 N.3    13  LEU13      -0.1245
      2  CA        20.8230   -4.0080   47.6090 C.3    13  LEU13       0.1561
      3  C         22.2390   -3.6150   48.0290 C.2    13  LEU13       0.2260
      4  O         22.6870   -2.5100   47.7250 O.2    13  LEU13      -0.2867
      5  CB        19.8530   -2.9850   48.1890 C.3    13  LEU13       0.0270
      6  CG        18.3790   -3.0910   47.7890 C.3    13  LEU13       0.0019
      7  CD1       17.6090   -1.9950   48.4790 C.3    13  LEU13       0.0001
      8  CD2       18.2090   -3.0100   46.2780 C.3    13  LEU13       0.0001
      9  N         23.0920   -2.9820   51.0980 N.3    15  ASP15      -0.1239
     10  CA        22.9130   -1.8660   52.0320 C.3    15  ASP15       0.1674
     11  C         24.0470   -1.7510   53.0590 C.2    15  ASP15       0.2266
     12  O         24.3660   -0.6540   53.5270 O.2    15  ASP15      -0.2867
     13  CB        21.5690   -1.9740   52.7310 C.3    15  ASP15       0.1410
     14  CG        20.4220   -1.5270   51.8430 C.2    15  ASP15       0.3668
     15  OD1       20.5790   -0.4960   51.1420 O.co2  15  ASP15      -0.2456
     16  OD2       19.3550   -2.1950   51.8450 O.co2  15  ASP15      -0.2456
     17  N         26.4080    3.4320   52.8690 N.3   223  THR223     -0.1203
     18  CA        25.9420    2.6930   51.7010 C.3   223  THR223      0.1994
     19  C         26.2540    3.3990   50.3840 C.2   223  THR223      0.2617
     20  O         26.7550    2.7900   49.4310 O.2   223  THR223     -0.2717
     21  CB        24.4280    2.4650   51.7700 C.3   223  THR223      0.1784
     22  OG1       24.0740    1.9860   53.0690 O.3   223  THR223     -0.2211
     23  CG2       23.9790    1.4610   50.6990 C.3   223  THR223      0.0376
     24  N         25.9170    4.6840   50.3330 N.am  224  LEU224     -0.1979
     25  CA        25.9000    5.4230   49.0810 C.3   224  LEU224      0.1596
     26  C         27.0980    6.3500   48.8940 C.2   224  LEU224      0.2287
     27  O         27.9700    6.4550   49.7480 O.2   224  LEU224     -0.2864
     28  CB        24.6060    6.2190   48.9920 C.3   224  LEU224      0.0297
     29  CG        23.3270    5.4080   49.2100 C.3   224  LEU224      0.0022
     30  CD1       22.0970    6.3030   49.0160 C.3   224  LEU224      0.0001
     31  CD2       23.2490    4.1780   48.2870 C.3   224  LEU224      0.0001
     32  N         28.0820   10.1660   48.4210 N.3   226  TYR226     -0.1241
     33  CA        27.5620   11.5040   48.6820 C.3   226  TYR226      0.1605
     34  C         28.5960   12.5330   48.2370 C.2   226  TYR226      0.2264
     35  O         29.7170   12.5660   48.7620 O.2   226  TYR226     -0.2867
     36  CB        27.2560   11.6930   50.1670 C.3   226  TYR226      0.0534
     37  CG        26.1380   10.8120   50.6700 C.ar  226  TYR226     -0.0201
     38  CD1       24.8150   11.2360   50.6190 C.ar  226  TYR226     -0.0009
     39  CD2       26.3960    9.5430   51.1680 C.ar  226  TYR226     -0.0009
     40  CE1       23.7900   10.4320   51.0640 C.ar  226  TYR226      0.0417
     41  CE2       25.3780    8.7330   51.6150 C.ar  226  TYR226      0.0417
     42  CZ        24.0760    9.1690   51.5590 C.ar  226  TYR226      0.1957
     43  OH        23.0780    8.3370   52.0070 O.3   226  TYR226     -0.2866
     44  N         10.8570   11.9460   49.3380 N.3   248  VAL248     -0.1245
     45  CA        11.5730   10.6780   49.4480 C.3   248  VAL248      0.1561
     46  C         12.9030   10.8430   50.1870 C.2   248  VAL248      0.2260
     47  O         13.3260    9.9460   50.9140 O.2   248  VAL248     -0.2867
     48  CB        11.7880   10.0540   48.0570 C.3   248  VAL248      0.0252
     49  CG1       12.6500    8.7980   48.1390 C.3   248  VAL248      0.0019
     50  CG2       10.4280    9.7320   47.4150 C.3   248  VAL248      0.0019
     51  N         19.4740    1.5810   43.4400 N.3   280  PHE280     -0.1241
     52  CA        19.0500    1.0420   44.7360 C.3   280  PHE280      0.1605
     53  C         17.5820    0.6340   44.7770 C.2   280  PHE280      0.2264
     54  O         17.0120    0.3870   45.8500 O.2   280  PHE280     -0.2867
     55  CB        19.5020    1.9480   45.8760 C.3   280  PHE280      0.0534
     56  CG        20.9390    1.7150   46.2070 C.ar  280  PHE280     -0.0203
     57  CD1       21.9370    2.1930   45.3650 C.ar  280  PHE280     -0.0042
     58  CD2       21.2970    0.9010   47.2680 C.ar  280  PHE280     -0.0042
     59  CE1       23.2550    1.8910   45.6090 C.ar  280  PHE280     -0.0003
     60  CE2       22.6090    0.6020   47.5060 C.ar  280  PHE280     -0.0003
     61  CZ        23.5890    1.1000   46.6850 C.ar  280  PHE280     -0.0000
     62  N         13.3500    0.0750   43.8110 N.3   282  PRO282     -0.2102
     63  CA        12.1200    0.8110   44.1060 C.3   282  PRO282      0.1504
     64  C         12.1250    1.4660   45.4830 C.2   282  PRO282      0.2575
     65  O         12.5750    0.8720   46.4690 O.2   282  PRO282     -0.2718
     66  CB        11.0450   -0.2710   44.0010 C.3   282  PRO282      0.0282
     67  CG        11.6060   -1.2280   42.9970 C.3   282  PRO282      0.0208
     68  CD        13.0720   -1.2920   43.3270 C.3   282  PRO282      0.0893
     69  N         11.5990    2.6820   45.5500 N.am  283  ILE283     -0.1980
     70  CA        11.5800    3.4230   46.8120 C.3   283  ILE283      0.1595
     71  C         10.7220    2.7150   47.8620 C.2   283  ILE283      0.2287
     72  O         11.0120    2.7860   49.0620 O.2   283  ILE283     -0.2864
     73  CB        11.1210    4.8880   46.6070 C.3   283  ILE283      0.0276
     74  CG1        9.7200    4.9630   45.9910 C.3   283  ILE283      0.0022
     75  CG2       12.1330    5.6430   45.7480 C.3   283  ILE283      0.0022
     76  CD1        9.1320    6.3890   45.9600 C.3   283  ILE283      0.0001
     77  N         15.4630    4.4820   43.7700 N.3   291  PHE291     -0.1241
     78  CA        16.3200    5.3670   44.5400 C.3   291  PHE291      0.1605
     79  C         17.7520    5.3670   44.0240 C.2   291  PHE291      0.2264
     80  O         18.3220    4.3210   43.7570 O.2   291  PHE291     -0.2867
     81  CB        16.2890    5.0210   46.0300 C.3   291  PHE291      0.0534
     82  CG        16.8050    6.1310   46.9150 C.ar  291  PHE291     -0.0203
     83  CD1       16.0720    7.2910   47.0790 C.ar  291  PHE291     -0.0042
     84  CD2       18.0220    6.0380   47.5430 C.ar  291  PHE291     -0.0042
     85  CE1       16.5300    8.3170   47.8740 C.ar  291  PHE291     -0.0003
     86  CE2       18.4790    7.0640   48.3550 C.ar  291  PHE291     -0.0003
     87  CZ        17.7350    8.2040   48.5050 C.ar  291  PHE291     -0.0000
@<TRIPOS>BOND
     1    67    68    1
     2    67    66    1
     3    68    62    1
     4    51    52    1
     5    80    79    2
     6    77    78    1
     7    62    63    1
     8    66    63    1
     9    79    78    1
    10    63    64    1
    11    78    81    1
    12    52    53    1
    13    52    55    1
    14    53    54    2
    15    57    59   ar
    16    57    56   ar
    17    64    69   am
    18    64    65    2
    19    69    70    1
    20    59    61   ar
    21    75    73    1
    22    55    56    1
    23    76    74    1
    24    74    73    1
    25    81    82    1
    26    56    58   ar
    27     8     6    1
    28    73    70    1
    29    61    60   ar
    30    70    71    1
    31    82    83   ar
    32    82    84   ar
    33    83    85   ar
    34    58    60   ar
    35    50    48    1
    36    84    86   ar
    37     2     3    1
    38     2     1    1
    39     2     5    1
    40     4     3    2
    41     6     5    1
    42     6     7    1
    43    71    72    2
    44    85    87   ar
    45    48    49    1
    46    48    45    1
    47    34    33    1
    48    34    35    2
    49    31    29    1
    50    86    87   ar
    51    32    33    1
    52    33    36    1
    53    26    25    1
    54    26    27    2
    55    28    25    1
    56    28    29    1
    57    30    29    1
    58    25    24    1
    59    44    45    1
    60    20    19    2
    61    45    46    1
    62    36    37    1
    63    46    47    2
    64    24    19   am
    65    19    18    1
    66    38    37   ar
    67    38    40   ar
    68    37    39   ar
    69    23    21    1
    70    40    42   ar
    71     9    10    1
    72    15    14   ar
    73    39    41   ar
    74    42    41   ar
    75    42    43    1
    76    18    21    1
    77    18    17    1
    78    21    22    1
    79    14    16   ar
    80    14    13    1
    81    10    13    1
    82    10    11    1
    83    11    12    2
