@<TRIPOS>MOLECULE
tmp/5hcvB00.pdb
 198 185 0 0 0
SMALL
GASTEIGER

@<TRIPOS>ATOM
      1  N         39.2090  -16.2810  -14.1230 N.3    25  LEU25      -0.1245
      2  CA        39.0840  -16.9000  -15.4060 C.3    25  LEU25       0.1561
      3  C         40.2890  -16.6260  -16.2910 C.2    25  LEU25       0.2260
      4  O         40.7490  -17.4890  -16.9950 O.2    25  LEU25      -0.2867
      5  CB        37.7790  -16.4710  -16.0490 C.3    25  LEU25       0.0270
      6  CG        36.5430  -17.0680  -15.4000 C.3    25  LEU25       0.0019
      7  CD1       35.2620  -16.7160  -16.1040 C.3    25  LEU25       0.0001
      8  CD2       36.6630  -18.5480  -15.2550 C.3    25  LEU25       0.0001
      9  N         43.0050  -18.7670  -14.8320 N.3    28  LEU28      -0.1231
     10  CA        42.7810  -20.1540  -15.1980 C.3    28  LEU28       0.1693
     11  C         43.2080  -20.3620  -16.6500 C.2    28  LEU28       0.2592
     12  O         43.8020  -21.3470  -16.9800 O.2    28  LEU28      -0.2718
     13  CB        41.3240  -20.5360  -15.0150 C.3    28  LEU28       0.0284
     14  CG        40.8480  -20.7710  -13.5920 C.3    28  LEU28       0.0019
     15  CD1       39.3700  -20.4800  -13.4320 C.3    28  LEU28       0.0001
     16  CD2       41.2110  -22.1510  -13.0880 C.3    28  LEU28       0.0001
     17  N         42.8740  -19.4070  -17.4980 N.am   29  ASN29      -0.1974
     18  CA        43.2590  -19.4100  -18.8960 C.3    29  ASN29       0.1688
     19  C         44.7710  -19.2800  -19.0790 C.2    29  ASN29       0.2292
     20  O         45.3460  -19.9380  -19.9070 O.2    29  ASN29      -0.2864
     21  CB        42.4780  -18.3580  -19.6980 C.3    29  ASN29       0.1181
     22  CG        41.0010  -18.6600  -19.7720 C.2    29  ASN29       0.2629
     23  OD1       40.5870  -19.7760  -19.6170 O.2    29  ASN29      -0.2716
     24  ND2       40.2180  -17.6590  -20.0140 N.am   29  ASN29      -0.0877
     25  N         47.0370  -20.2060  -16.9930 N.3    31  LEU31      -0.1231
     26  CA        47.5330  -21.4770  -16.5260 C.3    31  LEU31       0.1693
     27  C         47.3080  -22.6260  -17.5150 C.2    31  LEU31       0.2591
     28  O         48.1820  -23.4040  -17.7420 O.2    31  LEU31      -0.2718
     29  CB        47.0460  -21.7970  -15.0950 C.3    31  LEU31       0.0284
     30  CG        47.3470  -23.1550  -14.4620 C.3    31  LEU31       0.0019
     31  CD1       48.8110  -23.4640  -14.2360 C.3    31  LEU31       0.0001
     32  CD2       46.5780  -23.3330  -13.1830 C.3    31  LEU31       0.0001
     33  N         46.1450  -22.6890  -18.1220 N.am   32  ALA32      -0.1980
     34  CA        45.8250  -23.7220  -19.0670 C.3    32  ALA32       0.1597
     35  C         46.7850  -23.6750  -20.2200 C.2    32  ALA32       0.2287
     36  O         47.2130  -24.6930  -20.6790 O.2    32  ALA32      -0.2864
     37  CB        44.3980  -23.5800  -19.5470 C.3    32  ALA32       0.0319
     38  N         50.1090  -24.9580  -19.1070 N.3    35  GLN35      -0.1245
     39  CA        49.9070  -26.3920  -18.9770 C.3    35  GLN35       0.1566
     40  C         49.9120  -27.1010  -20.3350 C.2    35  GLN35       0.2260
     41  O         50.3200  -28.2150  -20.4490 O.2    35  GLN35      -0.2867
     42  CB        48.6470  -26.7280  -18.1670 C.3    35  GLN35       0.0367
     43  CG        48.8050  -26.6940  -16.6620 C.3    35  GLN35       0.0905
     44  CD        49.7600  -27.7310  -16.0790 C.2    35  GLN35       0.2608
     45  OE1       49.6600  -28.0740  -14.9210 O.2    35  GLN35      -0.2717
     46  NE2       50.7040  -28.1930  -16.8720 N.am   35  GLN35      -0.0878
     47  N         42.4890  -31.2670  -25.1110 N.3    65  TRP65      -0.1227
     48  CA        43.1620  -30.3910  -24.1720 C.3    65  TRP65       0.1737
     49  C         42.4140  -30.1730  -22.8710 C.2    65  TRP65       0.2595
     50  O         43.0220  -30.1670  -21.8340 O.2    65  TRP65      -0.2718
     51  CB        43.5660  -29.0600  -24.8050 C.3    65  TRP65       0.0564
     52  CG        42.4770  -28.0940  -24.9740 C.ar   65  TRP65       0.0003
     53  CD1       41.6200  -28.0290  -26.0070 C.ar   65  TRP65       0.0946
     54  CD2       42.1090  -27.0420  -24.0840 C.ar   65  TRP65       0.0152
     55  NE1       40.7430  -27.0260  -25.8330 N.ar   65  TRP65      -0.2442
     56  CE2       41.0180  -26.3920  -24.6560 C.ar   65  TRP65       0.0810
     57  CE3       42.5840  -26.6030  -22.8540 C.ar   65  TRP65       0.0012
     58  CZ2       40.3910  -25.3060  -24.0450 C.ar   65  TRP65       0.0191
     59  CZ3       41.9870  -25.5410  -22.2580 C.ar   65  TRP65       0.0001
     60  CH2       40.9030  -24.8880  -22.8530 C.ar   65  TRP65       0.0015
     61  N         41.1060  -29.9680  -22.9490 N.am   66  MET66      -0.1979
     62  CA        40.3190  -29.7430  -21.7620 C.3    66  MET66       0.1605
     63  C         40.3200  -30.9710  -20.8640 C.2    66  MET66       0.2287
     64  O         40.4040  -30.8850  -19.6710 O.2    66  MET66      -0.2864
     65  CB        38.8920  -29.3060  -22.1140 C.3    66  MET66       0.0413
     66  CG        38.0300  -28.8210  -20.9520 C.3    66  MET66       0.0598
     67  SD        38.6200  -27.4700  -19.9240 S.3    66  MET66      -0.1393
     68  CE        38.2930  -26.0750  -20.9730 C.3    66  MET66       0.0692
     69  N         43.6540  -31.6100  -19.1120 N.3    69  SER69      -0.1202
     70  CA        43.7540  -30.6730  -17.9960 C.3    69  SER69       0.2020
     71  C         42.9350  -31.0020  -16.7600 C.2    69  SER69       0.2619
     72  O         43.4300  -30.8670  -15.6720 O.2    69  SER69      -0.2717
     73  CB        43.3690  -29.2770  -18.4240 C.3    69  SER69       0.2103
     74  OG        44.2690  -28.7970  -19.3360 O.3    69  SER69      -0.2182
     75  N         41.6890  -31.4140  -16.9720 N.am   70  SER70      -0.1951
     76  CA        40.7490  -31.7760  -15.9230 C.3    70  SER70       0.1924
     77  C         41.1490  -33.0100  -15.1380 C.2    70  SER70       0.2314
     78  O         40.9970  -33.0370  -13.9540 O.2    70  SER70      -0.2863
     79  CB        39.3290  -32.0130  -16.4720 C.3    70  SER70       0.2116
     80  OG        38.8910  -31.0270  -17.3300 O.3    70  SER70      -0.2180
     81  N         44.2150  -32.1830  -13.2230 N.3    73  LEU73      -0.1245
     82  CA        43.8090  -31.3270  -12.1450 C.3    73  LEU73       0.1561
     83  C         43.2720  -32.1880  -11.0200 C.2    73  LEU73       0.2260
     84  O         43.5460  -31.9730   -9.8730 O.2    73  LEU73      -0.2867
     85  CB        42.7250  -30.3510  -12.6200 C.3    73  LEU73       0.0270
     86  CG        41.7810  -29.6890  -11.6090 C.3    73  LEU73       0.0019
     87  CD1       42.4660  -28.7310  -10.6640 C.3    73  LEU73       0.0001
     88  CD2       40.5800  -29.0680  -12.2660 C.3    73  LEU73       0.0001
     89  N         46.1370  -33.8940   -9.2650 N.3    76  ARG76      -0.1245
     90  CA        46.8360  -33.0120   -8.3740 C.3    76  ARG76       0.1563
     91  C         45.9790  -32.8240   -7.1240 C.2    76  ARG76       0.2260
     92  O         46.4870  -32.8510   -6.0350 O.2    76  ARG76      -0.2867
     93  CB        47.2050  -31.6680   -9.0270 C.3    76  ARG76       0.0307
     94  CG        48.2350  -31.7640  -10.1170 C.3    76  ARG76       0.0489
     95  CD        48.7630  -30.4510  -10.6560 C.3    76  ARG76       0.2205
     96  NE        47.7560  -29.5080  -11.0830 N.pl3  76  ARG76      -0.0865
     97  CZ        47.2200  -29.4360  -12.2880 C.cat  76  ARG76       0.5346
     98  NH1       47.5700  -30.2560  -13.2410 N.pl3  76  ARG76       0.1354
     99  NH2       46.3040  -28.5430  -12.5170 N.pl3  76  ARG76       0.1354
    100  N         40.3640  -28.0540   -5.1730 N.3    86  LEU86      -0.1245
    101  CA        40.7580  -28.1240   -6.5470 C.3    86  LEU86       0.1561
    102  C         42.1360  -27.5190   -6.6050 C.2    86  LEU86       0.2260
    103  O         42.2930  -26.3420   -6.5010 O.2    86  LEU86      -0.2867
    104  CB        39.7960  -27.3490   -7.4360 C.3    86  LEU86       0.0270
    105  CG        38.5480  -28.0830   -7.8790 C.3    86  LEU86       0.0019
    106  CD1       37.5210  -27.1250   -8.4280 C.3    86  LEU86       0.0001
    107  CD2       38.7820  -29.2940   -8.7640 C.3    86  LEU86       0.0001
    108  N         44.6950  -26.4940   -8.7300 N.3    88  PHE88      -0.1241
    109  CA        45.0880  -26.0360  -10.0560 C.3    88  PHE88       0.1605
    110  C         46.5780  -25.8300  -10.1950 C.2    88  PHE88       0.2264
    111  O         47.1670  -26.1760  -11.1770 O.2    88  PHE88      -0.2867
    112  CB        44.3510  -24.7460  -10.4280 C.3    88  PHE88       0.0534
    113  CG        42.9310  -24.9560  -10.8260 C.ar   88  PHE88      -0.0203
    114  CD1       42.6110  -25.4650  -12.0770 C.ar   88  PHE88      -0.0042
    115  CD2       41.9080  -24.6600   -9.9510 C.ar   88  PHE88      -0.0042
    116  CE1       41.3010  -25.6680  -12.4320 C.ar   88  PHE88      -0.0003
    117  CE2       40.6000  -24.8700  -10.3110 C.ar   88  PHE88      -0.0003
    118  CZ        40.3010  -25.3480  -11.5530 C.ar   88  PHE88      -0.0000
    119  N         31.9530  -20.2750  -12.0780 N.3   104  MET104     -0.1245
    120  CA        31.9510  -21.6190  -12.6340 C.3   104  MET104      0.1570
    121  C         31.6740  -22.6590  -11.5500 C.2   104  MET104      0.2261
    122  O         32.3080  -23.6850  -11.5220 O.2   104  MET104     -0.2867
    123  CB        33.3130  -21.9000  -13.2810 C.3   104  MET104      0.0387
    124  CG        33.3430  -21.7390  -14.7820 C.3   104  MET104      0.0595
    125  SD        34.7390  -22.4790  -15.6090 S.3   104  MET104     -0.1393
    126  CE        35.9880  -22.4320  -14.3720 C.3   104  MET104      0.0692
    127  N         30.4460  -26.5220  -12.6130 N.3   107  LEU107     -0.1231
    128  CA        31.5180  -27.1520  -13.3640 C.3   107  LEU107      0.1693
    129  C         32.7000  -27.5440  -12.4590 C.2   107  LEU107      0.2592
    130  O         33.2580  -28.5990  -12.6230 O.2   107  LEU107     -0.2718
    131  CB        31.9640  -26.2610  -14.5210 C.3   107  LEU107      0.0284
    132  CG        30.9440  -25.9840  -15.6030 C.3   107  LEU107      0.0019
    133  CD1       31.2470  -24.6970  -16.3480 C.3   107  LEU107      0.0001
    134  CD2       30.8500  -27.1630  -16.5440 C.3   107  LEU107      0.0001
    135  N         33.0610  -26.6820  -11.5210 N.am  108  CYS108     -0.1970
    136  CA        34.1310  -26.9420  -10.5790 C.3   108  CYS108      0.1712
    137  C         33.7850  -28.0990   -9.6770 C.2   108  CYS108      0.2296
    138  O         34.6240  -28.9090   -9.3310 O.2   108  CYS108     -0.2864
    139  CB        34.3880  -25.7320   -9.7250 C.3   108  CYS108      0.0983
    140  SG        35.3110  -24.4780  -10.5590 S.3   108  CYS108     -0.0798
    141  N         34.2720  -31.4830  -11.4040 N.3   111  MET111     -0.1245
    142  CA        35.6640  -31.8710  -11.3710 C.3   111  MET111      0.1570
    143  C         36.0350  -32.3830   -9.9820 C.2   111  MET111      0.2261
    144  O         36.8260  -33.2860   -9.8410 O.2   111  MET111     -0.2867
    145  CB        36.5790  -30.7230  -11.8040 C.3   111  MET111      0.0387
    146  CG        37.7010  -31.1550  -12.7210 C.3   111  MET111      0.0595
    147  SD        37.1090  -32.2670  -13.9840 S.3   111  MET111     -0.1393
    148  CE        37.8510  -33.7790  -13.4320 C.3   111  MET111      0.0692
    149  N         32.3800  -28.0430  -19.9500 N.3   188  LEU188     -0.1245
    150  CA        33.4340  -27.0640  -19.7840 C.3   188  LEU188      0.1561
    151  C         33.7690  -26.3680  -21.1110 C.2   188  LEU188      0.2260
    152  O         33.9910  -25.1850  -21.1440 O.2   188  LEU188     -0.2867
    153  CB        34.6870  -27.6650  -19.1410 C.3   188  LEU188      0.0270
    154  CG        34.6990  -28.0320  -17.6630 C.3   188  LEU188      0.0019
    155  CD1       35.5400  -29.2600  -17.4030 C.3   188  LEU188      0.0001
    156  CD2       35.1330  -26.8990  -16.7720 C.3   188  LEU188      0.0001
    157  N         31.1390  -23.7140  -21.9880 N.3   191  PHE191     -0.1227
    158  CA        31.3540  -22.5120  -21.2140 C.3   191  PHE191      0.1736
    159  C         32.5850  -21.7530  -21.6780 C.2   191  PHE191      0.2595
    160  O         32.6220  -20.5450  -21.6890 O.2   191  PHE191     -0.2718
    161  CB        31.4550  -22.8630  -19.7520 C.3   191  PHE191      0.0547
    162  CG        31.5290  -21.6860  -18.8610 C.ar  191  PHE191     -0.0202
    163  CD1       30.5340  -20.7420  -18.8660 C.ar  191  PHE191     -0.0042
    164  CD2       32.5920  -21.5120  -18.0320 C.ar  191  PHE191     -0.0042
    165  CE1       30.5960  -19.6540  -18.0410 C.ar  191  PHE191     -0.0003
    166  CE2       32.6580  -20.4240  -17.2050 C.ar  191  PHE191     -0.0003
    167  CZ        31.6570  -19.5010  -17.2050 C.ar  191  PHE191     -0.0000
    168  N         33.6020  -22.5030  -22.0340 N.am  192  CYS192     -0.1970
    169  CA        34.8300  -21.9210  -22.4960 C.3   192  CYS192      0.1712
    170  C         34.6450  -21.1600  -23.7940 C.2   192  CYS192      0.2296
    171  O         35.1420  -20.0810  -23.9590 O.2   192  CYS192     -0.2864
    172  CB        35.8740  -23.0070  -22.6720 C.3   192  CYS192      0.0983
    173  SG        37.5090  -22.3470  -22.8120 S.3   192  CYS192     -0.0798
    174  N         32.6640  -17.7370  -23.2420 N.3   195  THR195     -0.1218
    175  CA        33.4850  -16.6480  -22.7660 C.3   195  THR195      0.1862
    176  C         34.4630  -16.2200  -23.8380 C.2   195  THR195      0.2287
    177  O         34.8800  -15.1070  -23.8650 O.2   195  THR195     -0.2866
    178  CB        34.1640  -16.8950  -21.4100 C.3   195  THR195      0.1770
    179  OG1       35.0000  -18.0330  -21.4850 O.3   195  THR195     -0.2211
    180  CG2       33.1600  -17.1200  -20.3730 C.3   195  THR195      0.0375
    181  N         37.4290  -11.2350  -20.3050 N.3   204  VAL204     -0.1245
    182  CA        38.1720  -12.4410  -19.9850 C.3   204  VAL204      0.1561
    183  C         39.3760  -12.6400  -20.9090 C.2   204  VAL204      0.2260
    184  O         39.2240  -12.7830  -22.0910 O.2   204  VAL204     -0.2867
    185  CB        37.2740  -13.7090  -19.9790 C.3   204  VAL204      0.0252
    186  CG1       38.0830  -14.9290  -19.6040 C.3   204  VAL204      0.0019
    187  CG2       36.1230  -13.5450  -19.0090 C.3   204  VAL204      0.0019
    188  N         42.4930  -14.5220  -22.6330 N.3   206  PHE206     -0.1241
    189  CA        42.8490  -15.8170  -23.1340 C.3   206  PHE206      0.1605
    190  C         44.2420  -15.6860  -23.6810 C.2   206  PHE206      0.2264
    191  O         44.5150  -14.8040  -24.4540 O.2   206  PHE206     -0.2867
    192  CB        41.9180  -16.2620  -24.2540 C.3   206  PHE206      0.0534
    193  CG        40.6550  -16.9020  -23.7830 C.ar  206  PHE206     -0.0203
    194  CD1       40.6260  -18.2350  -23.4690 C.ar  206  PHE206     -0.0042
    195  CD2       39.4960  -16.1720  -23.6730 C.ar  206  PHE206     -0.0042
    196  CE1       39.4680  -18.8310  -23.0580 C.ar  206  PHE206     -0.0003
    197  CE2       38.3400  -16.7610  -23.2490 C.ar  206  PHE206     -0.0003
    198  CZ        38.3220  -18.0980  -22.9470 C.ar  206  PHE206     -0.0000
@<TRIPOS>BOND
     1    53    55   ar
     2    53    52   ar
     3    55    56   ar
     4    47    48    1
     5    52    51    1
     6    52    54   ar
     7    51    48    1
     8    56    54   ar
     9    56    58   ar
    10   191   190    2
    11   192   193    1
    12   192   189    1
    13    48    49    1
    14    54    57   ar
    15    58    60   ar
    16   171   170    2
    17   177   176    2
    18   176   175    1
    19   170   169    1
    20   193   195   ar
    21   193   194   ar
    22   190   189    1
    23   195   197   ar
    24   194   196   ar
    25   197   198   ar
    26   174   175    1
    27   189   188    1
    28   196   198   ar
    29    61    49   am
    30    61    62    1
    31    49    50    2
    32    57    59   ar
    33    60    59   ar
    34   173   172    1
    35   175   178    1
    36   172   169    1
    37   169   168    1
    38    65    62    1
    39    65    66    1
    40   184   183    2
    41   168   159   am
    42   157   158    1
    43    62    63    1
    44   160   159    2
    45   159   158    1
    46   179   178    1
    47   178   180    1
    48   158   161    1
    49   152   151    2
    50   151   150    1
    51    68    67    1
    52    66    67    1
    53   183   182    1
    54    63    64    2
    55    36    35    2
    56    41    40    2
    57    40    39    1
    58   181   182    1
    59    35    34    1
    60    24    22   am
    61   182   185    1
    62   185   186    1
    63   185   187    1
    64   149   150    1
    65    20    19    2
    66   150   153    1
    67    22    21    1
    68    22    23    2
    69   161   162    1
    70    21    18    1
    71    37    34    1
    72    74    73    1
    73   153   154    1
    74    69    70    1
    75    38    39    1
    76    19    18    1
    77    34    33    1
    78    39    42    1
    79    18    17    1
    80   163   162   ar
    81   163   165   ar
    82   162   164   ar
    83    73    70    1
    84    42    43    1
    85    33    27   am
    86   165   167   ar
    87   164   166   ar
    88    70    71    1
    89    28    27    2
    90   154   155    1
    91   154   156    1
    92    27    26    1
    93    17    11   am
    94    80    79    1
    95   167   166   ar
    96     4     3    2
    97    25    26    1
    98    12    11    2
    99    75    71   am
   100    75    76    1
   101    46    44   am
   102    71    72    2
   103    43    44    1
   104    11    10    1
   105   134   132    1
   106    26    29    1
   107    79    76    1
   108   133   132    1
   109     3     2    1
   110     7     6    1
   111    44    45    2
   112     5     2    1
   113     5     6    1
   114    76    77    1
   115   125   124    1
   116   125   126    1
   117   132   131    1
   118     2     1    1
   119     6     8    1
   120    10    13    1
   121    10     9    1
   122    77    78    2
   123    29    30    1
   124    13    14    1
   125   124   123    1
   126   131   128    1
   127    30    31    1
   128    30    32    1
   129   147   148    1
   130   147   146    1
   131    14    15    1
   132    14    16    1
   133   128   127    1
   134   128   129    1
   135   123   120    1
   136    98    97    1
   137    81    82    1
   138   146   145    1
   139   120   119    1
   140   120   121    1
   141   130   129    2
   142    85    82    1
   143    85    86    1
   144    99    97    1
   145   129   135   am
   146   116   114   ar
   147   116   118   ar
   148    97    96    2
   149    88    86    1
   150    82    83    1
   151   114   113   ar
   152   145   142    1
   153    86    87    1
   154   118   117   ar
   155   121   122    2
   156   135   136    1
   157   141   142    1
   158   142   143    1
   159   111   110    2
   160    96    95    1
   161    83    84    2
   162   113   112    1
   163   113   115   ar
   164    95    94    1
   165   136   139    1
   166   136   137    1
   167   140   139    1
   168   112   109    1
   169   117   115   ar
   170   110   109    1
   171    94    93    1
   172   109   108    1
   173   143   144    2
   174   137   138    2
   175    89    90    1
   176    93    90    1
   177   107   105    1
   178   106   105    1
   179    90    91    1
   180   105   104    1
   181   104   101    1
   182    91    92    2
   183   102   101    1
   184   102   103    2
   185   101   100    1
