@<TRIPOS>MOLECULE
tmp/5hcxA00.pdb
 167 155 0 0 0
SMALL
GASTEIGER

@<TRIPOS>ATOM
      1  N        -46.9640    3.5670  -19.2330 N.3    23  LEU23      -0.1231
      2  CA       -47.9190    2.6620  -18.5940 C.3    23  LEU23       0.1693
      3  C        -47.3680    1.2420  -18.6650 C.2    23  LEU23       0.2592
      4  O        -47.4970    0.4850  -17.7060 O.2    23  LEU23      -0.2718
      5  CB       -49.2870    2.7100  -19.2850 C.3    23  LEU23       0.0284
      6  CG       -50.1240    3.9550  -19.0840 C.3    23  LEU23       0.0019
      7  CD1      -51.1850    4.0390  -20.1460 C.3    23  LEU23       0.0001
      8  CD2      -50.7430    3.9910  -17.7000 C.3    23  LEU23       0.0001
      9  N        -46.7780    0.9010  -19.8090 N.am   24  GLY24      -0.1957
     10  CA       -46.1950   -0.4070  -20.0560 C.3    24  GLY24       0.1869
     11  C        -45.2650   -0.4400  -21.2480 C.2    24  GLY24       0.2309
     12  O        -45.4020    0.3520  -22.1780 O.2    24  GLY24      -0.2863
     13  N        -44.8220   -6.1120  -27.2370 N.3    28  PHE28      -0.1241
     14  CA       -45.9480   -5.3700  -27.8140 C.3    28  PHE28       0.1605
     15  C        -45.5780   -3.9290  -28.2120 C.2    28  PHE28       0.2264
     16  O        -46.2840   -3.3090  -29.0140 O.2    28  PHE28      -0.2867
     17  CB       -47.1200   -5.3550  -26.8090 C.3    28  PHE28       0.0534
     18  CG       -46.8660   -4.6820  -25.4730 C.ar   28  PHE28      -0.0203
     19  CD1      -47.0990   -3.3200  -25.3040 C.ar   28  PHE28      -0.0042
     20  CD2      -46.4440   -5.4190  -24.3710 C.ar   28  PHE28      -0.0042
     21  CE1      -46.8940   -2.7040  -24.0620 C.ar   28  PHE28      -0.0003
     22  CE2      -46.2440   -4.8020  -23.1280 C.ar   28  PHE28      -0.0003
     23  CZ       -46.4700   -3.4510  -22.9840 C.ar   28  PHE28      -0.0000
     24  N        -46.4890    1.6700  -24.3650 N.3    31  VAL31      -0.1245
     25  CA       -47.7540    2.3820  -24.1900 C.3    31  VAL31       0.1561
     26  C        -47.5650    3.4770  -23.1190 C.2    31  VAL31       0.2260
     27  O        -47.0550    3.1890  -22.0310 O.2    31  VAL31      -0.2867
     28  CB       -48.9350    1.3990  -23.8830 C.3    31  VAL31       0.0252
     29  CG1      -50.2660    2.1350  -23.7230 C.3    31  VAL31       0.0019
     30  CG2      -49.0570    0.3180  -24.9630 C.3    31  VAL31       0.0019
     31  N        -54.2420    6.7390  -23.9740 N.3    48  ALA48      -0.1245
     32  CA       -53.1260    5.8000  -23.9890 C.3    48  ALA48       0.1562
     33  C        -52.5240    5.9200  -25.3910 C.2    48  ALA48       0.2260
     34  O        -53.2620    5.9690  -26.3870 O.2    48  ALA48      -0.2867
     35  CB       -53.6000    4.3920  -23.7360 C.3    48  ALA48       0.0290
     36  N        -49.7740    4.3040  -28.0210 N.3    50  LYS50      -0.1245
     37  CA       -48.9670    3.1330  -28.3870 C.3    50  LYS50       0.1561
     38  C        -48.0340    3.3950  -29.5720 C.2    50  LYS50       0.2260
     39  O        -48.4440    3.9910  -30.5740 O.2    50  LYS50      -0.2867
     40  CB       -49.8790    1.9240  -28.7000 C.3    50  LYS50       0.0271
     41  CG       -49.1500    0.5970  -28.9440 C.3    50  LYS50       0.0035
     42  CD       -50.0860   -0.5080  -29.3860 C.3    50  LYS50       0.0206
     43  CE       -49.3260   -1.7970  -29.5530 C.3    50  LYS50       0.1093
     44  NZ       -50.2340   -2.9700  -29.6760 N.3    50  LYS50      -0.1314
     45  N        -52.8610   -2.4170  -37.5910 N.3    64  GLU64      -0.1245
     46  CA       -53.5870   -2.3750  -36.3240 C.3    64  GLU64       0.1567
     47  C        -54.5070   -1.1580  -36.3080 C.2    64  GLU64       0.2260
     48  O        -55.6450   -1.2880  -35.8660 O.2    64  GLU64      -0.2867
     49  CB       -52.6320   -2.3600  -35.1230 C.3    64  GLU64       0.0388
     50  CG       -53.3290   -2.7030  -33.8190 C.3    64  GLU64       0.1160
     51  CD       -52.4780   -2.7130  -32.5650 C.2    64  GLU64       0.3649
     52  OE1      -51.2330   -2.7840  -32.6910 O.co2  64  GLU64      -0.2457
     53  OE2      -53.0620   -2.7330  -31.4550 O.co2  64  GLU64      -0.2457
     54  N        -58.4600   -1.2660  -35.6910 N.3    68  MET68      -0.1245
     55  CA       -58.8880   -0.5110  -34.5200 C.3    68  MET68       0.1570
     56  C        -59.8090    0.6760  -34.8290 C.2    68  MET68       0.2261
     57  O        -60.6740    0.9930  -34.0120 O.2    68  MET68      -0.2867
     58  CB       -57.6830   -0.0620  -33.7110 C.3    68  MET68       0.0387
     59  CG       -57.6910   -0.5710  -32.3280 C.3    68  MET68       0.0595
     60  SD       -56.5880    0.3790  -31.2810 S.3    68  MET68      -0.1393
     61  CE       -57.4560    0.2330  -29.7270 C.3    68  MET68       0.0692
     62  N        -62.1700   -2.0340  -28.0010 N.3    77  CYS77      -0.1235
     63  CA       -61.4090   -0.7760  -27.9870 C.3    77  CYS77       0.1677
     64  C        -61.2580   -0.2470  -29.3980 C.2    77  CYS77       0.2270
     65  O        -60.7500   -0.9550  -30.2620 O.2    77  CYS77      -0.2867
     66  CB       -60.0430   -0.9690  -27.3320 C.3    77  CYS77       0.0956
     67  SG       -60.0820   -1.0810  -25.5280 S.3    77  CYS77      -0.0801
     68  N        -55.4570    6.0210  -28.2540 N.3    92  MET92      -0.1230
     69  CA       -56.5500    5.1970  -27.7580 C.3    92  MET92       0.1702
     70  C        -57.0330    5.6950  -26.4010 C.2    92  MET92       0.2592
     71  O        -56.3970    6.5470  -25.7840 O.2    92  MET92      -0.2718
     72  CB       -56.0390    3.7510  -27.6180 C.3    92  MET92       0.0401
     73  CG       -55.0670    3.3310  -28.7360 C.3    92  MET92       0.0596
     74  SD       -54.1320    1.8250  -28.3990 S.3    92  MET92      -0.1393
     75  CE       -53.0500    2.3810  -27.0610 C.3    92  MET92       0.0692
     76  N        -58.1510    5.1430  -25.9360 N.am   93  GLN93      -0.1966
     77  CA       -58.7760    5.4370  -24.6600 C.3    93  GLN93       0.1733
     78  C        -57.9280    4.9040  -23.5180 C.2    93  GLN93       0.2616
     79  O        -57.4690    3.7620  -23.5820 O.2    93  GLN93      -0.2715
     80  CB       -60.1810    4.7850  -24.6060 C.3    93  GLN93       0.0408
     81  CG       -60.9950    5.1700  -23.3560 C.3    93  GLN93       0.0908
     82  CD       -62.2680    4.3780  -23.1580 C.2    93  GLN93       0.2608
     83  OE1      -62.4850    3.3160  -23.7490 O.2    93  GLN93      -0.2717
     84  NE2      -63.1340    4.8670  -22.2860 N.am   93  GLN93      -0.0878
     85  N        -57.7690    5.7070  -22.4410 N.am   94  LEU94      -0.1963
     86  CA       -57.0860    5.2620  -21.2200 C.3    94  LEU94       0.1728
     87  C        -58.0490    4.3520  -20.4620 C.2    94  LEU94       0.2616
     88  O        -59.2030    4.7220  -20.2100 O.2    94  LEU94      -0.2715
     89  CB       -56.6870    6.4600  -20.3540 C.3    94  LEU94       0.0311
     90  CG       -55.8390    6.1840  -19.0930 C.3    94  LEU94       0.0022
     91  CD1      -54.3830    5.8910  -19.4430 C.3    94  LEU94       0.0001
     92  CD2      -55.8870    7.3680  -18.1540 C.3    94  LEU94       0.0001
     93  N        -57.5940    3.1340  -20.1810 N.am   95  MET95      -0.1964
     94  CA       -58.3010    2.0880  -19.4230 C.3    95  MET95       0.1722
     95  C        -57.5910    2.1300  -18.0720 C.2    95  MET95       0.2458
     96  O        -56.5340    1.5130  -17.9360 O.2    95  MET95      -0.2730
     97  CB       -58.1160    0.7350  -20.1290 C.3    95  MET95       0.0427
     98  CG       -58.6040    0.7360  -21.5890 C.3    95  MET95       0.0599
     99  SD       -60.3770    1.0480  -21.7740 S.3    95  MET95      -0.1393
    100  CE       -61.0470   -0.5460  -21.3900 C.3    95  MET95       0.0692
    101  N        -58.0690    2.9670  -17.1080 N.am   96  PRO96      -0.2727
    102  CA       -57.2860    3.2010  -15.8790 C.3    96  PRO96       0.1402
    103  C        -56.9060    1.9900  -15.0220 C.2    96  PRO96       0.2269
    104  O        -55.9320    2.0950  -14.2670 O.2    96  PRO96      -0.2865
    105  CB       -58.1560    4.1830  -15.0820 C.3    96  PRO96       0.0296
    106  CG       -59.0140    4.8380  -16.0890 C.3    96  PRO96       0.0237
    107  CD       -59.2980    3.7900  -17.1100 C.3    96  PRO96       0.0939
    108  N        -55.9150   -0.9740  -16.1800 N.3    98  GLY98      -0.1210
    109  CA       -54.9700   -1.7620  -16.9700 C.3    98  GLY98       0.1956
    110  C        -55.5730   -3.0200  -17.5420 C.2    98  GLY98       0.2612
    111  O        -56.7750   -3.0590  -17.8110 O.2    98  GLY98      -0.2717
    112  N        -54.7620   -4.0650  -17.7320 N.am   99  CYS99      -0.1970
    113  CA       -55.3300   -5.2900  -18.2830 C.3    99  CYS99       0.1712
    114  C        -55.9600   -6.1750  -17.2060 C.2    99  CYS99       0.2296
    115  O        -55.5800   -6.1080  -16.0310 O.2    99  CYS99      -0.2864
    116  CB       -54.3330   -6.0480  -19.1570 C.3    99  CYS99       0.0983
    117  SG       -53.1490   -7.0390  -18.2340 S.3    99  CYS99      -0.0798
    118  N        -53.6410   -8.7740  -14.9750 N.3   102  ASP102     -0.1239
    119  CA       -52.9910   -8.2400  -13.7850 C.3   102  ASP102      0.1674
    120  C        -53.9780   -7.8290  -12.7250 C.2   102  ASP102      0.2266
    121  O        -53.6620   -7.9280  -11.5430 O.2   102  ASP102     -0.2867
    122  CB       -52.0400   -7.1000  -14.1340 C.3   102  ASP102      0.1410
    123  CG       -50.9810   -7.4750  -15.1540 C.2   102  ASP102      0.3668
    124  OD1      -50.8230   -6.7280  -16.1380 O.co2 102  ASP102     -0.2456
    125  OD2      -50.2780   -8.5000  -14.9420 O.co2 102  ASP102     -0.2456
    126  N        -54.7380  -11.0790  -21.0450 N.3   143  ARG143     -0.1231
    127  CA       -53.7900   -9.9600  -21.2170 C.3   143  ARG143      0.1694
    128  C        -54.2880   -8.9060  -22.2250 C.2   143  ARG143      0.2592
    129  O        -53.8100   -7.7720  -22.1800 O.2   143  ARG143     -0.2718
    130  CB       -52.3830  -10.4440  -21.6310 C.3   143  ARG143      0.0321
    131  CG       -52.3070  -10.9640  -23.0610 C.3   143  ARG143      0.0489
    132  CD       -50.9530  -11.5400  -23.4410 C.3   143  ARG143      0.2205
    133  NE       -51.0700  -12.2550  -24.7140 N.pl3 143  ARG143     -0.0865
    134  CZ       -51.3780  -13.5440  -24.8260 C.cat 143  ARG143      0.5346
    135  NH1      -51.5450  -14.2920  -23.7390 N.pl3 143  ARG143      0.1354
    136  NH2      -51.5000  -14.1000  -26.0210 N.pl3 143  ARG143      0.1354
    137  N        -55.2000   -9.2950  -23.1540 N.am  144  ASN144     -0.1974
    138  CA       -55.7310   -8.4070  -24.1980 C.3   144  ASN144      0.1688
    139  C        -57.1340   -7.8700  -23.8930 C.2   144  ASN144      0.2292
    140  O        -57.8350   -7.3840  -24.7930 O.2   144  ASN144     -0.2864
    141  CB       -55.6650   -9.0920  -25.5650 C.3   144  ASN144      0.1181
    142  CG       -54.2490   -9.2450  -26.0410 C.2   144  ASN144      0.2629
    143  OD1      -53.3810   -8.4080  -25.7770 O.2   144  ASN144     -0.2716
    144  ND2      -53.9610  -10.3410  -26.7120 N.am  144  ASN144     -0.0877
    145  N        -58.9080   -5.1150  -21.4310 N.3   146  LEU146     -0.1245
    146  CA       -58.5850   -3.9690  -20.5940 C.3   146  LEU146      0.1561
    147  C        -59.7290   -3.5630  -19.7400 C.2   146  LEU146      0.2260
    148  O        -60.8740   -3.8480  -20.0700 O.2   146  LEU146     -0.2867
    149  CB       -58.0370   -2.7990  -21.4220 C.3   146  LEU146      0.0270
    150  CG       -56.8190   -3.0940  -22.3040 C.3   146  LEU146      0.0019
    151  CD1      -56.3870   -1.8860  -22.9690 C.3   146  LEU146      0.0001
    152  CD2      -55.6330   -3.6280  -21.5080 C.3   146  LEU146      0.0001
    153  N        -58.9530   -5.6470  -26.6940 N.3   156  THR156     -0.1203
    154  CA       -58.0130   -4.8580  -27.4950 C.3   156  THR156      0.1994
    155  C        -56.9770   -5.7590  -28.1990 C.2   156  THR156      0.2617
    156  O        -57.1390   -6.9780  -28.1940 O.2   156  THR156     -0.2717
    157  CB       -57.3990   -3.7270  -26.6670 C.3   156  THR156      0.1784
    158  OG1      -56.8900   -2.7670  -27.5930 O.3   156  THR156     -0.2211
    159  CG2      -56.2930   -4.2100  -25.7290 C.3   156  THR156      0.0376
    160  N        -55.9110   -5.1440  -28.7710 N.am  157  ASP157     -0.1973
    161  CA       -54.7760   -5.7360  -29.4990 C.3   157  ASP157      0.1709
    162  C        -55.2230   -6.3540  -30.8220 C.2   157  ASP157      0.2293
    163  O        -55.4950   -7.5510  -30.9150 O.2   157  ASP157     -0.2864
    164  CB       -53.9390   -6.7040  -28.6400 C.3   157  ASP157      0.1436
    165  CG       -52.4770   -6.7910  -29.0420 C.2   157  ASP157      0.3671
    166  OD1      -52.1950   -6.8860  -30.2550 O.co2 157  ASP157     -0.2456
    167  OD2      -51.6160   -6.7750  -28.1460 O.co2 157  ASP157     -0.2456
@<TRIPOS>BOND
     1    45    46    1
     2    46    47    1
     3    46    49    1
     4    47    48    2
     5    54    55    1
     6    49    50    1
     7    56    55    1
     8    56    57    2
     9    55    58    1
    10    50    51    1
    11    58    59    1
    12    52    51   ar
    13    51    53   ar
    14    59    60    1
    15    60    61    1
    16   163   162    2
    17   162   161    1
    18    39    38    2
    19    65    64    2
    20   166   165   ar
    21    44    43    1
    22    38    37    1
    23    43    42    1
    24   161   160    1
    25   161   164    1
    26    64    63    1
    27    42    41    1
    28   165   164    1
    29   165   167   ar
    30    16    15    2
    31    41    40    1
    32   160   155   am
    33    73    74    1
    34    73    72    1
    35    40    37    1
    36    74    75    1
    37    37    36    1
    38    68    69    1
    39    15    14    1
    40   155   156    2
    41   155   154    1
    42    62    63    1
    43    63    66    1
    44    14    13    1
    45    14    17    1
    46    69    72    1
    47    69    70    1
    48   158   157    1
    49   154   153    1
    50   154   157    1
    51    66    67    1
    52    17    18    1
    53   144   142   am
    54   157   159    1
    55    70    76   am
    56    70    71    2
    57    34    33    2
    58   142   143    2
    59   142   141    1
    60   136   134    1
    61    76    77    1
    62   141   138    1
    63    18    19   ar
    64    18    20   ar
    65    33    32    1
    66    19    21   ar
    67    30    28    1
    68   134   133    2
    69   134   135    1
    70   140   139    2
    71   133   132    1
    72    77    80    1
    73    77    78    1
    74    80    81    1
    75    20    22   ar
    76    24    25    1
    77   138   139    1
    78   138   137    1
    79    25    28    1
    80    25    26    1
    81    21    23   ar
    82    32    31    1
    83    32    35    1
    84    28    29    1
    85    83    82    2
    86    79    78    2
    87    78    85   am
    88   132   131    1
    89    81    82    1
    90    82    84   am
    91   137   128   am
    92    22    23   ar
    93    26    27    2
    94   131   130    1
    95   151   150    1
    96    85    86    1
    97   150   152    1
    98   150   149    1
    99   128   129    2
   100   128   127    1
   101    12    11    2
   102    99    98    1
   103    99   100    1
   104   130   127    1
   105    98    97    1
   106   145   146    1
   107   149   146    1
   108    11    10    1
   109    86    87    1
   110    86    89    1
   111   127   126    1
   112   146   147    1
   113    87    88    2
   114    87    93   am
   115    89    90    1
   116    93    94    1
   117     7     6    1
   118    97    94    1
   119   148   147    2
   120    10     9    1
   121     9     3   am
   122    91    90    1
   123    94    95    1
   124     5     6    1
   125     5     2    1
   126     1     2    1
   127   116   113    1
   128   116   117    1
   129    90    92    1
   130     6     8    1
   131     3     2    1
   132     3     4    2
   133   113   112    1
   134   113   114    1
   135    95    96    2
   136    95   101   am
   137   111   110    2
   138   112   110   am
   139   110   109    1
   140   114   115    2
   141   107   101    1
   142   107   106    1
   143   101   102    1
   144   109   108    1
   145   124   123   ar
   146   106   105    1
   147   102   105    1
   148   102   103    1
   149   123   125   ar
   150   123   122    1
   151   103   104    2
   152   118   119    1
   153   122   119    1
   154   119   120    1
   155   120   121    2
