@<TRIPOS>MOLECULE
tmp/5hcyA00.pdb
 190 180 0 0 0
SMALL
GASTEIGER

@<TRIPOS>ATOM
      1  N        -46.7370    3.6400  -19.0970 N.3    23  LEU23      -0.1231
      2  CA       -47.6610    2.7600  -18.3820 C.3    23  LEU23       0.1693
      3  C        -47.1650    1.3210  -18.4280 C.2    23  LEU23       0.2592
      4  O        -47.3650    0.5700  -17.4690 O.2    23  LEU23      -0.2718
      5  CB       -49.0690    2.8350  -18.9730 C.3    23  LEU23       0.0284
      6  CG       -49.8110    4.1330  -18.7690 C.3    23  LEU23       0.0019
      7  CD1      -51.0780    4.1370  -19.5780 C.3    23  LEU23       0.0001
      8  CD2      -50.0850    4.3930  -17.2890 C.3    23  LEU23       0.0001
      9  N        -46.5290    0.9580  -19.5440 N.am   24  GLY24      -0.1957
     10  CA       -45.9990   -0.3750  -19.7740 C.3    24  GLY24       0.1869
     11  C        -45.1660   -0.4950  -21.0290 C.2    24  GLY24       0.2309
     12  O        -45.3760    0.2270  -22.0090 O.2    24  GLY24      -0.2863
     13  N        -44.7290   -6.1090  -27.0870 N.3    28  PHE28      -0.1241
     14  CA       -45.8630   -5.3940  -27.6800 C.3    28  PHE28       0.1605
     15  C        -45.5000   -3.9540  -28.0760 C.2    28  PHE28       0.2264
     16  O        -46.1720   -3.3550  -28.9160 O.2    28  PHE28      -0.2867
     17  CB       -47.0590   -5.3990  -26.7030 C.3    28  PHE28       0.0534
     18  CG       -46.8350   -4.7770  -25.3400 C.ar   28  PHE28      -0.0203
     19  CD1      -47.0140   -3.4110  -25.1400 C.ar   28  PHE28      -0.0042
     20  CD2      -46.5140   -5.5660  -24.2400 C.ar   28  PHE28      -0.0042
     21  CE1      -46.8400   -2.8420  -23.8760 C.ar   28  PHE28      -0.0003
     22  CE2      -46.3380   -4.9960  -22.9750 C.ar   28  PHE28      -0.0003
     23  CZ       -46.4980   -3.6390  -22.8040 C.ar   28  PHE28      -0.0000
     24  N        -46.3650    1.6780  -24.1940 N.3    31  VAL31      -0.1245
     25  CA       -47.6360    2.3790  -24.0310 C.3    31  VAL31       0.1561
     26  C        -47.4660    3.4650  -22.9550 C.2    31  VAL31       0.2260
     27  O        -47.0700    3.1680  -21.8240 O.2    31  VAL31      -0.2867
     28  CB       -48.8390    1.4180  -23.7610 C.3    31  VAL31       0.0252
     29  CG1      -50.1520    2.1910  -23.6120 C.3    31  VAL31       0.0019
     30  CG2      -48.9700    0.3680  -24.8660 C.3    31  VAL31       0.0019
     31  N        -54.1340    6.7420  -23.9990 N.3    48  ALA48      -0.1245
     32  CA       -53.0310    5.7950  -23.9840 C.3    48  ALA48       0.1562
     33  C        -52.3840    5.9340  -25.3600 C.2    48  ALA48       0.2260
     34  O        -53.0910    6.0130  -26.3800 O.2    48  ALA48      -0.2867
     35  CB       -53.5470    4.3960  -23.7970 C.3    48  ALA48       0.0290
     36  N        -49.5860    4.3660  -27.9850 N.3    50  LYS50      -0.1245
     37  CA       -48.8190    3.1740  -28.3360 C.3    50  LYS50       0.1561
     38  C        -47.8760    3.4100  -29.5120 C.2    50  LYS50       0.2260
     39  O        -48.2420    4.0530  -30.4950 O.2    50  LYS50      -0.2867
     40  CB       -49.7740    2.0190  -28.6790 C.3    50  LYS50       0.0271
     41  CG       -49.1320    0.6430  -28.7000 C.3    50  LYS50       0.0035
     42  CD       -50.0240   -0.3910  -29.3750 C.3    50  LYS50       0.0206
     43  CE       -49.3140   -1.7170  -29.4590 C.3    50  LYS50       0.1093
     44  NZ       -50.2370   -2.8280  -29.8050 N.3    50  LYS50      -0.1314
     45  N        -52.7240   -2.4960  -37.7410 N.3    65  GLU65      -0.1245
     46  CA       -53.4010   -2.4950  -36.4540 C.3    65  GLU65       0.1567
     47  C        -54.3550   -1.2990  -36.3800 C.2    65  GLU65       0.2260
     48  O        -55.4900   -1.4780  -35.9340 O.2    65  GLU65      -0.2867
     49  CB       -52.3590   -2.4490  -35.3340 C.3    65  GLU65       0.0388
     50  CG       -52.9390   -2.4490  -33.9360 C.3    65  GLU65       0.1160
     51  CD       -51.9450   -2.7210  -32.8300 C.2    65  GLU65       0.3649
     52  OE1      -50.8380   -3.2310  -33.1180 O.co2  65  GLU65      -0.2457
     53  OE2      -52.3010   -2.4740  -31.6570 O.co2  65  GLU65      -0.2457
     54  N        -58.3670   -1.2870  -35.8090 N.3    69  MET69      -0.1245
     55  CA       -58.7800   -0.5510  -34.6140 C.3    69  MET69       0.1570
     56  C        -59.6620    0.6860  -34.9030 C.2    69  MET69       0.2261
     57  O        -60.4870    1.0480  -34.0640 O.2    69  MET69      -0.2867
     58  CB       -57.5570   -0.1890  -33.7720 C.3    69  MET69       0.0387
     59  CG       -57.8360   -0.1860  -32.3110 C.3    69  MET69       0.0595
     60  SD       -56.4190    0.3330  -31.3520 S.3    69  MET69      -0.1393
     61  CE       -57.1840    0.5110  -29.7700 C.3    69  MET69       0.0692
     62  N        -62.1400   -1.9430  -28.1130 N.3    78  CYS78      -0.1221
     63  CA       -61.3550   -0.7030  -28.1110 C.3    78  CYS78       0.1808
     64  C        -61.1750   -0.1790  -29.5280 C.2    78  CYS78       0.2601
     65  O        -60.6340   -0.8730  -30.3910 O.2    78  CYS78      -0.2717
     66  CB       -60.0000   -0.9200  -27.4450 C.3    78  CYS78       0.0970
     67  SG       -60.0620   -1.0890  -25.6430 S.3    78  CYS78      -0.0800
     68  N        -61.5900    1.0660  -29.7360 N.am   79  ARG79      -0.1979
     69  CA       -61.5430    1.8300  -30.9720 C.3    79  ARG79       0.1597
     70  C        -60.3370    2.7870  -30.9530 C.2    79  ARG79       0.2287
     71  O        -59.9330    3.2830  -29.8900 O.2    79  ARG79      -0.2864
     72  CB       -62.8500    2.6470  -31.0730 C.3    79  ARG79       0.0334
     73  CG       -63.0890    3.3440  -32.3950 C.3    79  ARG79       0.0492
     74  CD       -64.2060    4.3620  -32.3000 C.3    79  ARG79       0.2205
     75  NE       -63.9440    5.4480  -33.2440 N.pl3  79  ARG79      -0.0865
     76  CZ       -63.3870    6.6150  -32.9220 C.cat  79  ARG79       0.5346
     77  NH1      -63.0970    6.8960  -31.6570 N.pl3  79  ARG79       0.1354
     78  NH2      -63.1540    7.5240  -33.8590 N.pl3  79  ARG79       0.1354
     79  N        -55.2570    6.0580  -28.2710 N.3    93  MET93      -0.1230
     80  CA       -56.3680    5.2280  -27.8180 C.3    93  MET93       0.1702
     81  C        -56.9560    5.7200  -26.4900 C.2    93  MET93       0.2592
     82  O        -56.4200    6.6370  -25.8780 O.2    93  MET93      -0.2718
     83  CB       -55.8560    3.7810  -27.6600 C.3    93  MET93       0.0401
     84  CG       -54.9140    3.3390  -28.7800 C.3    93  MET93       0.0596
     85  SD       -53.8960    1.8960  -28.4110 S.3    93  MET93      -0.1393
     86  CE       -52.9590    2.4980  -27.0150 C.3    93  MET93       0.0692
     87  N        -58.0560    5.1070  -26.0450 N.am   94  GLN94      -0.1966
     88  CA       -58.7020    5.4270  -24.7760 C.3    94  GLN94       0.1733
     89  C        -57.8580    4.9190  -23.6120 C.2    94  GLN94       0.2616
     90  O        -57.3590    3.7940  -23.6570 O.2    94  GLN94      -0.2715
     91  CB       -60.0960    4.7680  -24.7150 C.3    94  GLN94       0.0408
     92  CG       -60.8750    5.0710  -23.4250 C.3    94  GLN94       0.0908
     93  CD       -62.1700    4.3150  -23.3040 C.2    94  GLN94       0.2608
     94  OE1      -62.3810    3.2470  -23.8850 O.2    94  GLN94      -0.2717
     95  NE2      -63.0520    4.8370  -22.4980 N.am   94  GLN94      -0.0878
     96  N        -57.7360    5.7230  -22.5470 N.am   95  LEU95      -0.1963
     97  CA       -57.0520    5.2640  -21.3400 C.3    95  LEU95       0.1728
     98  C        -58.0000    4.3100  -20.6030 C.2    95  LEU95       0.2616
     99  O        -59.1690    4.6390  -20.3740 O.2    95  LEU95      -0.2715
    100  CB       -56.6500    6.4380  -20.4420 C.3    95  LEU95       0.0311
    101  CG       -55.8710    6.1050  -19.1580 C.3    95  LEU95       0.0022
    102  CD1      -54.4400    5.7110  -19.4570 C.3    95  LEU95       0.0001
    103  CD2      -55.9060    7.2580  -18.2010 C.3    95  LEU95       0.0001
    104  N        -57.4920    3.1080  -20.2990 N.am   96  MET96      -0.1964
    105  CA       -58.1530    2.0200  -19.5600 C.3    96  MET96       0.1722
    106  C        -57.3660    2.0070  -18.2540 C.2    96  MET96       0.2458
    107  O        -56.3450    1.3270  -18.1790 O.2    96  MET96      -0.2730
    108  CB       -58.0070    0.7160  -20.3600 C.3    96  MET96       0.0427
    109  CG       -58.5640    0.8200  -21.7850 C.3    96  MET96       0.0599
    110  SD       -60.3470    1.1240  -21.8710 S.3    96  MET96      -0.1393
    111  CE       -60.9720   -0.5480  -21.6470 C.3    96  MET96       0.0692
    112  N        -57.7400    2.8690  -17.2660 N.am   97  PRO97      -0.2716
    113  CA       -56.8340    3.1160  -16.1140 C.3    97  PRO97       0.1536
    114  C        -56.5370    1.9550  -15.1640 C.2    97  PRO97       0.2599
    115  O        -55.6290    2.0830  -14.3460 O.2    97  PRO97      -0.2715
    116  CB       -57.4740    4.2920  -15.3630 C.3    97  PRO97       0.0310
    117  CG       -58.7960    4.5080  -15.9640 C.3    97  PRO97       0.0237
    118  CD       -58.9150    3.7680  -17.2440 C.3    97  PRO97       0.0939
    119  N        -57.2240    0.8310  -15.2970 N.am   98  PHE98      -0.1960
    120  CA       -56.9630   -0.2970  -14.4190 C.3    98  PHE98       0.1771
    121  C        -56.0770   -1.3630  -15.1010 C.2    98  PHE98       0.2620
    122  O        -55.7560   -2.3890  -14.4910 O.2    98  PHE98      -0.2715
    123  CB       -58.2800   -0.8470  -13.8530 C.3    98  PHE98       0.0574
    124  CG       -58.9830    0.1190  -12.9270 C.ar   98  PHE98      -0.0200
    125  CD1      -59.8500    1.0880  -13.4300 C.ar   98  PHE98      -0.0042
    126  CD2      -58.7970    0.0470  -11.5470 C.ar   98  PHE98      -0.0042
    127  CE1      -60.5000    1.9860  -12.5710 C.ar   98  PHE98      -0.0003
    128  CE2      -59.4620    0.9340  -10.6840 C.ar   98  PHE98      -0.0003
    129  CZ       -60.3050    1.8990  -11.2010 C.ar   98  PHE98      -0.0000
    130  N        -55.6240   -1.0450  -16.3220 N.am   99  GLY99      -0.1940
    131  CA       -54.7220   -1.8680  -17.1240 C.3    99  GLY99       0.2014
    132  C        -55.3640   -3.1190  -17.6710 C.2    99  GLY99       0.2639
    133  O        -56.5730   -3.1400  -17.9000 O.2    99  GLY99      -0.2714
    134  N        -54.5590   -4.1690  -17.9020 N.am  100  CYS100     -0.1967
    135  CA       -55.0720   -5.4270  -18.4280 C.3   100  CYS100      0.1712
    136  C        -55.7320   -6.2790  -17.3450 C.2   100  CYS100      0.2296
    137  O        -55.3910   -6.1690  -16.1590 O.2   100  CYS100     -0.2864
    138  CB       -54.0130   -6.1960  -19.2120 C.3   100  CYS100      0.0983
    139  SG       -52.7140   -6.9370  -18.1940 S.3   100  CYS100     -0.0798
    140  N        -53.7060   -9.1460   -8.9950 N.3   107  GLU107     -0.1245
    141  CA       -53.5480   -8.0910   -8.0020 C.3   107  GLU107      0.1567
    142  C        -54.7800   -7.8390   -7.1210 C.2   107  GLU107      0.2260
    143  O        -54.6180   -7.3490   -6.0050 O.2   107  GLU107     -0.2867
    144  CB       -53.0860   -6.7870   -8.6720 C.3   107  GLU107      0.0388
    145  CG       -51.6110   -6.8070   -9.0610 C.3   107  GLU107      0.1160
    146  CD       -51.1570   -5.8420  -10.1400 C.2   107  GLU107      0.3649
    147  OE1      -50.2120   -6.1970  -10.8810 O.co2 107  GLU107     -0.2457
    148  OE2      -51.7240   -4.7280  -10.2370 O.co2 107  GLU107     -0.2457
    149  N        -54.5740  -10.9180  -21.1990 N.3   144  ARG144     -0.1231
    150  CA       -53.6180   -9.8120  -21.3700 C.3   144  ARG144      0.1694
    151  C        -54.1470   -8.7570  -22.3530 C.2   144  ARG144      0.2592
    152  O        -53.7590   -7.5940  -22.2490 O.2   144  ARG144     -0.2718
    153  CB       -52.2240  -10.3170  -21.8140 C.3   144  ARG144      0.0321
    154  CG       -52.1820  -10.9170  -23.2200 C.3   144  ARG144      0.0489
    155  CD       -50.8480  -11.5370  -23.6250 C.3   144  ARG144      0.2205
    156  NE       -51.0070  -12.2380  -24.9030 N.pl3 144  ARG144     -0.0865
    157  CZ       -51.2860  -13.5300  -25.0180 C.cat 144  ARG144      0.5346
    158  NH1      -51.3720  -14.2950  -23.9400 N.pl3 144  ARG144      0.1354
    159  NH2      -51.4780  -14.0680  -26.2120 N.pl3 144  ARG144      0.1354
    160  N        -55.0340   -9.1700  -23.2970 N.am  145  ASN145     -0.1974
    161  CA       -55.5910   -8.3210  -24.3610 C.3   145  ASN145      0.1688
    162  C        -57.0010   -7.7870  -24.0730 C.2   145  ASN145      0.2292
    163  O        -57.6230   -7.1620  -24.9390 O.2   145  ASN145     -0.2864
    164  CB       -55.5250   -9.0460  -25.7060 C.3   145  ASN145      0.1181
    165  CG       -54.1100   -9.2160  -26.1700 C.2   145  ASN145      0.2629
    166  OD1      -53.2180   -8.4350  -25.8300 O.2   145  ASN145     -0.2716
    167  ND2      -53.8650  -10.2300  -26.9640 N.am  145  ASN145     -0.0877
    168  N        -58.7290   -5.1330  -21.5880 N.3   147  LEU147     -0.1245
    169  CA       -58.3930   -4.0170  -20.7060 C.3   147  LEU147      0.1561
    170  C        -59.5480   -3.5910  -19.8300 C.2   147  LEU147      0.2260
    171  O        -60.7030   -3.8120  -20.1710 O.2   147  LEU147     -0.2867
    172  CB       -57.8050   -2.8370  -21.4790 C.3   147  LEU147      0.0270
    173  CG       -56.5870   -3.1200  -22.3730 C.3   147  LEU147      0.0019
    174  CD1      -56.1010   -1.8750  -22.9550 C.3   147  LEU147      0.0001
    175  CD2      -55.4500   -3.7420  -21.6140 C.3   147  LEU147      0.0001
    176  N        -58.9200   -5.5160  -26.8640 N.3   157  THR157     -0.1203
    177  CA       -58.0010   -4.7370  -27.6940 C.3   157  THR157      0.1994
    178  C        -56.9280   -5.6490  -28.3490 C.2   157  THR157      0.2617
    179  O        -57.0800   -6.8750  -28.3500 O.2   157  THR157     -0.2717
    180  CB       -57.4390   -3.5510  -26.9070 C.3   157  THR157      0.1784
    181  OG1      -56.9380   -2.6020  -27.8530 O.3   157  THR157     -0.2211
    182  CG2      -56.3650   -3.9580  -25.8860 C.3   157  THR157      0.0376
    183  N        -55.8480   -5.0290  -28.8950 N.am  158  ASP158     -0.1973
    184  CA       -54.6960   -5.6290  -29.5720 C.3   158  ASP158      0.1709
    185  C        -55.1200   -6.2970  -30.8810 C.2   158  ASP158      0.2293
    186  O        -55.2430   -7.5230  -30.9770 O.2   158  ASP158     -0.2864
    187  CB       -53.8530   -6.5510  -28.6550 C.3   158  ASP158      0.1436
    188  CG       -52.4110   -6.7610  -29.1130 C.2   158  ASP158      0.3671
    189  OD1      -52.1430   -6.6290  -30.3290 O.co2 158  ASP158     -0.2456
    190  OD2      -51.5570   -7.0740  -28.2580 O.co2 158  ASP158     -0.2456
@<TRIPOS>BOND
     1    45    46    1
     2    46    47    1
     3    46    49    1
     4    47    48    2
     5    54    55    1
     6    49    50    1
     7    56    55    1
     8    56    57    2
     9    55    58    1
    10    50    51    1
    11    78    76    1
    12    58    59    1
    13    75    76    2
    14    75    74    1
    15    52    51   ar
    16    76    77    1
    17    51    53   ar
    18    73    74    1
    19    73    72    1
    20    59    60    1
    21    60    61    1
    22    72    69    1
    23   186   185    2
    24    69    70    1
    25    69    68    1
    26    70    71    2
    27   185   184    1
    28    39    38    2
    29    65    64    2
    30   189   188   ar
    31    44    43    1
    32    68    64   am
    33   184   183    1
    34   184   187    1
    35    64    63    1
    36    38    37    1
    37    43    42    1
    38    42    41    1
    39   188   187    1
    40   188   190   ar
    41    16    15    2
    42   183   178   am
    43    84    85    1
    44    84    83    1
    45    41    40    1
    46    40    37    1
    47    85    86    1
    48   179   178    2
    49   178   177    1
    50    37    36    1
    51    79    80    1
    52    62    63    1
    53    63    66    1
    54    15    14    1
    55   181   180    1
    56    80    83    1
    57    80    81    1
    58   177   180    1
    59   177   176    1
    60    14    13    1
    61    14    17    1
    62    66    67    1
    63   167   165   am
    64   180   182    1
    65    17    18    1
    66    81    87   am
    67    81    82    2
    68    34    33    2
    69   159   157    1
    70   165   166    2
    71   165   164    1
    72    87    88    1
    73   164   161    1
    74    33    32    1
    75    18    19   ar
    76    18    20   ar
    77    19    21   ar
    78   157   156    2
    79   157   158    1
    80   163   162    2
    81   156   155    1
    82    30    28    1
    83    88    91    1
    84    88    89    1
    85    91    92    1
    86   161   162    1
    87   161   160    1
    88    20    22   ar
    89    24    25    1
    90    25    28    1
    91    25    26    1
    92    31    32    1
    93    32    35    1
    94    94    93    2
    95    21    23   ar
    96    28    29    1
    97    90    89    2
    98   155   154    1
    99    89    96   am
   100    92    93    1
   101    93    95   am
   102   160   151   am
   103   154   153    1
   104    22    23   ar
   105   174   173    1
   106    26    27    2
   107    96    97    1
   108   173   175    1
   109   173   172    1
   110   151   152    2
   111   151   150    1
   112    12    11    2
   113   110   109    1
   114   110   111    1
   115   153   150    1
   116   109   108    1
   117   168   169    1
   118   172   169    1
   119   150   149    1
   120    97    98    1
   121    97   100    1
   122    11    10    1
   123   169   170    1
   124    98    99    2
   125    98   104   am
   126   100   101    1
   127   108   105    1
   128   104   105    1
   129   171   170    2
   130    10     9    1
   131     7     6    1
   132   105   106    1
   133     9     3   am
   134   102   101    1
   135   138   135    1
   136   138   139    1
   137   101   103    1
   138     1     2    1
   139     5     6    1
   140     5     2    1
   141     6     8    1
   142     3     2    1
   143     3     4    2
   144   135   134    1
   145   135   136    1
   146   106   107    2
   147   106   112   am
   148   134   132   am
   149   133   132    2
   150   132   131    1
   151   136   137    2
   152   112   118    1
   153   112   113    1
   154   118   117    1
   155   131   130    1
   156   130   121   am
   157   113   116    1
   158   113   114    1
   159   117   116    1
   160   119   114   am
   161   119   120    1
   162   114   115    2
   163   121   122    2
   164   121   120    1
   165   120   123    1
   166   123   124    1
   167   125   124   ar
   168   125   127   ar
   169   124   126   ar
   170   127   129   ar
   171   126   128   ar
   172   129   128   ar
   173   147   146   ar
   174   148   146   ar
   175   146   145    1
   176   145   144    1
   177   140   141    1
   178   144   141    1
   179   141   142    1
   180   142   143    2
