@<TRIPOS>MOLECULE
tmp/5hczA00.pdb
 187 176 0 0 0
SMALL
GASTEIGER

@<TRIPOS>ATOM
      1  N        -46.3780    3.7660  -19.3500 N.3    23  LEU23      -0.1231
      2  CA       -47.2770    2.8460  -18.6380 C.3    23  LEU23       0.1693
      3  C        -46.6500    1.4670  -18.6000 C.2    23  LEU23       0.2592
      4  O        -46.6990    0.7970  -17.5710 O.2    23  LEU23      -0.2718
      5  CB       -48.6560    2.7540  -19.3080 C.3    23  LEU23       0.0284
      6  CG       -49.6100    3.9080  -19.0990 C.3    23  LEU23       0.0019
      7  CD1      -50.7950    3.7930  -20.0310 C.3    23  LEU23       0.0001
      8  CD2      -50.0600    4.0100  -17.6540 C.3    23  LEU23       0.0001
      9  N        -46.0800    1.0580  -19.7300 N.am   24  GLY24      -0.1957
     10  CA       -45.4330   -0.2330  -19.8860 C.3    24  GLY24       0.1869
     11  C        -44.6710   -0.3920  -21.1820 C.2    24  GLY24       0.2309
     12  O        -44.9610    0.2700  -22.1790 O.2    24  GLY24      -0.2863
     13  N        -44.6060   -6.2160  -27.0050 N.3    28  PHE28      -0.1241
     14  CA       -45.7500   -5.5100  -27.5850 C.3    28  PHE28       0.1605
     15  C        -45.3680   -4.1030  -28.0600 C.2    28  PHE28       0.2264
     16  O        -46.0770   -3.5130  -28.8800 O.2    28  PHE28      -0.2867
     17  CB       -46.9020   -5.4410  -26.5650 C.3    28  PHE28       0.0534
     18  CG       -46.6070   -4.8090  -25.2190 C.ar   28  PHE28      -0.0203
     19  CD1      -46.7170   -3.4330  -25.0360 C.ar   28  PHE28      -0.0042
     20  CD2      -46.3100   -5.5970  -24.1120 C.ar   28  PHE28      -0.0042
     21  CE1      -46.5020   -2.8540  -23.7790 C.ar   28  PHE28      -0.0003
     22  CE2      -46.0890   -5.0170  -22.8550 C.ar   28  PHE28      -0.0003
     23  CZ       -46.1860   -3.6490  -22.6990 C.ar   28  PHE28      -0.0000
     24  N        -46.1840    1.5640  -24.4560 N.3    31  VAL31      -0.1245
     25  CA       -47.4610    2.2380  -24.2410 C.3    31  VAL31       0.1561
     26  C        -47.2340    3.3690  -23.2220 C.2    31  VAL31       0.2260
     27  O        -46.6840    3.1330  -22.1370 O.2    31  VAL31      -0.2867
     28  CB       -48.6250    1.2760  -23.8430 C.3    31  VAL31       0.0252
     29  CG1      -49.9560    2.0190  -23.7330 C.3    31  VAL31       0.0019
     30  CG2      -48.7510    0.1110  -24.8280 C.3    31  VAL31       0.0019
     31  N        -48.9760    6.9060  -21.1550 N.3    33  LYS33      -0.1245
     32  CA       -50.1470    7.5330  -20.5380 C.3    33  LYS33       0.1561
     33  C        -50.0280    9.0000  -21.0070 C.2    33  LYS33       0.2260
     34  O        -48.9220    9.5540  -20.9910 O.2    33  LYS33      -0.2867
     35  CB       -49.9830    7.4710  -19.0060 C.3    33  LYS33       0.0271
     36  CG       -51.1420    7.9930  -18.1690 C.3    33  LYS33       0.0035
     37  CD       -50.6620    8.3050  -16.7460 C.3    33  LYS33       0.0206
     38  CE       -51.7740    8.4400  -15.7290 C.3    33  LYS33       0.1093
     39  NZ       -52.5820    9.6750  -15.9180 N.3    33  LYS33      -0.1314
     40  N        -54.0040    6.5930  -24.0080 N.3    48  ALA48      -0.1245
     41  CA       -52.8990    5.6530  -24.0330 C.3    48  ALA48       0.1562
     42  C        -52.3240    5.7650  -25.4490 C.2    48  ALA48       0.2260
     43  O        -53.0780    5.8650  -26.4260 O.2    48  ALA48      -0.2867
     44  CB       -53.3870    4.2460  -23.7690 C.3    48  ALA48       0.0290
     45  N        -49.6380    4.0050  -28.0610 N.3    50  LYS50      -0.1245
     46  CA       -48.8480    2.8130  -28.4030 C.3    50  LYS50       0.1561
     47  C        -47.9320    3.0480  -29.6120 C.2    50  LYS50       0.2260
     48  O        -48.3100    3.7420  -30.5570 O.2    50  LYS50      -0.2867
     49  CB       -49.7800    1.6190  -28.6800 C.3    50  LYS50       0.0271
     50  CG       -49.0890    0.2830  -28.9310 C.3    50  LYS50       0.0035
     51  CD       -50.0510   -0.7600  -29.4720 C.3    50  LYS50       0.0206
     52  CE       -49.3400   -2.0730  -29.6560 C.3    50  LYS50       0.1093
     53  NZ       -50.2930   -3.1880  -29.8590 N.3    50  LYS50      -0.1314
     54  N        -52.9090   -2.6660  -37.5350 N.3    64  GLU64      -0.1245
     55  CA       -53.6210   -2.6470  -36.2550 C.3    64  GLU64       0.1567
     56  C        -54.5400   -1.4160  -36.2110 C.2    64  GLU64       0.2260
     57  O        -55.6780   -1.5420  -35.7670 O.2    64  GLU64      -0.2867
     58  CB       -52.6310   -2.6620  -35.0760 C.3    64  GLU64       0.0388
     59  CG       -53.2890   -2.6370  -33.7080 C.3    64  GLU64       0.1160
     60  CD       -52.3870   -2.8400  -32.5070 C.2    64  GLU64       0.3649
     61  OE1      -51.1590   -2.9770  -32.7020 O.co2  64  GLU64      -0.2457
     62  OE2      -52.9150   -2.9030  -31.3710 O.co2  64  GLU64      -0.2457
     63  N        -58.4790   -1.4870  -35.6260 N.3    68  MET68      -0.1245
     64  CA       -58.8920   -0.7490  -34.4360 C.3    68  MET68       0.1570
     65  C        -59.7740    0.4720  -34.7310 C.2    68  MET68       0.2261
     66  O        -60.5950    0.8320  -33.8910 O.2    68  MET68      -0.2867
     67  CB       -57.6730   -0.3680  -33.6060 C.3    68  MET68       0.0387
     68  CG       -57.9550   -0.3260  -32.1600 C.3    68  MET68       0.0595
     69  SD       -56.5440    0.2250  -31.2140 S.3    68  MET68      -0.1393
     70  CE       -57.2790    0.1780  -29.6090 C.3    68  MET68       0.0692
     71  N        -62.1200   -2.1420  -27.9340 N.3    77  CYS77      -0.1235
     72  CA       -61.3260   -0.9100  -27.9140 C.3    77  CYS77       0.1677
     73  C        -61.1930   -0.3410  -29.3240 C.2    77  CYS77       0.2270
     74  O        -60.6950   -1.0310  -30.2120 O.2    77  CYS77      -0.2867
     75  CB       -59.9600   -1.1450  -27.2660 C.3    77  CYS77       0.0956
     76  SG       -59.9830   -1.2200  -25.4480 S.3    77  CYS77      -0.0801
     77  N        -55.3860    5.8350  -28.2360 N.3    92  MET92      -0.1230
     78  CA       -56.4530    5.0040  -27.7090 C.3    92  MET92       0.1702
     79  C        -56.9190    5.5210  -26.3500 C.2    92  MET92       0.2592
     80  O        -56.2720    6.3790  -25.7620 O.2    92  MET92      -0.2718
     81  CB       -55.9090    3.5760  -27.5360 C.3    92  MET92       0.0401
     82  CG       -55.0720    3.0800  -28.7180 C.3    92  MET92       0.0596
     83  SD       -54.0820    1.6190  -28.3630 S.3    92  MET92      -0.1393
     84  CE       -52.9680    2.2520  -27.0970 C.3    92  MET92       0.0692
     85  N        -58.0190    4.9660  -25.8370 N.am   93  GLN93      -0.1966
     86  CA       -58.5970    5.3110  -24.5490 C.3    93  GLN93       0.1733
     87  C        -57.7590    4.7380  -23.3970 C.2    93  GLN93       0.2616
     88  O        -57.4250    3.5480  -23.4070 O.2    93  GLN93      -0.2715
     89  CB       -60.0420    4.7620  -24.4780 C.3    93  GLN93       0.0408
     90  CG       -60.7600    5.0310  -23.1420 C.3    93  GLN93       0.0908
     91  CD       -62.0890    4.3410  -22.9790 C.2    93  GLN93       0.2608
     92  OE1      -62.3610    3.2680  -23.5300 O.2    93  GLN93      -0.2717
     93  NE2      -62.9260    4.9070  -22.1500 N.am   93  GLN93      -0.0878
     94  N        -57.4880    5.5650  -22.3680 N.am   94  LEU94      -0.1963
     95  CA       -56.8200    5.1160  -21.1490 C.3    94  LEU94       0.1728
     96  C        -57.8210    4.2820  -20.3490 C.2    94  LEU94       0.2616
     97  O        -58.9400    4.7330  -20.0810 O.2    94  LEU94      -0.2715
     98  CB       -56.3490    6.3110  -20.3150 C.3    94  LEU94       0.0311
     99  CG       -55.3840    6.0180  -19.1460 C.3    94  LEU94       0.0022
    100  CD1      -53.9870    5.6680  -19.6410 C.3    94  LEU94       0.0001
    101  CD2      -55.2780    7.2100  -18.2510 C.3    94  LEU94       0.0001
    102  N        -57.4410    3.0390  -20.0460 N.am   95  MET95      -0.1964
    103  CA       -58.2360    2.0950  -19.2630 C.3    95  MET95       0.1722
    104  C        -57.5620    2.1380  -17.8900 C.2    95  MET95       0.2458
    105  O        -56.5030    1.5330  -17.7240 O.2    95  MET95      -0.2730
    106  CB       -58.1830    0.7030  -19.9100 C.3    95  MET95       0.0427
    107  CG       -58.5930    0.7050  -21.3850 C.3    95  MET95       0.0599
    108  SD       -60.3390    1.0610  -21.6640 S.3    95  MET95      -0.1393
    109  CE       -61.0540   -0.5260  -21.2590 C.3    95  MET95       0.0692
    110  N        -58.0870    2.9640  -16.9390 N.am   96  PRO96      -0.2716
    111  CA       -57.3800    3.1850  -15.6650 C.3    96  PRO96       0.1536
    112  C        -56.9620    1.9710  -14.8440 C.2    96  PRO96       0.2599
    113  O        -56.0350    2.1000  -14.0440 O.2    96  PRO96      -0.2715
    114  CB       -58.3620    4.0490  -14.8750 C.3    96  PRO96       0.0310
    115  CG       -59.1140    4.7870  -15.9080 C.3    96  PRO96       0.0237
    116  CD       -59.3120    3.7910  -17.0010 C.3    96  PRO96       0.0939
    117  N        -57.6090    0.8150  -15.0290 N.am   97  PHE97      -0.1960
    118  CA       -57.2960   -0.3530  -14.2170 C.3    97  PHE97       0.1771
    119  C        -56.3800   -1.3770  -14.9120 C.2    97  PHE97       0.2620
    120  O        -56.1300   -2.4530  -14.3510 O.2    97  PHE97      -0.2715
    121  CB       -58.5960   -0.9870  -13.6980 C.3    97  PHE97       0.0574
    122  CG       -59.3270   -0.0910  -12.7300 C.ar   97  PHE97      -0.0200
    123  CD1      -60.2650    0.8310  -13.1820 C.ar   97  PHE97      -0.0042
    124  CD2      -59.0560   -0.1450  -11.3670 C.ar   97  PHE97      -0.0042
    125  CE1      -60.9100    1.6930  -12.2870 C.ar   97  PHE97      -0.0003
    126  CE2      -59.7170    0.7050  -10.4700 C.ar   97  PHE97      -0.0003
    127  CZ       -60.6440    1.6110  -10.9360 C.ar   97  PHE97      -0.0000
    128  N        -55.8480   -1.0030  -16.0830 N.am   98  GLY98      -0.1940
    129  CA       -54.9350   -1.8190  -16.8820 C.3    98  GLY98       0.2014
    130  C        -55.5620   -3.0880  -17.4030 C.2    98  GLY98       0.2639
    131  O        -56.7890   -3.1860  -17.4750 O.2    98  GLY98      -0.2714
    132  N        -54.7380   -4.0820  -17.7570 N.am   99  CYS99      -0.1967
    133  CA       -55.2710   -5.3500  -18.2670 C.3    99  CYS99       0.1712
    134  C        -55.8810   -6.2080  -17.1720 C.2    99  CYS99       0.2296
    135  O        -55.4600   -6.1420  -16.0070 O.2    99  CYS99      -0.2864
    136  CB       -54.2380   -6.1160  -19.0900 C.3    99  CYS99       0.0983
    137  SG       -53.0830   -7.0980  -18.1090 S.3    99  CYS99      -0.0798
    138  N        -53.5450   -8.8310  -14.9380 N.3   102  ASP102     -0.1239
    139  CA       -52.8760   -8.2700  -13.7670 C.3   102  ASP102      0.1674
    140  C        -53.8760   -7.8610  -12.6800 C.2   102  ASP102      0.2266
    141  O        -53.5500   -7.9410  -11.5020 O.2   102  ASP102     -0.2867
    142  CB       -51.9480   -7.1170  -14.1670 C.3   102  ASP102      0.1410
    143  CG       -50.8680   -7.4980  -15.1750 C.2   102  ASP102      0.3668
    144  OD1      -50.5360   -6.6560  -16.0300 O.co2 102  ASP102     -0.2456
    145  OD2      -50.3270   -8.6270  -15.0810 O.co2 102  ASP102     -0.2456
    146  N        -54.6790  -11.1380  -21.0100 N.3   143  ARG143     -0.1231
    147  CA       -53.7240  -10.0240  -21.1600 C.3   143  ARG143      0.1694
    148  C        -54.2300   -8.9310  -22.1170 C.2   143  ARG143      0.2592
    149  O        -53.7880   -7.7850  -22.0100 O.2   143  ARG143     -0.2718
    150  CB       -52.3330  -10.5120  -21.6140 C.3   143  ARG143      0.0321
    151  CG       -52.2860  -11.0800  -23.0340 C.3   143  ARG143      0.0489
    152  CD       -50.9280  -11.6740  -23.4210 C.3   143  ARG143      0.2205
    153  NE       -51.0400  -12.4050  -24.6870 N.pl3 143  ARG143     -0.0865
    154  CZ       -51.3780  -13.6890  -24.7900 C.cat 143  ARG143      0.5346
    155  NH1      -51.5880  -14.4190  -23.7020 N.pl3 143  ARG143      0.1354
    156  NH2      -51.4950  -14.2560  -25.9840 N.pl3 143  ARG143      0.1354
    157  N        -55.1210   -9.2990  -23.0680 N.am  144  ASN144     -0.1974
    158  CA       -55.6610   -8.4000  -24.0970 C.3   144  ASN144      0.1688
    159  C        -57.0900   -7.9000  -23.7840 C.2   144  ASN144      0.2292
    160  O        -57.7820   -7.3630  -24.6600 O.2   144  ASN144     -0.2864
    161  CB       -55.5610   -9.0500  -25.4890 C.3   144  ASN144      0.1181
    162  CG       -54.1390   -9.3400  -25.9000 C.2   144  ASN144      0.2629
    163  OD1      -53.2320   -8.5210  -25.7480 O.2   144  ASN144     -0.2716
    164  ND2      -53.9020  -10.5220  -26.4170 N.am  144  ASN144     -0.0877
    165  N        -58.8920   -5.1750  -21.3420 N.3   146  LEU146     -0.1245
    166  CA       -58.5680   -4.0330  -20.4910 C.3   146  LEU146      0.1561
    167  C        -59.7140   -3.6430  -19.6070 C.2   146  LEU146      0.2260
    168  O        -60.8650   -3.9060  -19.9420 O.2   146  LEU146     -0.2867
    169  CB       -58.0330   -2.8380  -21.2920 C.3   146  LEU146      0.0270
    170  CG       -56.8600   -3.0890  -22.2440 C.3   146  LEU146      0.0019
    171  CD1      -56.2550   -1.8320  -22.6330 C.3   146  LEU146      0.0001
    172  CD2      -55.7670   -3.9380  -21.6220 C.3   146  LEU146      0.0001
    173  N        -58.9440   -5.7450  -26.6540 N.3   156  THR156     -0.1203
    174  CA       -58.0000   -4.9840  -27.4750 C.3   156  THR156      0.1994
    175  C        -56.9330   -5.9000  -28.1230 C.2   156  THR156      0.2617
    176  O        -57.0630   -7.1280  -28.0820 O.2   156  THR156     -0.2717
    177  CB       -57.4250   -3.7990  -26.6920 C.3   156  THR156      0.1784
    178  OG1      -56.8500   -2.8980  -27.6380 O.3   156  THR156     -0.2211
    179  CG2      -56.4070   -4.2120  -25.6260 C.3   156  THR156      0.0376
    180  N        -55.8840   -5.2740  -28.7080 N.am  157  ASP157     -0.1973
    181  CA       -54.7340   -5.8330  -29.4310 C.3   157  ASP157      0.1709
    182  C        -55.1760   -6.4670  -30.7460 C.2   157  ASP157      0.2293
    183  O        -55.4380   -7.6650  -30.8180 O.2   157  ASP157     -0.2864
    184  CB       -53.8550   -6.7670  -28.5720 C.3   157  ASP157      0.1436
    185  CG       -52.3930   -6.8440  -29.0090 C.2   157  ASP157      0.3671
    186  OD1      -52.0910   -6.4640  -30.1590 O.co2 157  ASP157     -0.2456
    187  OD2      -51.5520   -7.2830  -28.1970 O.co2 157  ASP157     -0.2456
@<TRIPOS>BOND
     1    54    55    1
     2    55    56    1
     3    55    58    1
     4    56    57    2
     5    63    64    1
     6    58    59    1
     7    65    64    1
     8    65    66    2
     9    64    67    1
    10    59    60    1
    11    67    68    1
    12    61    60   ar
    13    60    62   ar
    14    68    69    1
    15    69    70    1
    16   183   182    2
    17   182   181    1
    18    48    47    2
    19    74    73    2
    20   186   185   ar
    21    53    52    1
    22    52    51    1
    23    47    46    1
    24    51    50    1
    25   181   180    1
    26   181   184    1
    27    73    72    1
    28   185   184    1
    29   185   187   ar
    30    50    49    1
    31    16    15    2
    32    82    83    1
    33    82    81    1
    34   180   175   am
    35    49    46    1
    36    46    45    1
    37    83    84    1
    38    77    78    1
    39   175   176    2
    40   175   174    1
    41    15    14    1
    42    71    72    1
    43    72    75    1
    44    78    81    1
    45    78    79    1
    46   178   177    1
    47    14    13    1
    48    14    17    1
    49   174   177    1
    50   174   173    1
    51    75    76    1
    52   177   179    1
    53    17    18    1
    54    43    42    2
    55   164   162   am
    56    79    85   am
    57    79    80    2
    58   156   154    1
    59   162   163    2
    60   162   161    1
    61    85    86    1
    62   161   158    1
    63    42    41    1
    64    18    19   ar
    65    18    20   ar
    66    19    21   ar
    67    30    28    1
    68   154   153    2
    69   154   155    1
    70   153   152    1
    71   160   159    2
    72    86    89    1
    73    86    87    1
    74    89    90    1
    75    24    25    1
    76    25    28    1
    77    25    26    1
    78    20    22   ar
    79   158   159    1
    80   158   157    1
    81    41    40    1
    82    41    44    1
    83    28    29    1
    84    21    23   ar
    85    92    91    2
    86   152   151    1
    87    88    87    2
    88    87    94   am
    89    26    27    2
    90    90    91    1
    91   157   148   am
    92   151   150    1
    93    91    93   am
    94    22    23   ar
    95   171   170    1
    96    94    95    1
    97   170   172    1
    98   170   169    1
    99    12    11    2
   100   148   149    2
   101   148   147    1
   102   108   107    1
   103   108   109    1
   104   150   147    1
   105   107   106    1
   106   165   166    1
   107   169   166    1
   108    11    10    1
   109   147   146    1
   110    31    32    1
   111    95    96    1
   112    95    98    1
   113    33    34    2
   114    33    32    1
   115    32    35    1
   116   166   167    1
   117    96    97    2
   118    96   102   am
   119    98    99    1
   120   102   103    1
   121     7     6    1
   122   168   167    2
   123   106   103    1
   124    10     9    1
   125     9     3   am
   126   100    99    1
   127     1     2    1
   128     5     6    1
   129     5     2    1
   130   103   104    1
   131    99   101    1
   132     6     8    1
   133   136   133    1
   134   136   137    1
   135    35    36    1
   136     2     3    1
   137     3     4    2
   138   133   132    1
   139   133   134    1
   140    36    37    1
   141   104   105    2
   142   104   110   am
   143   132   130   am
   144   131   130    2
   145   130   129    1
   146   134   135    2
   147   116   110    1
   148   116   115    1
   149   110   111    1
   150   129   128    1
   151    37    38    1
   152   128   119   am
   153   144   143   ar
   154    39    38    1
   155   115   114    1
   156   111   114    1
   157   111   112    1
   158   143   145   ar
   159   143   142    1
   160   117   112   am
   161   117   118    1
   162   138   139    1
   163   119   120    2
   164   119   118    1
   165   112   113    2
   166   118   121    1
   167   142   139    1
   168   139   140    1
   169   121   122    1
   170   123   122   ar
   171   123   125   ar
   172   122   124   ar
   173   140   141    2
   174   125   127   ar
   175   124   126   ar
   176   127   126   ar
