@<TRIPOS>MOLECULE
tmp/5hdaB00.pdb
 115 114 0 0 0
SMALL
GASTEIGER

@<TRIPOS>ATOM
      1  N         42.2110   -3.7320   55.2330 N.3    87  MET87      -0.1230
      2  CA        41.1950   -4.7600   55.4130 C.3    87  MET87       0.1702
      3  C         40.1200   -4.2890   56.3910 C.2    87  MET87       0.2592
      4  O         39.0500   -4.8880   56.4950 O.2    87  MET87      -0.2718
      5  CB        41.8410   -6.0450   55.9440 C.3    87  MET87       0.0401
      6  CG        42.9480   -6.6220   55.0660 C.3    87  MET87       0.0596
      7  SD        42.4140   -7.2170   53.4530 S.3    87  MET87      -0.1393
      8  CE        41.3630   -8.5840   53.9310 C.3    87  MET87       0.0692
      9  N         40.4200   -3.2090   57.1060 N.am   88  TYR88      -0.1962
     10  CA        39.5150   -2.6390   58.0990 C.3    88  TYR88       0.1771
     11  C         39.3030   -1.1480   57.8460 C.2    88  TYR88       0.2620
     12  O         40.2650   -0.4200   57.6310 O.2    88  TYR88      -0.2715
     13  CB        40.0660   -2.8620   59.5090 C.3    88  TYR88       0.0574
     14  CG        40.3640   -4.3110   59.8320 C.ar   88  TYR88      -0.0198
     15  CD1       41.5580   -4.9000   59.4320 C.ar   88  TYR88      -0.0009
     16  CD2       39.4540   -5.0910   60.5350 C.ar   88  TYR88      -0.0009
     17  CE1       41.8370   -6.2210   59.7200 C.ar   88  TYR88       0.0417
     18  CE2       39.7270   -6.4150   60.8290 C.ar   88  TYR88       0.0417
     19  CZ        40.9200   -6.9740   60.4180 C.ar   88  TYR88       0.1957
     20  OH        41.1970   -8.2910   60.7070 O.3    88  TYR88      -0.2866
     21  N         38.0560   -0.6900   57.8750 N.am   89  HIS89      -0.1959
     22  CA        37.7730    0.7300   57.6700 C.3    89  HIS89       0.1787
     23  C         37.4330    1.4500   58.9710 C.2    89  HIS89       0.2620
     24  O         36.5030    1.0580   59.6760 O.2    89  HIS89      -0.2715
     25  CB        36.6260    0.9120   56.6740 C.3    89  HIS89       0.0785
     26  CG        36.3120    2.3450   56.3750 C.ar   89  HIS89       0.0821
     27  ND1       37.1960    3.1820   55.7310 N.ar   89  HIS89      -0.2267
     28  CD2       35.2130    3.0900   56.6410 C.ar   89  HIS89       0.1154
     29  CE1       36.6540    4.3810   55.6080 C.ar   89  HIS89       0.1986
     30  NE2       35.4510    4.3520   56.1530 N.ar   89  HIS89      -0.2212
     31  N         38.1840    2.5010   59.2910 N.am   90  CYS90      -0.1968
     32  CA        37.8580    3.3040   60.4650 C.3    90  CYS90       0.1712
     33  C         37.0160    4.5150   60.0750 C.2    90  CYS90       0.2296
     34  O         35.8440    4.6140   60.4390 O.2    90  CYS90      -0.2864
     35  CB        39.1240    3.7560   61.1900 C.3    90  CYS90       0.0983
     36  SG        38.7960    4.6510   62.7260 S.3    90  CYS90      -0.0798
     37  N         43.0760    0.2000   57.7550 N.3    96  TYR96      -0.1241
     38  CA        44.2070   -0.5530   58.2900 C.3    96  TYR96       0.1605
     39  C         44.2350   -1.9860   57.7740 C.2    96  TYR96       0.2264
     40  O         43.2050   -2.5420   57.4040 O.2    96  TYR96      -0.2867
     41  CB        44.1690   -0.5600   59.8210 C.3    96  TYR96       0.0534
     42  CG        44.1370    0.8160   60.4470 C.ar   96  TYR96      -0.0201
     43  CD1       45.2810    1.6010   60.5010 C.ar   96  TYR96      -0.0009
     44  CD2       42.9630    1.3300   60.9840 C.ar   96  TYR96      -0.0009
     45  CE1       45.2570    2.8600   61.0720 C.ar   96  TYR96       0.0417
     46  CE2       42.9290    2.5870   61.5560 C.ar   96  TYR96       0.0417
     47  CZ        44.0790    3.3480   61.5970 C.ar   96  TYR96       0.1957
     48  OH        44.0520    4.5990   62.1680 O.3    96  TYR96      -0.2866
     49  N         44.5960   -5.1770   63.1690 N.3    99  ILE99      -0.1245
     50  CA        44.2080   -4.5250   64.4120 C.3    99  ILE99       0.1561
     51  C         45.4390   -3.9210   65.0830 C.2    99  ILE99       0.2260
     52  O         45.3600   -2.8760   65.7340 O.2    99  ILE99      -0.2867
     53  CB        43.5150   -5.5160   65.3710 C.3    99  ILE99       0.0252
     54  CG1       42.3310   -6.1960   64.6740 C.3    99  ILE99       0.0019
     55  CG2       43.1090   -4.8310   66.6730 C.3    99  ILE99       0.0019
     56  CD1       41.3720   -5.2330   64.0080 C.3    99  ILE99       0.0001
     57  N         45.9870   -0.6540   63.5410 N.3   102  GLN102     -0.1231
     58  CA        44.9160    0.2240   63.9980 C.3   102  GLN102      0.1698
     59  C         45.1970    0.8140   65.3690 C.2   102  GLN102      0.2592
     60  O         45.0490    2.0130   65.5660 O.2   102  GLN102     -0.2718
     61  CB        43.5780   -0.5090   64.0630 C.3   102  GLN102      0.0381
     62  CG        42.4580    0.4100   64.5350 C.3   102  GLN102      0.0905
     63  CD        41.2820   -0.3280   65.1380 C.2   102  GLN102      0.2608
     64  OE1       41.2660   -1.5570   65.2030 O.2   102  GLN102     -0.2717
     65  NE2       40.2920    0.4260   65.6010 N.am  102  GLN102     -0.0878
     66  N         45.5790   -0.0340   66.3190 N.am  103  GLN103     -0.1979
     67  CA        45.8510    0.4270   67.6780 C.3   103  GLN103      0.1601
     68  C         47.1510    1.2290   67.7470 C.2   103  GLN103      0.2287
     69  O         47.2470    2.1970   68.5140 O.2   103  GLN103     -0.2864
     70  CB        45.8690   -0.7490   68.6620 C.3   103  GLN103      0.0394
     71  CG        46.8790   -1.8350   68.3680 C.3   103  GLN103      0.0908
     72  CD        48.1140   -1.7190   69.2340 C.2   103  GLN103      0.2608
     73  OE1       48.0350   -1.3170   70.3960 O.2   103  GLN103     -0.2717
     74  NE2       49.2640   -2.0750   68.6760 N.am  103  GLN103     -0.0878
     75  N         46.2310    4.4760   66.3930 N.3   106  TRP106     -0.1227
     76  CA        45.2740    5.0660   67.3150 C.3   106  TRP106      0.1737
     77  C         45.9990    5.7850   68.4330 C.2   106  TRP106      0.2595
     78  O         45.8560    6.9930   68.5980 O.2   106  TRP106     -0.2718
     79  CB        44.3420    3.9980   67.8970 C.3   106  TRP106      0.0564
     80  CG        43.3700    4.5370   68.9060 C.ar  106  TRP106      0.0003
     81  CD1       43.4580    4.4340   70.2650 C.ar  106  TRP106      0.0946
     82  CD2       42.1690    5.2690   68.6390 C.ar  106  TRP106      0.0152
     83  NE1       42.3850    5.0510   70.8590 N.ar  106  TRP106     -0.2442
     84  CE2       41.5770    5.5760   69.8800 C.ar  106  TRP106      0.0810
     85  CE3       41.5330    5.6970   67.4680 C.ar  106  TRP106      0.0012
     86  CZ2       40.3850    6.2880   69.9880 C.ar  106  TRP106      0.0191
     87  CZ3       40.3480    6.4030   67.5750 C.ar  106  TRP106      0.0001
     88  CH2       39.7860    6.6900   68.8250 C.ar  106  TRP106      0.0015
     89  N         46.8290    5.0460   69.1600 N.am  107  HIS107     -0.1975
     90  CA        47.5140    5.6110   70.3140 C.3   107  HIS107      0.1656
     91  C         48.6020    6.5920   69.8880 C.2   107  HIS107      0.2291
     92  O         49.0320    7.4320   70.6800 O.2   107  HIS107     -0.2864
     93  CB        48.0850    4.4960   71.1860 C.3   107  HIS107      0.0771
     94  CG        47.0360    3.7340   71.9320 C.ar  107  HIS107      0.0820
     95  ND1       46.7570    2.4080   71.6780 N.ar  107  HIS107     -0.2267
     96  CD2       46.1760    4.1190   72.9050 C.ar  107  HIS107      0.1154
     97  CE1       45.7800    2.0060   72.4700 C.ar  107  HIS107      0.1986
     98  NE2       45.4110    3.0250   73.2260 N.ar  107  HIS107     -0.2212
     99  N         40.1630   11.0970   64.7440 N.3   114  CYS114     -0.1235
    100  CA        39.1640   10.1440   64.2610 C.3   114  CYS114      0.1677
    101  C         37.7950   10.7820   64.0320 C.2   114  CYS114      0.2270
    102  O         37.2120   11.3670   64.9430 O.2   114  CYS114     -0.2867
    103  CB        39.0310    8.9850   65.2500 C.3   114  CYS114      0.0956
    104  SG        38.0100    7.6150   64.6790 S.3   114  CYS114     -0.0801
    105  N         35.1950    9.0070   63.0970 N.3   116  ARG116     -0.1245
    106  CA        34.2420    7.9020   63.1560 C.3   116  ARG116      0.1563
    107  C         33.1230    8.1670   64.1740 C.2   116  ARG116      0.2260
    108  O         33.2400    9.0560   65.0210 O.2   116  ARG116     -0.2867
    109  CB        34.9510    6.5780   63.4640 C.3   116  ARG116      0.0307
    110  CG        34.0980    5.3640   63.1110 C.3   116  ARG116      0.0489
    111  CD        34.7490    4.0340   63.4110 C.3   116  ARG116      0.2205
    112  NE        34.0260    2.9550   62.7390 N.pl3 116  ARG116     -0.0865
    113  CZ        33.5830    1.8550   63.3370 C.cat 116  ARG116      0.5346
    114  NH1       32.9410    0.9300   62.6360 N.pl3 116  ARG116      0.1354
    115  NH2       33.7790    1.6780   64.6350 N.pl3 116  ARG116      0.1354
@<TRIPOS>BOND
     1     7     8    1
     2     7     6    1
     3     6     5    1
     4     1     2    1
     5     2     5    1
     6     2     3    1
     7    29    27   ar
     8    29    30   ar
     9    27    26   ar
    10    30    28   ar
    11    26    28   ar
    12    26    25    1
    13     3     4    2
    14     3     9   am
    15    25    22    1
    16     9    10    1
    17    40    39    2
    18    12    11    2
    19    22    21    1
    20    22    23    1
    21    37    38    1
    22    39    38    1
    23    11    21   am
    24    11    10    1
    25    10    13    1
    26    38    41    1
    27    23    31   am
    28    23    24    2
    29    31    32    1
    30    15    17   ar
    31    15    14   ar
    32    13    14    1
    33    17    19   ar
    34    41    42    1
    35    14    16   ar
    36    33    34    2
    37    33    32    1
    38    19    20    1
    39    19    18   ar
    40    42    43   ar
    41    42    44   ar
    42    32    35    1
    43    43    45   ar
    44    16    18   ar
    45    44    46   ar
    46    45    47   ar
    47    35    36    1
    48    46    47   ar
    49    47    48    1
    50   114   113    1
    51   112   113    2
    52   112   111    1
    53   105   106    1
    54   110   111    1
    55   110   109    1
    56   106   109    1
    57   106   107    1
    58    49    50    1
    59   113   115    1
    60    57    58    1
    61    58    61    1
    62    58    59    1
    63    56    54    1
    64   101   100    1
    65   101   102    2
    66    61    62    1
    67   107   108    2
    68   100    99    1
    69   100   103    1
    70    50    51    1
    71    50    53    1
    72    62    63    1
    73    54    53    1
    74   104   103    1
    75    51    52    2
    76    63    64    2
    77    63    65   am
    78    59    60    2
    79    59    66   am
    80    53    55    1
    81    66    67    1
    82    75    76    1
    83    76    79    1
    84    76    77    1
    85    85    87   ar
    86    85    82   ar
    87    87    88   ar
    88    67    68    1
    89    67    70    1
    90    68    69    2
    91    79    80    1
    92    71    70    1
    93    71    72    1
    94    77    78    2
    95    77    89   am
    96    82    80   ar
    97    82    84   ar
    98    74    72   am
    99    88    86   ar
   100    80    81   ar
   101    89    90    1
   102    72    73    2
   103    84    86   ar
   104    84    83   ar
   105    91    90    1
   106    91    92    2
   107    81    83   ar
   108    90    93    1
   109    93    94    1
   110    95    94   ar
   111    95    97   ar
   112    94    96   ar
   113    97    98   ar
   114    96    98   ar
