@<TRIPOS>MOLECULE
tmp/5hdaA00.pdb
 115 114 0 0 0
SMALL
GASTEIGER

@<TRIPOS>ATOM
      1  N         36.5860   13.9870   47.1910 N.3    91  MET91      -0.1230
      2  CA        35.9890   14.8420   48.2180 C.3    91  MET91       0.1702
      3  C         34.6160   14.3320   48.6670 C.2    91  MET91       0.2592
      4  O         34.0490   14.8320   49.6380 O.2    91  MET91      -0.2718
      5  CB        35.9030   16.2920   47.7330 C.3    91  MET91       0.0401
      6  CG        37.2710   16.9120   47.4640 C.3    91  MET91       0.0596
      7  SD        37.2280   18.5770   46.7810 S.3    91  MET91      -0.1393
      8  CE        36.7320   18.2350   45.0960 C.3    91  MET91       0.0692
      9  N         34.0920   13.3340   47.9600 N.am   92  TYR92      -0.1962
     10  CA        32.8030   12.7320   48.2960 C.3    92  TYR92       0.1771
     11  C         33.0030   11.2440   48.5480 C.2    92  TYR92       0.2620
     12  O         33.6380   10.5620   47.7540 O.2    92  TYR92      -0.2715
     13  CB        31.7750   12.9100   47.1730 C.3    92  TYR92       0.0574
     14  CG        31.4920   14.3300   46.7370 C.ar   92  TYR92      -0.0198
     15  CD1       32.3300   14.9870   45.8460 C.ar   92  TYR92      -0.0009
     16  CD2       30.3580   14.9960   47.1810 C.ar   92  TYR92      -0.0009
     17  CE1       32.0620   16.2790   45.4340 C.ar   92  TYR92       0.0417
     18  CE2       30.0800   16.2860   46.7730 C.ar   92  TYR92       0.0417
     19  CZ        30.9350   16.9230   45.9010 C.ar   92  TYR92       0.1957
     20  OH        30.6610   18.2090   45.4940 O.3    92  TYR92      -0.2866
     21  N         32.4580   10.7390   49.6490 N.am   93  HIS93      -0.1959
     22  CA        32.5740    9.3190   49.9630 C.3    93  HIS93       0.1787
     23  C         31.2680    8.5830   49.6910 C.2    93  HIS93       0.2620
     24  O         30.2290    8.9370   50.2480 O.2    93  HIS93      -0.2715
     25  CB        32.9860    9.1250   51.4230 C.3    93  HIS93       0.0785
     26  CG        33.1910    7.6920   51.8070 C.ar   93  HIS93       0.0821
     27  ND1       34.2020    6.9180   51.2790 N.ar   93  HIS93      -0.2267
     28  CD2       32.5100    6.8920   52.6600 C.ar   93  HIS93       0.1154
     29  CE1       34.1390    5.7040   51.7960 C.ar   93  HIS93       0.1986
     30  NE2       33.1210    5.6600   52.6360 N.ar   93  HIS93      -0.2212
     31  N         31.3120    7.5630   48.8380 N.am   94  CYS94      -0.1968
     32  CA        30.1170    6.7580   48.6120 C.3    94  CYS94       0.1712
     33  C         30.1480    5.5250   49.5070 C.2    94  CYS94       0.2296
     34  O         29.3330    5.3830   50.4190 O.2    94  CYS94      -0.2864
     35  CB        29.9910    6.3530   47.1440 C.3    94  CYS94       0.0983
     36  SG        28.4510    5.4800   46.7720 S.3    94  CYS94      -0.0798
     37  N         34.6410   10.0750   45.0920 N.3   100  TYR100     -0.1241
     38  CA        34.5930   10.8740   43.8740 C.3   100  TYR100      0.1605
     39  C         35.0180   12.3160   44.1170 C.2   100  TYR100      0.2264
     40  O         34.9050   12.8280   45.2300 O.2   100  TYR100     -0.2867
     41  CB        33.1850   10.8530   43.2770 C.3   100  TYR100      0.0534
     42  CG        32.6420    9.4670   43.0160 C.ar  100  TYR100     -0.0201
     43  CD1       33.0940    8.7120   41.9420 C.ar  100  TYR100     -0.0009
     44  CD2       31.6720    8.9150   43.8440 C.ar  100  TYR100     -0.0009
     45  CE1       32.5960    7.4450   41.7010 C.ar  100  TYR100      0.0417
     46  CE2       31.1700    7.6500   43.6100 C.ar  100  TYR100      0.0417
     47  CZ        31.6350    6.9200   42.5390 C.ar  100  TYR100      0.1957
     48  OH        31.1350    5.6610   42.3020 O.3   100  TYR100     -0.2866
     49  N         30.0740   15.1940   41.6700 N.3   103  ILE103     -0.1245
     50  CA        28.8310   14.4660   41.4510 C.3   103  ILE103      0.1561
     51  C         28.7610   13.9560   40.0110 C.2   103  ILE103      0.2260
     52  O         28.2050   12.8920   39.7510 O.2   103  ILE103     -0.2867
     53  CB        27.6000   15.3470   41.7670 C.3   103  ILE103      0.0252
     54  CG1       27.6240   15.7750   43.2370 C.3   103  ILE103      0.0019
     55  CG2       26.3050   14.6050   41.4760 C.3   103  ILE103      0.0019
     56  CD1       26.4160   16.5850   43.6610 C.3   103  ILE103      0.0001
     57  N         30.5500   10.8190   39.9050 N.3   106  GLN106     -0.1231
     58  CA        29.7160    9.8670   40.6290 C.3   106  GLN106      0.1698
     59  C         28.6510    9.2880   39.7040 C.2   106  GLN106      0.2592
     60  O         28.4190    8.0840   39.7060 O.2   106  GLN106     -0.2718
     61  CB        29.0610   10.5120   41.8530 C.3   106  GLN106      0.0381
     62  CG        28.2000    9.5390   42.6510 C.3   106  GLN106      0.0905
     63  CD        27.1790   10.2300   43.5340 C.2   106  GLN106      0.2608
     64  OE1       27.1070   11.4580   43.5800 O.2   106  GLN106     -0.2717
     65  NE2       26.3840    9.4390   44.2450 N.am  106  GLN106     -0.0878
     66  N         28.0060   10.1470   38.9180 N.am  107  GLN107     -0.1979
     67  CA        26.9580    9.7000   38.0070 C.3   107  GLN107      0.1601
     68  C         27.5330    8.8570   36.8790 C.2   107  GLN107      0.2287
     69  O         26.9470    7.8390   36.4900 O.2   107  GLN107     -0.2864
     70  CB        26.2170   10.8940   37.3960 C.3   107  GLN107      0.0394
     71  CG        25.5860   11.8620   38.3770 C.3   107  GLN107      0.0908
     72  CD        25.1390   13.1470   37.7020 C.2   107  GLN107      0.2608
     73  OE1       25.6780   13.5350   36.6630 O.2   107  GLN107     -0.2717
     74  NE2       24.1480   13.8110   38.2850 N.am  107  GLN107     -0.0878
     75  N         28.4990    5.5920   38.2610 N.3   110  TRP110     -0.1227
     76  CA        27.2440    4.9460   38.6280 C.3   110  TRP110      0.1737
     77  C         26.6840    4.2140   37.4190 C.2   110  TRP110      0.2595
     78  O         26.4610    3.0100   37.4730 O.2   110  TRP110     -0.2718
     79  CB        26.2250    5.9570   39.1590 C.3   110  TRP110      0.0564
     80  CG        24.8990    5.3450   39.5180 C.ar  110  TRP110      0.0003
     81  CD1       23.7540    5.3790   38.7750 C.ar  110  TRP110      0.0946
     82  CD2       24.5820    4.6100   40.7020 C.ar  110  TRP110      0.0152
     83  NE1       22.7450    4.7120   39.4240 N.ar  110  TRP110     -0.2442
     84  CE2       23.2310    4.2250   40.6220 C.ar  110  TRP110      0.0810
     85  CE3       25.3120    4.2320   41.8400 C.ar  110  TRP110      0.0012
     86  CZ2       22.5880    3.4910   41.6110 C.ar  110  TRP110      0.0191
     87  CZ3       24.6770    3.5010   42.8280 C.ar  110  TRP110      0.0001
     88  CH2       23.3290    3.1390   42.7080 C.ar  110  TRP110      0.0015
     89  N         26.4800    4.9320   36.3190 N.am  111  HIS111     -0.1975
     90  CA        25.8990    4.3060   35.1340 C.3   111  HIS111      0.1656
     91  C         26.8590    3.3450   34.4420 C.2   111  HIS111      0.2291
     92  O         26.4250    2.4510   33.7150 O.2   111  HIS111     -0.2864
     93  CB        25.4260    5.3630   34.1340 C.3   111  HIS111      0.0771
     94  CG        24.1530    6.0450   34.5330 C.ar  111  HIS111      0.0820
     95  ND1       22.9240    5.4280   34.4270 N.ar  111  HIS111     -0.2267
     96  CD2       23.9170    7.2800   35.0240 C.ar  111  HIS111      0.1154
     97  CE1       21.9850    6.2580   34.8420 C.ar  111  HIS111      0.1986
     98  NE2       22.5570    7.3890   35.2100 N.ar  111  HIS111     -0.2212
     99  N         27.3840   -0.8500   44.3270 N.3   118  CYS118     -0.1235
    100  CA        27.3570    0.0380   45.4920 C.3   118  CYS118      0.1677
    101  C         26.9060   -0.6730   46.7670 C.2   118  CYS118      0.2270
    102  O         25.8040   -1.2170   46.8240 O.2   118  CYS118     -0.2867
    103  CB        26.4430    1.2350   45.2250 C.3   118  CYS118      0.0956
    104  SG        26.5160    2.5180   46.4960 S.3   118  CYS118     -0.0801
    105  N         26.6750    0.9170   49.7520 N.3   120  ARG120     -0.1245
    106  CA        26.2810    1.9120   50.7420 C.3   120  ARG120      0.1563
    107  C         24.9460    1.5430   51.3610 C.2   120  ARG120      0.2260
    108  O         23.9940    1.1960   50.6560 O.2   120  ARG120     -0.2867
    109  CB        26.1830    3.3060   50.1100 C.3   120  ARG120      0.0307
    110  CG        25.9400    4.4380   51.1080 C.3   120  ARG120      0.0489
    111  CD        25.7840    5.7890   50.4060 C.3   120  ARG120      0.2205
    112  NE        25.7410    6.9010   51.3550 N.pl3 120  ARG120     -0.0865
    113  CZ        26.7790    7.6640   51.6790 C.cat 120  ARG120      0.5346
    114  NH1       27.9640    7.4460   51.1290 N.pl3 120  ARG120      0.1354
    115  NH2       26.6300    8.6480   52.5560 N.pl3 120  ARG120      0.1354
@<TRIPOS>BOND
     1    92    91    2
     2    93    94    1
     3    93    90    1
     4    95    94   ar
     5    95    97   ar
     6    91    90    1
     7    94    96   ar
     8    97    98   ar
     9    96    98   ar
    10    90    89    1
    11    89    77   am
    12    69    68    2
    13    73    72    2
    14    68    67    1
    15    70    67    1
    16    70    71    1
    17    77    78    2
    18    77    76    1
    19    72    74   am
    20    72    71    1
    21    67    66    1
    22    75    76    1
    23    76    79    1
    24    81    83   ar
    25    81    80   ar
    26    66    59   am
    27    79    80    1
    28    83    84   ar
    29    80    82   ar
    30    59    60    2
    31    59    58    1
    32    52    51    2
    33    57    58    1
    34    51    50    1
    35    84    82   ar
    36    84    86   ar
    37    58    61    1
    38    82    85   ar
    39    50    49    1
    40    50    53    1
    41    55    53    1
    42    86    88   ar
    43    45    43   ar
    44    45    47   ar
    45    53    54    1
    46    85    87   ar
    47    61    62    1
    48    43    42   ar
    49    48    47    1
    50    47    46   ar
    51    62    63    1
    52    88    87   ar
    53    42    41    1
    54    42    44   ar
    55    54    56    1
    56    41    38    1
    57    63    64    2
    58    63    65   am
    59    46    44   ar
    60    38    39    1
    61    38    37    1
    62    39    40    2
    63    99   100    1
    64     8     7    1
    65   103   100    1
    66   103   104    1
    67    17    15   ar
    68    17    19   ar
    69   100   101    1
    70    20    19    1
    71    15    14   ar
    72    19    18   ar
    73    14    13    1
    74    14    16   ar
    75   101   102    2
    76    36    35    1
    77    18    16   ar
    78     7     6    1
    79    35    32    1
    80    13    10    1
    81     1     2    1
    82     6     5    1
    83     5     2    1
    84    12    11    2
    85     9    10    1
    86     9     3   am
    87     2     3    1
    88    10    11    1
    89    11    21   am
    90    32    31    1
    91    32    33    1
    92     3     4    2
    93    31    23   am
    94    33    34    2
    95    21    22    1
    96    23    22    1
    97    23    24    2
    98   105   106    1
    99    22    25    1
   100   109   106    1
   101   109   110    1
   102   111   110    1
   103   111   112    1
   104   108   107    2
   105   106   107    1
   106   114   113    1
   107    27    29   ar
   108    27    26   ar
   109   112   113    2
   110    25    26    1
   111   113   115    1
   112    29    30   ar
   113    26    28   ar
   114    30    28   ar
