@<TRIPOS>MOLECULE
tmp/5hdbD00.pdb
 96 93 0 0 0
SMALL
GASTEIGER

@<TRIPOS>ATOM
      1  N         69.0140  102.6810   94.6320 N.3   121  SER121     -0.1202
      2  CA        70.3950  102.2920   94.4200 C.3   121  SER121      0.2020
      3  C         70.7120  102.3350   92.9250 C.2   121  SER121      0.2619
      4  O         69.8220  102.4180   92.0740 O.2   121  SER121     -0.2717
      5  CB        70.6530  100.9010   94.9980 C.3   121  SER121      0.2103
      6  OG        70.0620   99.8910   94.2010 O.3   121  SER121     -0.2182
      7  N         72.0060  102.2780   92.6030 N.am  122  TYR122     -0.1961
      8  CA        72.4290  102.4780   91.2210 C.3   122  TYR122      0.1771
      9  C         71.7960  101.4750   90.2660 C.2   122  TYR122      0.2620
     10  O         71.7310  101.7410   89.0610 O.2   122  TYR122     -0.2715
     11  CB        73.9530  102.4010   91.1170 C.3   122  TYR122      0.0574
     12  CG        74.4870  102.8490   89.7740 C.ar  122  TYR122     -0.0198
     13  CD1       74.2720  104.1440   89.3180 C.ar  122  TYR122     -0.0009
     14  CD2       75.2090  101.9820   88.9640 C.ar  122  TYR122     -0.0009
     15  CE1       74.7550  104.5600   88.0930 C.ar  122  TYR122      0.0417
     16  CE2       75.6980  102.3900   87.7370 C.ar  122  TYR122      0.0417
     17  CZ        75.4690  103.6810   87.3060 C.ar  122  TYR122      0.1957
     18  OH        75.9530  104.0940   86.0850 O.3   122  TYR122     -0.2866
     19  N         71.3250  100.3380   90.7680 N.am  123  SER123     -0.1950
     20  CA        70.6870   99.3330   89.9300 C.3   123  SER123      0.1924
     21  C         69.2260   99.6520   89.6230 C.2   123  SER123      0.2314
     22  O         68.5180   98.7830   89.1030 O.2   123  SER123     -0.2863
     23  CB        70.7910   97.9590   90.6010 C.3   123  SER123      0.2116
     24  OG        70.7350   98.0740   92.0140 O.3   123  SER123     -0.2180
     25  N         80.7260  104.6820   99.5670 N.3   166  TYR166     -0.1241
     26  CA        82.0290  105.0850   99.0520 C.3   166  TYR166      0.1605
     27  C         82.4730  106.3470   99.7790 C.2   166  TYR166      0.2264
     28  O         81.7430  107.3440   99.8000 O.2   166  TYR166     -0.2867
     29  CB        81.9640  105.3240   97.5460 C.3   166  TYR166      0.0534
     30  CG        81.7160  104.0760   96.7320 C.ar  166  TYR166     -0.0201
     31  CD1       82.7260  103.1460   96.5290 C.ar  166  TYR166     -0.0009
     32  CD2       80.4780  103.8320   96.1590 C.ar  166  TYR166     -0.0009
     33  CE1       82.5070  102.0060   95.7850 C.ar  166  TYR166      0.0417
     34  CE2       80.2500  102.6940   95.4130 C.ar  166  TYR166      0.0417
     35  CZ        81.2690  101.7850   95.2290 C.ar  166  TYR166      0.1957
     36  OH        81.0490  100.6490   94.4870 O.3   166  TYR166     -0.2866
     37  N         82.8310  107.2580   87.3370 N.3   180  MET180     -0.1245
     38  CA        82.0930  107.0280   86.1080 C.3   180  MET180      0.1570
     39  C         81.7850  108.3660   85.4510 C.2   180  MET180      0.2261
     40  O         81.6640  109.3950   86.1210 O.2   180  MET180     -0.2867
     41  CB        80.8010  106.2620   86.3910 C.3   180  MET180      0.0387
     42  CG        81.0340  104.9140   87.0520 C.3   180  MET180      0.0595
     43  SD        79.5200  104.1390   87.6380 S.3   180  MET180     -0.1393
     44  CE        80.1540  102.5520   88.1720 C.3   180  MET180      0.0692
     45  N         74.3480  105.6350   94.6770 N.3   214  ARG214     -0.1231
     46  CA        75.1900  104.4730   94.4320 C.3   214  ARG214      0.1694
     47  C         75.8490  104.0520   95.7360 C.2   214  ARG214      0.2592
     48  O         76.2990  104.8990   96.5120 O.2   214  ARG214     -0.2718
     49  CB        76.2530  104.7800   93.3690 C.3   214  ARG214      0.0321
     50  CG        77.1270  103.5980   92.9850 C.3   214  ARG214      0.0489
     51  CD        78.3600  104.0570   92.2280 C.3   214  ARG214      0.2205
     52  NE        79.3170  102.9740   92.0250 N.pl3 214  ARG214     -0.0865
     53  CZ        80.5970  103.1550   91.7180 C.cat 214  ARG214      0.5346
     54  NH1       81.0880  104.3800   91.5840 N.pl3 214  ARG214      0.1354
     55  NH2       81.3930  102.1080   91.5510 N.pl3 214  ARG214      0.1354
     56  N         75.8980  102.7410   95.9680 N.am  215  ASN215     -0.1960
     57  CA        76.5840  102.1790   97.1210 C.3   215  ASN215      0.1819
     58  C         77.3940  100.9760   96.6570 C.2   215  ASN215      0.2621
     59  O         77.4620  100.6710   95.4630 O.2   215  ASN215     -0.2715
     60  CB        75.5970  101.8010   98.2310 C.3   215  ASN215      0.1195
     61  CG        74.8070  100.5510   97.9140 C.2   215  ASN215      0.2630
     62  OD1       75.0180   99.5010   98.5190 O.2   215  ASN215     -0.2716
     63  ND2       73.8800  100.6610   96.9720 N.am  215  ASN215     -0.0877
     64  N         78.0090  100.2820   97.6130 N.am  216  ARG216     -0.1963
     65  CA        78.9770   99.2360   97.3050 C.3   216  ARG216      0.1729
     66  C         78.3680   97.8380   97.2840 C.2   216  ARG216      0.2616
     67  O         78.5410   97.1070   96.3050 O.2   216  ARG216     -0.2715
     68  CB        80.1300   99.2830   98.3170 C.3   216  ARG216      0.0348
     69  CG        81.2260   98.2690   98.0430 C.3   216  ARG216      0.0492
     70  CD        82.4080   98.4230   98.9860 C.3   216  ARG216      0.2205
     71  NE        83.2990   99.5140   98.5930 N.pl3 216  ARG216     -0.0865
     72  CZ        83.5960  100.5690   99.3480 C.cat 216  ARG216      0.5346
     73  NH1       83.0890  100.7080  100.5660 N.pl3 216  ARG216      0.1354
     74  NH2       84.4220  101.4950   98.8820 N.pl3 216  ARG216      0.1354
     75  N         77.6570   97.4480   98.3390 N.am  217  ASP217     -0.1957
     76  CA        77.2160   96.0680   98.5030 C.3   217  ASP217      0.1840
     77  C         75.8420   95.8480   97.8830 C.2   217  ASP217      0.2621
     78  O         74.9730   96.7250   97.9310 O.2   217  ASP217     -0.2715
     79  CB        77.1790   95.6910   99.9850 C.3   217  ASP217      0.1450
     80  CG        76.1820   96.5160  100.7710 C.2   217  ASP217      0.3671
     81  OD1       76.0350   97.7170  100.4690 O.co2 217  ASP217     -0.2456
     82  OD2       75.5460   95.9600  101.6890 O.co2 217  ASP217     -0.2456
     83  N         75.6500   94.6530   97.3180 N.am  218  ALA218     -0.1977
     84  CA        74.3890   94.3290   96.6540 C.3   218  ALA218      0.1597
     85  C         73.1900   94.4660   97.5780 C.2   218  ALA218      0.2287
     86  O         72.2110   95.1250   97.1880 O.2   218  ALA218     -0.2864
     87  CB        74.4630   92.9170   96.0640 C.3   218  ALA218      0.0319
     88  N         70.5720   95.9140  100.1110 N.3   220  GLU220     -0.1245
     89  CA        70.2490   97.3090  100.3580 C.3   220  GLU220      0.1567
     90  C         69.5210   97.4510  101.6870 C.2   220  GLU220      0.2260
     91  O         68.9780   96.4870  102.2330 O.2   220  GLU220     -0.2867
     92  CB        69.3920   97.8830   99.2200 C.3   220  GLU220      0.0388
     93  CG        69.8450   97.4780   97.8190 C.3   220  GLU220      0.1160
     94  CD        71.2000   98.0530   97.4300 C.2   220  GLU220      0.3649
     95  OE1       71.9800   98.4330   98.3290 O.co2 220  GLU220     -0.2457
     96  OE2       71.4820   98.1250   96.2120 O.co2 220  GLU220     -0.2457
@<TRIPOS>BOND
     1    39    38    1
     2    39    40    2
     3    18    17    1
     4    38    41    1
     5    38    37    1
     6    41    42    1
     7    42    43    1
     8    17    16   ar
     9    17    15   ar
    10    43    44    1
    11    16    14   ar
    12    15    13   ar
    13    14    12   ar
    14    10     9    2
    15    22    21    2
    16    13    12   ar
    17    21    20    1
    18    12    11    1
    19    20    23    1
    20    20    19    1
    21     9    19   am
    22     9     8    1
    23    23    24    1
    24    11     8    1
    25     8     7    1
    26    55    53    1
    27    54    53    1
    28    53    52    2
    29    52    51    1
    30     4     3    2
    31    51    50    1
    32     7     3   am
    33     3     2    1
    34    50    49    1
    35    49    46    1
    36     6     5    1
    37     2     1    1
    38     2     5    1
    39    46    45    1
    40    46    47    1
    41    36    35    1
    42    35    34   ar
    43    35    33   ar
    44    34    32   ar
    45    59    58    2
    46    47    56   am
    47    47    48    2
    48    33    31   ar
    49    56    57    1
    50    87    84    1
    51    32    30   ar
    52    96    94   ar
    53    67    66    2
    54    31    30   ar
    55    84    83    1
    56    84    85    1
    57    58    57    1
    58    58    64   am
    59    30    29    1
    60    63    61   am
    61    57    60    1
    62    86    85    2
    63    66    65    1
    64    66    75   am
    65    65    64    1
    66    65    68    1
    67    83    77   am
    68    94    93    1
    69    94    95   ar
    70    29    26    1
    71    93    92    1
    72    77    78    2
    73    77    76    1
    74    61    60    1
    75    61    62    2
    76    69    68    1
    77    69    70    1
    78    75    76    1
    79    76    79    1
    80    71    70    1
    81    71    72    2
    82    74    72    1
    83    26    25    1
    84    26    27    1
    85    92    89    1
    86    72    73    1
    87    27    28    2
    88    79    80    1
    89    88    89    1
    90    89    90    1
    91    81    80   ar
    92    80    82   ar
    93    90    91    2
