@<TRIPOS>MOLECULE
tmp/5hdbA00.pdb
 110 111 0 0 0
SMALL
GASTEIGER

@<TRIPOS>ATOM
      1  N         45.0330  106.7320   79.6810 N.3   159  ASP159     -0.1225
      2  CA        46.4650  106.6450   79.4100 C.3   159  ASP159      0.1805
      3  C         46.7680  105.8550   78.1410 C.2   159  ASP159      0.2598
      4  O         47.7980  105.1830   78.0510 O.2   159  ASP159     -0.2718
      5  CB        47.2070  106.0390   80.6040 C.3   159  ASP159      0.1424
      6  CG        46.7510  106.6240   81.9260 C.2   159  ASP159      0.3668
      7  OD1       47.0800  107.7970   82.2020 O.co2 159  ASP159     -0.2456
      8  OD2       46.0620  105.9130   82.6880 O.co2 159  ASP159     -0.2456
      9  N         45.8780  105.9300   77.1520 N.am  160  PHE160     -0.1962
     10  CA        46.1090  105.3220   75.8410 C.3   160  PHE160      0.1771
     11  C         46.3600  103.8210   75.9540 C.2   160  PHE160      0.2620
     12  O         47.2700  103.2770   75.3260 O.2   160  PHE160     -0.2715
     13  CB        47.2680  106.0070   75.1160 C.3   160  PHE160      0.0574
     14  CG        47.0380  107.4660   74.8580 C.ar  160  PHE160     -0.0200
     15  CD1       46.1040  107.8780   73.9250 C.ar  160  PHE160     -0.0042
     16  CD2       47.7530  108.4250   75.5490 C.ar  160  PHE160     -0.0042
     17  CE1       45.8860  109.2180   73.6890 C.ar  160  PHE160     -0.0003
     18  CE2       47.5400  109.7670   75.3160 C.ar  160  PHE160     -0.0003
     19  CZ        46.6060  110.1630   74.3850 C.ar  160  PHE160     -0.0000
     20  N         45.5480  103.1460   76.7610 N.am  161  SER161     -0.1936
     21  CA        45.5710  101.6940   76.8530 C.3   161  SER161      0.2055
     22  C         44.4800  101.1230   75.9600 C.2   161  SER161      0.2643
     23  O         43.4040  101.7130   75.8250 O.2   161  SER161     -0.2714
     24  CB        45.3610  101.2290   78.2950 C.3   161  SER161      0.2130
     25  OG        44.0700  101.5810   78.7600 O.3   161  SER161     -0.2179
     26  N         44.7640   99.9770   75.3480 N.am  162  TRP162     -0.1973
     27  CA        43.8100   99.3130   74.4650 C.3   162  TRP162      0.1640
     28  C         43.3000  100.2800   73.3990 C.2   162  TRP162      0.2290
     29  O         42.1010  100.3850   73.1320 O.2   162  TRP162     -0.2864
     30  CB        42.6600   98.7140   75.2740 C.3   162  TRP162      0.0576
     31  CG        43.1490   97.8180   76.3670 C.ar  162  TRP162      0.0006
     32  CD1       43.3890   98.1630   77.6640 C.ar  162  TRP162      0.0946
     33  CD2       43.4830   96.4310   76.2540 C.ar  162  TRP162      0.0152
     34  NE1       43.8460   97.0770   78.3670 N.ar  162  TRP162     -0.2442
     35  CE2       43.9110   96.0000   77.5240 C.ar  162  TRP162      0.0810
     36  CE3       43.4570   95.5100   75.2030 C.ar  162  TRP162      0.0012
     37  CZ2       44.3090   94.6890   77.7710 C.ar  162  TRP162      0.0191
     38  CZ3       43.8510   94.2100   75.4510 C.ar  162  TRP162      0.0001
     39  CH2       44.2730   93.8110   76.7240 C.ar  162  TRP162      0.0015
     40  N         47.1790   99.1400   69.4890 N.3   189  TYR189     -0.1227
     41  CA        47.6300   99.4330   70.8460 C.3   189  TYR189      0.1736
     42  C         48.7530  100.4670   70.8300 C.2   189  TYR189      0.2595
     43  O         49.8190  100.2750   71.4170 O.2   189  TYR189     -0.2718
     44  CB        48.0640   98.1530   71.5610 C.3   189  TYR189      0.0548
     45  CG        46.9880   97.0910   71.6080 C.ar  189  TYR189     -0.0200
     46  CD1       45.6450   97.4360   71.6730 C.ar  189  TYR189     -0.0009
     47  CD2       47.3130   95.7450   71.5810 C.ar  189  TYR189     -0.0009
     48  CE1       44.6620   96.4720   71.7140 C.ar  189  TYR189      0.0417
     49  CE2       46.3350   94.7740   71.6210 C.ar  189  TYR189      0.0417
     50  CZ        45.0120   95.1440   71.6880 C.ar  189  TYR189      0.1957
     51  OH        44.0350   94.1790   71.7290 O.3   189  TYR189     -0.2866
     52  N         48.4970  101.5780   70.1460 N.am  190  TYR190     -0.1976
     53  CA        49.4450  102.6810   70.0260 C.3   190  TYR190      0.1639
     54  C         50.7860  102.1870   69.4830 C.2   190  TYR190      0.2290
     55  O         51.8420  102.3370   70.1000 O.2   190  TYR190     -0.2864
     56  CB        49.6190  103.3980   71.3640 C.3   190  TYR190      0.0560
     57  CG        49.7640  104.8960   71.2270 C.ar  190  TYR190     -0.0198
     58  CD1       50.9990  105.4760   70.9790 C.ar  190  TYR190     -0.0009
     59  CD2       48.6630  105.7300   71.3430 C.ar  190  TYR190     -0.0009
     60  CE1       51.1310  106.8430   70.8530 C.ar  190  TYR190      0.0417
     61  CE2       48.7880  107.0970   71.2180 C.ar  190  TYR190      0.0417
     62  CZ        50.0230  107.6470   70.9730 C.ar  190  TYR190      0.1957
     63  OH        50.1490  109.0090   70.8480 O.3   190  TYR190     -0.2866
     64  N         52.0010   99.2690   69.0480 N.3   192  LEU192     -0.1245
     65  CA        52.5920   98.0330   69.5470 C.3   192  LEU192      0.1561
     66  C         52.4170   96.9050   68.5440 C.2   192  LEU192      0.2260
     67  O         53.3370   96.1090   68.3300 O.2   192  LEU192     -0.2867
     68  CB        51.9560   97.6370   70.8780 C.3   192  LEU192      0.0270
     69  CG        52.7960   97.8780   72.1260 C.3   192  LEU192      0.0019
     70  CD1       52.8950   99.3600   72.3880 C.3   192  LEU192      0.0001
     71  CD2       52.2030   97.1460   73.3160 C.3   192  LEU192      0.0001
     72  N         47.1550   94.0760   74.6780 N.3   224  ASP224     -0.1225
     73  CA        48.0450   95.1930   74.9360 C.3   224  ASP224      0.1805
     74  C         49.1510   94.7650   75.9000 C.2   224  ASP224      0.2598
     75  O         49.1430   93.6610   76.4490 O.2   224  ASP224     -0.2718
     76  CB        47.2540   96.3670   75.5110 C.3   224  ASP224      0.1424
     77  CG        47.9560   97.6890   75.3310 C.2   224  ASP224      0.3668
     78  OD1       49.1680   97.6880   75.0360 O.co2 224  ASP224     -0.2456
     79  OD2       47.2920   98.7330   75.4890 O.co2 224  ASP224     -0.2456
     80  N         50.1140   95.6580   76.1060 N.am  225  SER225     -0.1938
     81  CA        51.2350   95.3620   76.9840 C.3   225  SER225      0.2055
     82  C         51.8050   96.6580   77.5350 C.2   225  SER225      0.2643
     83  O         51.6230   97.7340   76.9640 O.2   225  SER225     -0.2714
     84  CB        52.3290   94.5790   76.2530 C.3   225  SER225      0.2130
     85  OG        53.4640   94.4060   77.0820 O.3   225  SER225     -0.2179
     86  N         52.5020   96.5370   78.6620 N.am  226  SER226     -0.1949
     87  CA        53.2280   97.6480   79.2580 C.3   226  SER226      0.1924
     88  C         54.7340   97.4630   79.1740 C.2   226  SER226      0.2314
     89  O         55.4780   98.2890   79.7130 O.2   226  SER226     -0.2863
     90  CB        52.8100   97.8280   80.7210 C.3   226  SER226      0.2116
     91  OG        53.1560   96.6920   81.4930 O.3   226  SER226     -0.2180
     92  N         57.1410   98.2660   72.4920 N.3   231  PHE231     -0.1227
     93  CA        56.7650   99.5910   72.0190 C.3   231  PHE231      0.1736
     94  C         57.3120   99.8290   70.6190 C.2   231  PHE231      0.2595
     95  O         58.4790   99.5390   70.3390 O.2   231  PHE231     -0.2718
     96  CB        57.2840  100.6680   72.9740 C.3   231  PHE231      0.0547
     97  CG        56.5700  100.7140   74.2990 C.ar  231  PHE231     -0.0202
     98  CD1       55.6240   99.7610   74.6390 C.ar  231  PHE231     -0.0042
     99  CD2       56.8460  101.7220   75.2040 C.ar  231  PHE231     -0.0042
    100  CE1       54.9730   99.8130   75.8520 C.ar  231  PHE231     -0.0003
    101  CE2       56.1970  101.7760   76.4200 C.ar  231  PHE231     -0.0003
    102  CZ        55.2590  100.8200   76.7430 C.ar  231  PHE231     -0.0000
    103  N         56.4630  100.3640   69.7420 N.am  232  ASP232     -0.1974
    104  CA        56.8550  100.6840   68.3710 C.3   232  ASP232      0.1709
    105  C         57.4940   99.4750   67.6950 C.2   232  ASP232      0.2293
    106  O         58.4250   99.6000   66.8970 O.2   232  ASP232     -0.2864
    107  CB        57.7990  101.8860   68.3430 C.3   232  ASP232      0.1436
    108  CG        57.2800  103.0530   69.1620 C.2   232  ASP232      0.3671
    109  OD1       56.3450  103.7400   68.7000 O.co2 232  ASP232     -0.2456
    110  OD2       57.8090  103.2870   70.2690 O.co2 232  ASP232     -0.2456
@<TRIPOS>BOND
     1   106   105    2
     2   105   104    1
     3    67    66    2
     4   107   104    1
     5   107   108    1
     6   104   103    1
     7    66    65    1
     8   109   108   ar
     9    64    65    1
    10   108   110   ar
    11    54    53    1
    12    54    55    2
    13    40    41    1
    14    65    68    1
    15   103    94   am
    16    53    52    1
    17    53    56    1
    18    52    42   am
    19    95    94    2
    20    94    93    1
    21    42    41    1
    22    42    43    2
    23    41    44    1
    24    63    62    1
    25    60    62   ar
    26    60    58   ar
    27    68    69    1
    28    62    61   ar
    29    58    57   ar
    30    61    59   ar
    31    57    59   ar
    32    57    56    1
    33    44    45    1
    34    47    45   ar
    35    47    49   ar
    36    45    46   ar
    37    49    50   ar
    38    46    48   ar
    39    50    48   ar
    40    50    51    1
    41    93    92    1
    42    93    96    1
    43    69    70    1
    44    69    71    1
    45    96    97    1
    46    29    28    2
    47    28    27    1
    48    17    15   ar
    49    17    19   ar
    50    15    14   ar
    51    97    98   ar
    52    97    99   ar
    53    19    18   ar
    54    27    30    1
    55    27    26    1
    56    98   100   ar
    57    72    73    1
    58    14    13    1
    59    14    16   ar
    60    73    76    1
    61    73    74    1
    62    78    77   ar
    63    13    10    1
    64    36    38   ar
    65    36    33   ar
    66    99   101   ar
    67    30    31    1
    68    18    16   ar
    69    12    11    2
    70    77    79   ar
    71    77    76    1
    72    26    22   am
    73    38    39   ar
    74    23    22    2
    75    10    11    1
    76    10     9    1
    77   100   102   ar
    78    74    80   am
    79    74    75    2
    80    11    20   am
    81    22    21    1
    82    80    81    1
    83    84    81    1
    84    84    85    1
    85    33    31   ar
    86    33    35   ar
    87    31    32   ar
    88   101   102   ar
    89    39    37   ar
    90    20    21    1
    91    21    24    1
    92    83    82    2
    93    81    82    1
    94     9     3   am
    95    35    37   ar
    96    35    34   ar
    97    82    86   am
    98    32    34   ar
    99     4     3    2
   100     3     2    1
   101    24    25    1
   102    86    87    1
   103    88    87    1
   104    88    89    2
   105    87    90    1
   106     2     1    1
   107     2     5    1
   108     5     6    1
   109    90    91    1
   110     6     7   ar
   111     6     8   ar
