@<TRIPOS>MOLECULE
tmp/5hdjB01.pdb
 135 130 0 0 0
SMALL
GASTEIGER

@<TRIPOS>ATOM
      1  N         72.9160  103.4360    2.0640 N.3    11  HIS11      -0.1226
      2  CA        73.2790  103.1310    3.4400 C.3    11  HIS11       0.1752
      3  C         74.6380  102.4790    3.6880 C.2    11  HIS11       0.2596
      4  O         75.0540  101.5690    2.9760 O.2    11  HIS11      -0.2718
      5  CB        72.1740  102.3160    4.1430 C.3    11  HIS11       0.0759
      6  CG        72.6180  101.7380    5.4520 C.ar   11  HIS11       0.0818
      7  ND1       73.2160  100.4900    5.5260 N.ar   11  HIS11      -0.2268
      8  CD2       72.6760  102.3170    6.6670 C.ar   11  HIS11       0.1154
      9  CE1       73.5570  100.3310    6.7920 C.ar   11  HIS11       0.1986
     10  NE2       73.2370  101.3920    7.5240 N.ar   11  HIS11      -0.2212
     11  N         75.3160  102.9760    4.7160 N.am   12  ARG12      -0.1966
     12  CA        76.4900  102.4050    5.4080 C.3    12  ARG12       0.1729
     13  C         76.3850  102.8720    6.8260 C.2    12  ARG12       0.2616
     14  O         75.9830  104.0070    7.0810 O.2    12  ARG12      -0.2715
     15  CB        77.9090  102.7990    4.9040 C.3    12  ARG12       0.0348
     16  CG        78.0640  103.3890    3.5500 C.3    12  ARG12       0.0492
     17  CD        78.0870  104.8830    3.6680 C.3    12  ARG12       0.2205
     18  NE        77.4900  105.4360    2.4650 N.pl3  12  ARG12      -0.0865
     19  CZ        78.1760  105.7910    1.3880 C.cat  12  ARG12       0.5346
     20  NH1       77.5440  106.2470    0.3170 N.pl3  12  ARG12       0.1354
     21  NH2       79.5060  105.6930    1.3730 N.pl3  12  ARG12       0.1354
     22  N         76.8250  102.0530    7.7310 N.am   13  SER13      -0.1950
     23  CA        76.8760  102.3770    9.1490 C.3    13  SER13       0.1924
     24  C         77.9630  103.4390    9.3750 C.2    13  SER13       0.2314
     25  O         79.0650  103.3040    8.8600 O.2    13  SER13      -0.2863
     26  CB        77.1850  101.1160    9.9530 C.3    13  SER13       0.2116
     27  OG        76.0510  100.2710    9.8960 O.3    13  SER13      -0.2180
     28  N         80.3310  105.4680   12.0790 N.3    15  ARG15      -0.1245
     29  CA        80.8500  105.2960   13.4330 C.3    15  ARG15       0.1563
     30  C         81.7360  106.4730   13.9020 C.2    15  ARG15       0.2260
     31  O         82.4190  106.3700   14.9130 O.2    15  ARG15      -0.2867
     32  CB        81.5700  103.9410   13.5440 C.3    15  ARG15       0.0307
     33  CG        80.6630  102.7410   13.2390 C.3    15  ARG15       0.0489
     34  CD        81.4440  101.4360   13.3140 C.3    15  ARG15       0.2205
     35  NE        80.5590  100.3020   13.0920 N.pl3  15  ARG15      -0.0865
     36  CZ        80.3300   99.7610   11.9010 C.cat  15  ARG15       0.5346
     37  NH1       80.9260  100.2490   10.8140 N.pl3  15  ARG15       0.1354
     38  NH2       79.4660   98.7640   11.7770 N.pl3  15  ARG15       0.1354
     39  N         82.3530  101.6130   22.7440 N.3    67  GLN67      -0.1245
     40  CA        82.0420  102.1090   21.4030 C.3    67  GLN67       0.1566
     41  C         81.9080  103.6190   21.5550 C.2    67  GLN67       0.2260
     42  O         80.9120  104.0780   22.1170 O.2    67  GLN67      -0.2867
     43  CB        80.7550  101.4530   20.8710 C.3    67  GLN67       0.0367
     44  CG        80.8670   99.9300   20.7970 C.3    67  GLN67       0.0905
     45  CD        79.7960   99.3310   19.9350 C.2    67  GLN67       0.2608
     46  OE1       79.6140   99.7200   18.7880 O.2    67  GLN67      -0.2717
     47  NE2       79.0690   98.3720   20.4620 N.am   67  GLN67      -0.0878
     48  N         81.3450  106.1200   19.6120 N.3    69  TYR69      -0.1241
     49  CA        80.2690  106.7760   18.8450 C.3    69  TYR69       0.1605
     50  C         78.9150  106.7150   19.5930 C.2    69  TYR69       0.2264
     51  O         77.9520  107.3630   19.1730 O.2    69  TYR69      -0.2867
     52  CB        80.1750  106.2400   17.4020 C.3    69  TYR69       0.0534
     53  CG        80.4830  104.7670   17.2490 C.ar   69  TYR69      -0.0201
     54  CD1       81.8010  104.3100   17.2040 C.ar   69  TYR69      -0.0009
     55  CD2       79.4630  103.8340   17.0890 C.ar   69  TYR69      -0.0009
     56  CE1       82.0920  102.9580   17.0660 C.ar   69  TYR69       0.0417
     57  CE2       79.7450  102.4800   16.9100 C.ar   69  TYR69       0.0417
     58  CZ        81.0640  102.0500   16.8790 C.ar   69  TYR69       0.1957
     59  OH        81.3800  100.7260   16.7430 O.3    69  TYR69      -0.2866
     60  N         74.0350  104.3550   13.0680 N.3   133  CYS133     -0.1221
     61  CA        74.5900  103.0400   13.3730 C.3   133  CYS133      0.1808
     62  C         73.7640  102.4030   14.4920 C.2   133  CYS133      0.2601
     63  O         73.5490  103.0270   15.5510 O.2   133  CYS133     -0.2717
     64  CB        76.0770  103.1170   13.7420 C.3   133  CYS133      0.0970
     65  SG        76.9260  101.5060   13.8160 S.3   133  CYS133     -0.0800
     66  N         73.3040  101.1520   14.2550 N.am  134  TYR134     -0.1962
     67  CA        72.6400  100.3430   15.2690 C.3   134  TYR134      0.1771
     68  C         73.7020   99.9210   16.2880 C.2   134  TYR134      0.2619
     69  O         74.8850   99.7630   15.9310 O.2   134  TYR134     -0.2715
     70  CB        72.0140   99.0940   14.6530 C.3   134  TYR134      0.0574
     71  CG        70.7370   99.3410   13.9020 C.ar  134  TYR134     -0.0198
     72  CD1       70.7560   99.7470   12.5710 C.ar  134  TYR134     -0.0009
     73  CD2       69.5010   99.1090   14.4960 C.ar  134  TYR134     -0.0009
     74  CE1       69.5700   99.9820   11.8660 C.ar  134  TYR134      0.0417
     75  CE2       68.3140   99.3230   13.7990 C.ar  134  TYR134      0.0417
     76  CZ        68.3560   99.7920   12.4910 C.ar  134  TYR134      0.1957
     77  OH        67.1970   99.9730   11.7720 O.3   134  TYR134     -0.2866
     78  N         73.3070   99.8090   17.5600 N.am  135  ILE135     -0.1963
     79  CA        74.2210   99.4270   18.6360 C.3   135  ILE135      0.1727
     80  C         73.6450   98.2400   19.3960 C.2   135  ILE135      0.2617
     81  O         72.9880   98.4080   20.4290 O.2   135  ILE135     -0.2715
     82  CB        74.6220  100.6230   19.5560 C.3   135  ILE135      0.0290
     83  CG1       75.1140  101.8750   18.7470 C.3   135  ILE135      0.0022
     84  CG2       75.6480  100.2100   20.6500 C.3   135  ILE135      0.0023
     85  CD1       76.4770  101.7420   18.0290 C.3   135  ILE135      0.0001
     86  N         73.9320   97.0440   18.8670 N.am  136  GLY136     -0.1940
     87  CA        73.5720   95.7810   19.4950 C.3   136  GLY136      0.2014
     88  C         74.4400   95.5240   20.7140 C.2   136  GLY136      0.2639
     89  O         74.0720   94.7230   21.5760 O.2   136  GLY136     -0.2714
     90  N         75.5800   96.2340   20.7880 N.am  137  GLY137     -0.1954
     91  CA        76.5520   96.1700   21.8780 C.3   137  GLY137      0.1869
     92  C         75.9340   96.3260   23.2550 C.2   137  GLY137      0.2309
     93  O         76.4350   95.7340   24.2030 O.2   137  GLY137     -0.2863
     94  N         73.4590   94.8510   24.3820 N.3   139  ARG139     -0.1245
     95  CA        73.0990   93.4950   24.8090 C.3   139  ARG139      0.1563
     96  C         74.1930   92.7310   25.5660 C.2   139  ARG139      0.2260
     97  O         73.9290   91.6490   26.0940 O.2   139  ARG139     -0.2867
     98  CB        72.4200   92.6740   23.6960 C.3   139  ARG139      0.0307
     99  CG        71.1100   93.3250   23.2270 C.3   139  ARG139      0.0489
    100  CD        70.1110   92.3550   22.6180 C.3   139  ARG139      0.2205
    101  NE        70.7020   91.5390   21.5590 N.pl3 139  ARG139     -0.0865
    102  CZ        70.8620   91.9200   20.2920 C.cat 139  ARG139      0.5346
    103  NH1       70.4540   93.1210   19.8940 N.pl3 139  ARG139      0.1354
    104  NH2       71.4150   91.0970   19.4100 N.pl3 139  ARG139      0.1354
    105  N         68.4890   97.3610   21.2610 N.3   159  PHE159     -0.1241
    106  CA        69.7080   97.9580   20.6730 C.3   159  PHE159      0.1605
    107  C         69.6120   99.4560   20.7640 C.2   159  PHE159      0.2264
    108  O         68.5240  100.0100   20.9550 O.2   159  PHE159     -0.2867
    109  CB        69.8990   97.5410   19.1720 C.3   159  PHE159      0.0534
    110  CG        68.6250   97.6390   18.3590 C.ar  159  PHE159     -0.0203
    111  CD1       68.1890   98.8650   17.8610 C.ar  159  PHE159     -0.0042
    112  CD2       67.8520   96.5110   18.1070 C.ar  159  PHE159     -0.0042
    113  CE1       66.9960   98.9620   17.1510 C.ar  159  PHE159     -0.0003
    114  CE2       66.6590   96.6080   17.3850 C.ar  159  PHE159     -0.0003
    115  CZ        66.2330   97.8340   16.9220 C.ar  159  PHE159     -0.0000
    116  N         79.2610   98.1340    2.2880 N.3   173  LYS173     -0.1245
    117  CA        79.6680   96.7550    2.5590 C.3   173  LYS173      0.1561
    118  C         78.9220   95.7980    1.6250 C.2   173  LYS173      0.2260
    119  O         77.6880   95.8100    1.6240 O.2   173  LYS173     -0.2867
    120  CB        79.4240   96.4160    4.0400 C.3   173  LYS173      0.0271
    121  CG        80.5520   96.8720    4.9840 C.3   173  LYS173      0.0035
    122  CD        80.5980   98.3990    5.2420 C.3   173  LYS173      0.0206
    123  CE        81.7550   98.7940    6.1350 C.3   173  LYS173      0.1093
    124  NZ        82.2360  100.1620    5.8150 N.3   173  LYS173     -0.1314
    125  N         76.7850   92.9430   -0.0340 N.3   175  ARG175     -0.1245
    126  CA        75.8380   91.9710    0.5020 C.3   175  ARG175      0.1563
    127  C         75.8840   90.6840   -0.2920 C.2   175  ARG175      0.2260
    128  O         76.3450   90.6730   -1.4420 O.2   175  ARG175     -0.2867
    129  CB        74.3850   92.5380    0.4830 C.3   175  ARG175      0.0307
    130  CG        74.1660   93.8060    1.3500 C.3   175  ARG175      0.0489
    131  CD        74.4600   93.5610    2.8190 C.3   175  ARG175      0.2205
    132  NE        73.9230   94.6180    3.6770 N.pl3 175  ARG175     -0.0865
    133  CZ        74.6350   95.5930    4.2210 C.cat 175  ARG175      0.5346
    134  NH1       75.9470   95.6620    4.0160 N.pl3 175  ARG175      0.1354
    135  NH2       74.0550   96.4770    5.0180 N.pl3 175  ARG175      0.1354
@<TRIPOS>BOND
     1   128   127    2
     2   127   126    1
     3   125   126    1
     4    20    19    1
     5   129   126    1
     6   129   130    1
     7   130   131    1
     8    21    19    1
     9    19    18    2
    10   119   118    2
    11   118   117    1
    12     1     2    1
    13   116   117    1
    14    18    17    1
    15   117   120    1
    16   131   132    1
    17     4     3    2
    18     2     3    1
    19     2     5    1
    20    16    17    1
    21    16    15    1
    22   132   133    2
    23     3    11   am
    24   134   133    1
    25   120   121    1
    26     5     6    1
    27   133   135    1
    28    11    12    1
    29    15    12    1
    30   121   122    1
    31   122   123    1
    32    12    13    1
    33     6     7   ar
    34     6     8   ar
    35     7     9   ar
    36   124   123    1
    37     8    10   ar
    38     9    10   ar
    39    13    14    2
    40    13    22   am
    41    22    23    1
    42    25    24    2
    43    23    24    1
    44    23    26    1
    45    27    26    1
    46    37    36    1
    47    77    76    1
    48    38    36    1
    49    74    76   ar
    50    74    72   ar
    51    36    35    2
    52    28    29    1
    53    76    75   ar
    54    72    71   ar
    55    60    61    1
    56    35    34    1
    57    33    34    1
    58    33    32    1
    59    61    64    1
    60    61    62    1
    61    29    32    1
    62    29    30    1
    63    64    65    1
    64    75    73   ar
    65    30    31    2
    66    71    73   ar
    67    71    70    1
    68    66    62   am
    69    66    67    1
    70    62    63    2
    71    70    67    1
    72    67    68    1
    73    69    68    2
    74    68    78   am
    75    59    58    1
    76    58    57   ar
    77    58    56   ar
    78    57    55   ar
    79   115   113   ar
    80   115   114   ar
    81    56    54   ar
    82    55    53   ar
    83   113   111   ar
    84    54    53   ar
    85    53    52    1
    86   114   112   ar
    87    52    49    1
    88    78    79    1
    89   111   110   ar
    90    85    83    1
    91   112   110   ar
    92   110   109    1
    93    79    80    1
    94    79    82    1
    95    83    82    1
    96    46    45    2
    97    49    50    1
    98    49    48    1
    99    86    80   am
   100    86    87    1
   101   109   106    1
   102    51    50    2
   103    80    81    2
   104   104   102    1
   105    87    88    1
   106    82    84    1
   107   103   102    1
   108    45    47   am
   109    45    44    1
   110   102   101    2
   111   106   107    1
   112   106   105    1
   113    88    90   am
   114    88    89    2
   115   107   108    2
   116    90    91    1
   117    44    43    1
   118    43    40    1
   119    40    41    1
   120    40    39    1
   121    41    42    2
   122   101   100    1
   123    91    92    1
   124   100    99    1
   125    99    98    1
   126    92    93    2
   127    98    95    1
   128    94    95    1
   129    95    96    1
   130    96    97    2
