@<TRIPOS>MOLECULE
tmp/5hdjB00.pdb
 71 69 0 0 0
SMALL
GASTEIGER

@<TRIPOS>ATOM
      1  N         55.3680  105.3890   12.2950 N.3    36  ALA36      -0.1231
      2  CA        54.6020  105.1750   11.0620 C.3    36  ALA36       0.1694
      3  C         54.7840  103.7680   10.4500 C.2    36  ALA36       0.2592
      4  O         53.9900  103.3720    9.5850 O.2    36  ALA36      -0.2718
      5  CB        54.9000  106.2810   10.0360 C.3    36  ALA36       0.0304
      6  N         55.7440  102.9780   10.9750 N.am   37  ALA37      -0.1966
      7  CA        55.9650  101.5910   10.5420 C.3    37  ALA37       0.1728
      8  C         54.7240  100.7520   10.8600 C.2    37  ALA37       0.2617
      9  O         54.0020  101.0550   11.8250 O.2    37  ALA37      -0.2715
     10  CB        57.1550  100.9990   11.2900 C.3    37  ALA37       0.0334
     11  N         54.4960   99.6770   10.0740 N.am   38  SER38      -0.1936
     12  CA        53.4090   98.7300   10.3410 C.3    38  SER38       0.2055
     13  C         53.6630   98.1290   11.7430 C.2    38  SER38       0.2644
     14  O         54.8150   98.0730   12.2060 O.2    38  SER38      -0.2714
     15  CB        53.4380   97.5920    9.3300 C.3    38  SER38       0.2130
     16  OG        53.3030   98.0410    8.0030 O.3    38  SER38      -0.2179
     17  N         52.5940   97.6980   12.4090 N.am   39  THR39      -0.1936
     18  CA        52.6690   97.1220   13.7490 C.3    39  THR39       0.2028
     19  C         51.6830   95.9460   13.8500 C.2    39  THR39       0.2643
     20  O         50.5020   96.1250   13.5770 O.2    39  THR39      -0.2714
     21  CB        52.4900   98.2250   14.8520 C.3    39  THR39       0.1808
     22  OG1       52.2920   97.5690   16.1070 O.3    39  THR39      -0.2208
     23  CG2       51.2830   99.1930   14.5590 C.3    39  THR39       0.0379
     24  N         52.1630   94.7440   14.2280 N.am   40  SER40      -0.1935
     25  CA        51.2950   93.5520   14.3160 C.3    40  SER40       0.2055
     26  C         50.0810   93.8290   15.1700 C.2    40  SER40       0.2644
     27  O         50.2350   94.2140   16.3290 O.2    40  SER40      -0.2714
     28  CB        52.0330   92.3770   14.9580 C.3    40  SER40       0.2130
     29  OG        53.1240   91.9500   14.1720 O.3    40  SER40      -0.2179
     30  N         48.8740   93.6200   14.6160 N.am   41  SER41      -0.1935
     31  CA        47.6140   93.7940   15.3490 C.3    41  SER41       0.2055
     32  C         47.4690   95.1490   16.0610 C.2    41  SER41       0.2643
     33  O         46.7470   95.2250   17.0590 O.2    41  SER41      -0.2714
     34  CB        47.4260   92.6430   16.3380 C.3    41  SER41       0.2130
     35  OG        47.4600   91.3820   15.6990 O.3    41  SER41      -0.2179
     36  N         48.1420   96.2210   15.5550 N.am   42  TYR42      -0.1973
     37  CA        48.0720   97.5860   16.0980 C.3    42  TYR42       0.1639
     38  C         48.6990   97.6590   17.5190 C.2    42  TYR42       0.2290
     39  O         48.4620   98.6250   18.2410 O.2    42  TYR42      -0.2864
     40  CB        46.5710   98.0180   16.1420 C.3    42  TYR42       0.0560
     41  CG        46.2310   99.4750   15.9290 C.ar   42  TYR42      -0.0198
     42  CD1       47.2130  100.4040   15.5870 C.ar   42  TYR42      -0.0009
     43  CD2       44.9130   99.9140   15.9840 C.ar   42  TYR42      -0.0009
     44  CE1       46.8960  101.7450   15.3680 C.ar   42  TYR42       0.0417
     45  CE2       44.5800  101.2450   15.7400 C.ar   42  TYR42       0.0417
     46  CZ        45.5740  102.1600   15.4440 C.ar   42  TYR42       0.1957
     47  OH        45.2260  103.4630   15.1890 O.3    42  TYR42      -0.2866
     48  N         59.9080   92.2250   16.2420 N.3   112  ILE112     -0.1231
     49  CA        59.5670   92.6970   14.8910 C.3   112  ILE112      0.1692
     50  C         59.1200   94.1610   14.9560 C.2   112  ILE112      0.2592
     51  O         59.6760   94.9850   14.2180 O.2   112  ILE112     -0.2718
     52  CB        58.5430   91.7850   14.1320 C.3   112  ILE112      0.0266
     53  CG1       59.1320   90.3730   13.8580 C.3   112  ILE112      0.0019
     54  CG2       58.0730   92.4590   12.8160 C.3   112  ILE112      0.0020
     55  CD1       58.0680   89.1990   13.6870 C.3   112  ILE112      0.0001
     56  N         58.1660   94.4830   15.8640 N.am  113  ASP113     -0.1974
     57  CA        57.6130   95.8310   16.0460 C.3   113  ASP113      0.1709
     58  C         58.7100   96.8870   16.2440 C.2   113  ASP113      0.2293
     59  O         58.7300   97.9110   15.5430 O.2   113  ASP113     -0.2864
     60  CB        56.6010   95.8590   17.2190 C.3   113  ASP113      0.1436
     61  CG        55.1480   96.0010   16.7630 C.2   113  ASP113      0.3671
     62  OD1       54.7720   95.3550   15.7450 O.co2 113  ASP113     -0.2456
     63  OD2       54.4020   96.7940   17.3940 O.co2 113  ASP113     -0.2456
     64  N         61.0480   97.2090   12.9360 N.3   116  LEU116     -0.1245
     65  CA        60.4260   97.9380   11.8150 C.3   116  LEU116      0.1561
     66  C         60.4630   99.4450   12.0880 C.2   116  LEU116      0.2260
     67  O         60.7760  100.2250   11.1880 O.2   116  LEU116     -0.2867
     68  CB        58.9470   97.5150   11.5520 C.3   116  LEU116      0.0270
     69  CG        58.6420   96.0290   11.3070 C.3   116  LEU116      0.0019
     70  CD1       57.2020   95.8410   10.9470 C.3   116  LEU116      0.0001
     71  CD2       59.4870   95.4300   10.2340 C.3   116  LEU116      0.0001
@<TRIPOS>BOND
     1    16    15    1
     2    15    12    1
     3     4     3    2
     4     5     2    1
     5    11    12    1
     6    11     8   am
     7    71    69    1
     8    12    13    1
     9     3     6   am
    10     3     2    1
    11     7     8    1
    12     7     6    1
    13     7    10    1
    14     8     9    2
    15    70    69    1
    16     2     1    1
    17    67    66    2
    18    69    68    1
    19    68    65    1
    20    13    14    2
    21    13    17   am
    22    65    66    1
    23    65    64    1
    24    17    18    1
    25    54    52    1
    26    20    19    2
    27    55    53    1
    28    18    19    1
    29    18    21    1
    30    19    24   am
    31    53    52    1
    32    52    49    1
    33    29    28    1
    34    51    50    2
    35    24    25    1
    36    25    28    1
    37    25    26    1
    38    23    21    1
    39    30    26   am
    40    30    31    1
    41    21    22    1
    42    49    50    1
    43    49    48    1
    44    50    56   am
    45    26    27    2
    46    47    46    1
    47    31    32    1
    48    31    34    1
    49    44    46   ar
    50    44    42   ar
    51    46    45   ar
    52    59    58    2
    53    36    32   am
    54    36    37    1
    55    42    41   ar
    56    35    34    1
    57    45    43   ar
    58    62    61   ar
    59    56    57    1
    60    41    43   ar
    61    41    40    1
    62    57    58    1
    63    57    60    1
    64    32    33    2
    65    37    40    1
    66    37    38    1
    67    61    60    1
    68    61    63   ar
    69    38    39    2
