@<TRIPOS>MOLECULE
tmp/5hdmB02.pdb
 112 107 0 0 0
SMALL
GASTEIGER

@<TRIPOS>ATOM
      1  N         41.8160   91.6090   26.1390 N.3    62  TRP62      -0.1241
      2  CA        42.8410   91.4920   27.1680 C.3    62  TRP62       0.1605
      3  C         42.9940   92.7090   28.0380 C.2    62  TRP62       0.2264
      4  O         44.0140   92.8780   28.6470 O.2    62  TRP62      -0.2867
      5  CB        44.1840   91.0100   26.5970 C.3    62  TRP62       0.0550
      6  CG        44.0490   89.7090   25.9060 C.ar   62  TRP62       0.0003
      7  CD1       44.0450   89.4530   24.5540 C.ar   62  TRP62       0.0946
      8  CD2       43.8370   88.4170   26.5100 C.ar   62  TRP62       0.0152
      9  NE1       43.8690   88.1650   24.3040 N.ar   62  TRP62      -0.2442
     10  CE2       43.7430   87.4730   25.4230 C.ar   62  TRP62       0.0810
     11  CE3       43.7490   87.9510   27.7870 C.ar   62  TRP62       0.0012
     12  CZ2       43.5670   86.1650   25.6250 C.ar   62  TRP62       0.0191
     13  CZ3       43.5740   86.5990   27.9890 C.ar   62  TRP62       0.0001
     14  CH2       43.4760   85.7270   26.9160 C.ar   62  TRP62       0.0015
     15  N         53.5570   99.9080   23.3440 N.3   117  SER117     -0.1202
     16  CA        53.1080   98.6520   23.9290 C.3   117  SER117      0.2020
     17  C         53.5060   98.5760   25.3830 C.2   117  SER117      0.2619
     18  O         54.3740   99.3230   25.8450 O.2   117  SER117     -0.2717
     19  CB        53.7280   97.4690   23.2020 C.3   117  SER117      0.2103
     20  OG        55.1300   97.4600   23.3990 O.3   117  SER117     -0.2182
     21  N         52.9080   97.6290   26.0970 N.am  118  GLY118     -0.1942
     22  CA        53.3250   97.3450   27.4520 C.3   118  GLY118      0.2014
     23  C         54.7450   96.8110   27.5080 C.2   118  GLY118      0.2639
     24  O         55.4820   97.1040   28.4480 O.2   118  GLY118     -0.2714
     25  N         55.1260   96.0250   26.5050 N.am  119  THR119     -0.1950
     26  CA        56.4870   95.5020   26.4300 C.3   119  THR119      0.1897
     27  C         57.5010   96.6430   26.3880 C.2   119  THR119      0.2313
     28  O         58.4900   96.6440   27.1240 O.2   119  THR119     -0.2863
     29  CB        56.6490   94.5660   25.2080 C.3   119  THR119      0.1794
     30  OG1       56.0020   93.3220   25.4840 O.3   119  THR119     -0.2208
     31  CG2       58.1020   94.2860   24.8860 C.3   119  THR119      0.0378
     32  N         57.6300   98.5090   29.7870 N.3   122  CYS122     -0.1235
     33  CA        58.3780   97.8050   30.8160 C.3   122  CYS122      0.1677
     34  C         59.8820   97.8160   30.5440 C.2   122  CYS122      0.2270
     35  O         60.6850   97.8990   31.4760 O.2   122  CYS122     -0.2867
     36  CB        57.8410   96.3900   30.9890 C.3   122  CYS122      0.0956
     37  SG        56.1720   96.3280   31.7170 S.3   122  CYS122     -0.0801
     38  N         54.1990   88.9350   34.6000 N.3   145  TYR145     -0.1227
     39  CA        54.5540   89.1350   33.2060 C.3   145  TYR145      0.1736
     40  C         54.7510   90.6170   32.9520 C.2   145  TYR145      0.2595
     41  O         53.8800   91.4140   33.2820 O.2   145  TYR145     -0.2718
     42  CB        53.4310   88.5970   32.3100 C.3   145  TYR145      0.0548
     43  CG        53.7100   88.7680   30.8360 C.ar  145  TYR145     -0.0200
     44  CD1       54.7610   88.0890   30.2290 C.ar  145  TYR145     -0.0009
     45  CD2       52.9440   89.6250   30.0510 C.ar  145  TYR145     -0.0009
     46  CE1       55.0370   88.2510   28.8840 C.ar  145  TYR145      0.0417
     47  CE2       53.2080   89.7840   28.6970 C.ar  145  TYR145      0.0417
     48  CZ        54.2550   89.1020   28.1250 C.ar  145  TYR145      0.1957
     49  OH        54.5240   89.2680   26.7830 O.3   145  TYR145     -0.2866
     50  N         55.8940   90.9680   32.3650 N.am  146  HIS146     -0.1961
     51  CA        56.2240   92.3630   32.0880 C.3   146  HIS146      0.1787
     52  C         56.5750   92.5460   30.6260 C.2   146  HIS146      0.2620
     53  O         57.4050   93.3690   30.2870 O.2   146  HIS146     -0.2715
     54  CB        57.3620   92.8520   33.0020 C.3   146  HIS146      0.0785
     55  CG        57.0920   92.6110   34.4520 C.ar  146  HIS146      0.0821
     56  ND1       55.9540   93.0760   35.0770 N.ar  146  HIS146     -0.2267
     57  CD2       57.7650   91.8890   35.3830 C.ar  146  HIS146      0.1154
     58  CE1       55.9580   92.6810   36.3400 C.ar  146  HIS146      0.1986
     59  NE2       57.0440   91.9580   36.5520 N.ar  146  HIS146     -0.2212
     60  N         55.9290   91.7820   29.7530 N.am  147  GLY147     -0.1954
     61  CA        56.3000   91.8080   28.3530 C.3   147  GLY147      0.1869
     62  C         57.5010   90.9270   28.0780 C.2   147  GLY147      0.2309
     63  O         57.9910   90.2190   28.9560 O.2   147  GLY147     -0.2863
     64  N         53.4500   93.0630   39.1070 N.3   207  GLU207     -0.1245
     65  CA        52.0390   93.3200   38.8530 C.3   207  GLU207      0.1567
     66  C         51.3990   93.4380   40.2230 C.2   207  GLU207      0.2260
     67  O         51.4720   92.5010   41.0160 O.2   207  GLU207     -0.2867
     68  CB        51.3880   92.1380   38.1430 C.3   207  GLU207      0.0388
     69  CG        51.7950   91.9430   36.7050 C.3   207  GLU207      0.1160
     70  CD        51.1560   90.7120   36.0970 C.2   207  GLU207      0.3649
     71  OE1       49.9170   90.6790   35.9040 O.co2 207  GLU207     -0.2457
     72  OE2       51.8960   89.7590   35.8160 O.co2 207  GLU207     -0.2457
     73  N         48.3410   87.4650   34.8440 N.3   212  ASN212     -0.1240
     74  CA        48.9070   86.6080   33.8080 C.3   212  ASN212      0.1653
     75  C         49.2830   85.2060   34.3170 C.2   212  ASN212      0.2266
     76  O         49.9870   84.4570   33.6440 O.2   212  ASN212     -0.2867
     77  CB        50.1010   87.3050   33.1310 C.3   212  ASN212      0.1155
     78  CG        49.6970   88.5680   32.3810 C.2   212  ASN212      0.2627
     79  OD1       49.8630   89.6860   32.8730 O.2   212  ASN212     -0.2716
     80  ND2       49.1640   88.3920   31.1840 N.am  212  ASN212     -0.0877
     81  N         53.8650   97.4640   37.6510 N.3   240  ASP240     -0.1239
     82  CA        53.4600   97.2310   36.2750 C.3   240  ASP240      0.1674
     83  C         51.9370   97.2510   36.2440 C.2   240  ASP240      0.2266
     84  O         51.2900   96.2570   36.5920 O.2   240  ASP240     -0.2867
     85  CB        54.0030   95.8980   35.7650 C.3   240  ASP240      0.1410
     86  CG        53.5830   95.6030   34.3450 C.2   240  ASP240      0.3668
     87  OD1       52.8270   96.4070   33.7550 O.co2 240  ASP240     -0.2456
     88  OD2       54.0220   94.5690   33.8110 O.co2 240  ASP240     -0.2456
     89  N         50.0700   97.8180   33.5160 N.3   242  VAL242     -0.1231
     90  CA        49.5870   97.7020   32.1490 C.3   242  VAL242      0.1692
     91  C         48.1670   97.1130   32.1220 C.2   242  VAL242      0.2591
     92  O         47.3290   97.5660   31.3460 O.2   242  VAL242     -0.2718
     93  CB        50.5720   96.8940   31.2740 C.3   242  VAL242      0.0266
     94  CG1       49.9190   96.4730   29.9650 C.3   242  VAL242      0.0020
     95  CG2       51.8390   97.7170   31.0100 C.3   242  VAL242      0.0020
     96  N         47.9010   96.1460   33.0040 N.am  243  MET243     -0.1979
     97  CA        46.5840   95.5200   33.1010 C.3   243  MET243      0.1605
     98  C         45.7130   96.1410   34.2060 C.2   243  MET243      0.2287
     99  O         44.5100   96.3140   34.0320 O.2   243  MET243     -0.2864
    100  CB        46.7470   94.0110   33.3220 C.3   243  MET243      0.0413
    101  CG        45.4630   93.2000   33.2670 C.3   243  MET243      0.0598
    102  SD        45.7790   91.4180   33.1940 S.3   243  MET243     -0.1393
    103  CE        46.1690   91.2040   31.4630 C.3   243  MET243      0.0692
    104  N         47.2940   99.0990   27.5080 N.3   268  LYS268     -0.1245
    105  CA        45.9540   98.5810   27.3110 C.3   268  LYS268      0.1561
    106  C         44.8900   99.6950   27.3320 C.2   268  LYS268      0.2260
    107  O         44.7040  100.3260   26.4000 O.2   268  LYS268     -0.2867
    108  CB        45.6900   97.3900   28.2280 C.3   268  LYS268      0.0271
    109  CG        46.5600   96.1700   27.8680 C.3   268  LYS268      0.0035
    110  CD        46.4640   95.0200   28.8390 C.3   268  LYS268      0.0206
    111  CE        47.1940   93.7920   28.3280 C.3   268  LYS268      0.1093
    112  NZ        48.4230   93.3120   29.0560 N.3   268  LYS268     -0.1314
@<TRIPOS>BOND
     1    19    20    1
     2    19    16    1
     3    15    16    1
     4    16    17    1
     5     9     7   ar
     6     9    10   ar
     7     7     6   ar
     8    31    29    1
     9    29    30    1
    10    29    26    1
    11    17    18    2
    12    17    21   am
    13    10    12   ar
    14    10     8   ar
    15    12    14   ar
    16     6     8   ar
    17     6     5    1
    18    21    22    1
    19     1     2    1
    20    27    26    1
    21    27    28    2
    22   107   106    2
    23    26    25    1
    24    25    23   am
    25     8    11   ar
    26     5     2    1
    27    49    48    1
    28    14    13   ar
    29     2     3    1
    30   105   106    1
    31   105   104    1
    32   105   108    1
    33    22    23    1
    34    23    24    2
    35    11    13   ar
    36   109   108    1
    37   109   110    1
    38     3     4    2
    39    62    61    1
    40    62    63    2
    41    48    47   ar
    42    48    46   ar
    43   111   110    1
    44   111   112    1
    45    61    60    1
    46    47    45   ar
    47    46    44   ar
    48    60    52   am
    49    32    33    1
    50    94    93    1
    51    45    43   ar
    52    44    43   ar
    53    53    52    2
    54    34    33    1
    55    34    35    2
    56    52    51    1
    57    33    36    1
    58    43    42    1
    59    36    37    1
    60    95    93    1
    61    80    78   am
    62    93    90    1
    63    92    91    2
    64   103   102    1
    65    51    50    1
    66    51    54    1
    67    91    90    1
    68    91    96   am
    69    90    89    1
    70    42    39    1
    71    50    40   am
    72    78    79    2
    73    78    77    1
    74    40    39    1
    75    40    41    2
    76    54    55    1
    77    96    97    1
    78    97   100    1
    79    97    98    1
    80    77    74    1
    81   102   101    1
    82    39    38    1
    83   101   100    1
    84    76    75    2
    85    87    86   ar
    86    74    75    1
    87    74    73    1
    88    88    86   ar
    89    99    98    2
    90    86    85    1
    91    55    56   ar
    92    55    57   ar
    93    56    58   ar
    94    57    59   ar
    95    85    82    1
    96    72    70   ar
    97    71    70   ar
    98    70    69    1
    99    83    82    1
   100    83    84    2
   101    82    81    1
   102    58    59   ar
   103    69    68    1
   104    68    65    1
   105    65    64    1
   106    65    66    1
   107    66    67    2
