@<TRIPOS>MOLECULE
tmp/5hdpC00.pdb
 217 207 0 0 0
SMALL
GASTEIGER

@<TRIPOS>ATOM
      1  N          3.8680  -50.2500   55.0000 N.3    42  ALA42      -0.1231
      2  CA         3.5730  -51.6880   55.0330 C.3    42  ALA42       0.1694
      3  C          2.3380  -51.9950   55.8340 C.2    42  ALA42       0.2593
      4  O          2.2130  -51.5490   56.9770 O.2    42  ALA42      -0.2718
      5  CB         4.7260  -52.4490   55.6370 C.3    42  ALA42       0.0304
      6  N          1.4250  -52.7500   55.2240 N.am   43  THR43      -0.1939
      7  CA         0.1610  -53.1510   55.8490 C.3    43  THR43       0.2028
      8  C         -0.9240  -52.0400   55.6960 C.2    43  THR43       0.2642
      9  O         -2.1050  -52.2480   55.9950 O.2    43  THR43      -0.2714
     10  CB         0.3870  -53.6510   57.3090 C.3    43  THR43       0.1808
     11  OG1        1.3490  -54.7070   57.3020 O.3    43  THR43      -0.2208
     12  CG2       -0.7960  -54.2560   57.8580 C.3    43  THR43       0.0379
     13  N         -0.5340  -50.8760   55.1740 N.am   44  TYR44      -0.1973
     14  CA        -1.4690  -49.8160   54.8430 C.3    44  TYR44       0.1639
     15  C         -1.7580  -49.8870   53.3590 C.2    44  TYR44       0.2290
     16  O         -1.1510  -50.6790   52.6240 O.2    44  TYR44      -0.2864
     17  CB        -0.8800  -48.4600   55.2120 C.3    44  TYR44       0.0560
     18  CG        -0.7830  -48.2290   56.7090 C.ar   44  TYR44      -0.0198
     19  CD1        0.2950  -48.7070   57.4470 C.ar   44  TYR44      -0.0009
     20  CD2       -1.7740  -47.5300   57.3880 C.ar   44  TYR44      -0.0009
     21  CE1        0.3800  -48.4890   58.8110 C.ar   44  TYR44       0.0417
     22  CE2       -1.6950  -47.3190   58.7510 C.ar   44  TYR44       0.0417
     23  CZ        -0.6140  -47.7950   59.4560 C.ar   44  TYR44       0.1957
     24  OH        -0.5320  -47.5700   60.8100 O.3    44  TYR44      -0.2866
     25  N          5.4120  -42.6440   53.4910 N.3   124  TYR124     -0.1227
     26  CA         5.1660  -43.0620   54.8590 C.3   124  TYR124      0.1736
     27  C          5.7710  -44.4370   55.0980 C.2   124  TYR124      0.2595
     28  O          5.4930  -45.3900   54.3650 O.2   124  TYR124     -0.2718
     29  CB         3.6730  -43.0700   55.1590 C.3   124  TYR124      0.0548
     30  CG         3.2550  -43.8450   56.4100 C.ar  124  TYR124     -0.0200
     31  CD1        3.7010  -43.4780   57.6780 C.ar  124  TYR124     -0.0009
     32  CD2        2.3770  -44.9150   56.3220 C.ar  124  TYR124     -0.0009
     33  CE1        3.3000  -44.1650   58.8130 C.ar  124  TYR124      0.0417
     34  CE2        1.9670  -45.6000   57.4500 C.ar  124  TYR124      0.0417
     35  CZ         2.4330  -45.2300   58.6920 C.ar  124  TYR124      0.1957
     36  OH         2.0070  -45.9380   59.7930 O.3   124  TYR124     -0.2866
     37  N          6.6220  -44.5080   56.1180 N.am  125  ALA125     -0.1966
     38  CA         7.1280  -45.7590   56.6330 C.3   125  ALA125      0.1728
     39  C          7.8780  -46.5030   55.5340 C.2   125  ALA125      0.2616
     40  O          8.7260  -45.8860   54.9160 O.2   125  ALA125     -0.2715
     41  CB         5.9930  -46.5640   57.2380 C.3   125  ALA125      0.0334
     42  N          7.5860  -47.7730   55.2370 N.am  126  LEU126     -0.1977
     43  CA         8.2640  -48.4380   54.1020 C.3   126  LEU126      0.1596
     44  C          8.0250  -47.7260   52.7700 C.2   126  LEU126      0.2287
     45  O          8.8350  -47.8790   51.8520 O.2   126  LEU126     -0.2864
     46  CB         7.9330  -49.9390   54.0010 C.3   126  LEU126      0.0297
     47  CG         8.5950  -50.7880   55.1020 C.3   126  LEU126      0.0022
     48  CD1        8.4140  -52.2850   54.8490 C.3   126  LEU126      0.0001
     49  CD2       10.0840  -50.4850   55.2370 C.3   126  LEU126      0.0001
     50  N          7.8200  -41.3990   59.3920 N.3   148  ALA148     -0.1231
     51  CA         7.8030  -42.6700   60.1000 C.3   148  ALA148      0.1694
     52  C          8.9210  -43.6740   59.6980 C.2   148  ALA148      0.2592
     53  O          8.7390  -44.8940   59.7800 O.2   148  ALA148     -0.2718
     54  CB         6.4250  -43.2950   59.9480 C.3   148  ALA148      0.0304
     55  N         10.0700  -43.1630   59.2620 N.am  149  LEU149     -0.1966
     56  CA        11.1920  -44.0150   58.8770 C.3   149  LEU149      0.1728
     57  C         12.4720  -43.3030   59.2490 C.2   149  LEU149      0.2616
     58  O         12.7920  -42.2570   58.6750 O.2   149  LEU149     -0.2715
     59  CB        11.1970  -44.3260   57.3740 C.3   149  LEU149      0.0311
     60  CG        12.3230  -45.2660   56.8960 C.3   149  LEU149      0.0022
     61  CD1       12.2540  -46.6080   57.6130 C.3   149  LEU149      0.0001
     62  CD2       12.3310  -45.5060   55.3900 C.3   149  LEU149      0.0001
     63  N         13.1830  -43.8630   60.2270 N.am  150  GLY150     -0.1955
     64  CA        14.5020  -43.3830   60.6230 C.3   150  GLY150      0.1869
     65  C         15.5450  -44.4240   60.3180 C.2   150  GLY150      0.2309
     66  O         15.2190  -45.5640   59.9770 O.2   150  GLY150     -0.2863
     67  N         16.6020  -47.8350   64.6970 N.3   153  ASN153     -0.1240
     68  CA        15.3030  -48.4440   64.9430 C.3   153  ASN153      0.1653
     69  C         15.3240  -49.3030   66.1860 C.2   153  ASN153      0.2266
     70  O         16.3740  -49.4610   66.8090 O.2   153  ASN153     -0.2867
     71  CB        14.8570  -49.2620   63.7300 C.3   153  ASN153      0.1155
     72  CG        15.8810  -50.3220   63.3120 C.2   153  ASN153      0.2627
     73  OD1       15.9110  -51.4360   63.8390 O.2   153  ASN153     -0.2716
     74  ND2       16.6990  -49.9870   62.3350 N.am  153  ASN153     -0.0877
     75  N          9.9010  -54.0300   66.1360 N.3   158  THR158     -0.1218
     76  CA         9.8000  -54.8570   64.9260 C.3   158  THR158      0.1862
     77  C          9.3700  -56.2970   65.2560 C.2   158  THR158      0.2287
     78  O          8.4940  -56.8720   64.5990 O.2   158  THR158     -0.2866
     79  CB        11.1600  -54.8680   64.1810 C.3   158  THR158      0.1770
     80  OG1       11.6240  -53.5170   64.0070 O.3   158  THR158     -0.2211
     81  CG2       11.0500  -55.5510   62.8100 C.3   158  THR158      0.0375
     82  N          5.5140  -56.6060   65.8450 N.3   161  ILE161     -0.1231
     83  CA         4.7830  -56.8320   64.6000 C.3   161  ILE161      0.1692
     84  C          4.8920  -58.3070   64.1880 C.2   161  ILE161      0.2591
     85  O          3.8800  -58.9170   63.8550 O.2   161  ILE161     -0.2718
     86  CB         5.3110  -55.9380   63.4490 C.3   161  ILE161      0.0266
     87  CG1        5.0470  -54.4520   63.7530 C.3   161  ILE161      0.0019
     88  CG2        4.6440  -56.3170   62.1250 C.3   161  ILE161      0.0020
     89  CD1        5.7940  -53.4650   62.8740 C.3   161  ILE161      0.0001
     90  N          6.1100  -58.8690   64.2120 N.am  162  ILE162     -0.1980
     91  CA         6.3260  -60.3050   63.8980 C.3   162  ILE162      0.1595
     92  C          5.4690  -61.2220   64.7980 C.2   162  ILE162      0.2287
     93  O          4.8720  -62.1810   64.3150 O.2   162  ILE162     -0.2864
     94  CB         7.8330  -60.7270   63.9490 C.3   162  ILE162      0.0276
     95  CG1        8.6120  -60.0430   62.8200 C.3   162  ILE162      0.0022
     96  CG2        8.0000  -62.2340   63.7730 C.3   162  ILE162      0.0022
     97  CD1       10.1180  -60.0730   62.9630 C.3   162  ILE162      0.0001
     98  N          1.8580  -60.7800   63.5880 N.3   165  GLY165     -0.1210
     99  CA         1.6390  -60.9270   62.1490 C.3   165  GLY165      0.1956
    100  C          0.8830  -62.1960   61.8370 C.2   165  GLY165      0.2611
    101  O          0.9630  -63.1720   62.5810 O.2   165  GLY165     -0.2717
    102  N          0.1460  -62.1890   60.7380 N.am  166  LEU166     -0.1979
    103  CA        -0.4890  -63.4010   60.2500 C.3   166  LEU166      0.1596
    104  C         -0.6930  -63.3270   58.7500 C.2   166  LEU166      0.2287
    105  O         -0.4130  -62.3060   58.1310 O.2   166  LEU166     -0.2864
    106  CB        -1.8060  -63.6570   60.9890 C.3   166  LEU166      0.0297
    107  CG        -2.8770  -62.5610   61.0230 C.3   166  LEU166      0.0022
    108  CD1       -3.5990  -62.3470   59.7030 C.3   166  LEU166      0.0001
    109  CD2       -3.9120  -62.9140   62.0870 C.3   166  LEU166      0.0001
    110  N          1.7550  -60.9380   54.1120 N.3   185  ALA185     -0.1231
    111  CA         1.3480  -60.8880   55.5350 C.3   185  ALA185      0.1694
    112  C          0.4680  -59.6700   55.8250 C.2   185  ALA185      0.2593
    113  O          0.3690  -58.7520   55.0160 O.2   185  ALA185     -0.2718
    114  CB         2.5730  -60.8690   56.4500 C.3   185  ALA185      0.0304
    115  N         -0.1690  -59.6960   56.9870 N.am  186  THR186     -0.1939
    116  CA        -0.8900  -58.5570   57.5220 C.3   186  THR186      0.2028
    117  C         -0.8950  -58.6900   59.0340 C.2   186  THR186      0.2642
    118  O         -0.4360  -59.6940   59.5580 O.2   186  THR186     -0.2714
    119  CB        -2.3340  -58.4730   56.9610 C.3   186  THR186      0.1808
    120  OG1       -2.9520  -57.2340   57.3610 O.3   186  THR186     -0.2208
    121  CG2       -3.1810  -59.6440   57.4410 C.3   186  THR186      0.0379
    122  N         -1.4300  -57.6870   59.7270 N.am  187  THR187     -0.1950
    123  CA        -1.4790  -57.7020   61.1960 C.3   187  THR187      0.1897
    124  C         -2.7370  -58.3740   61.7460 C.2   187  THR187      0.2313
    125  O         -3.7640  -58.4690   61.0940 O.2   187  THR187     -0.2863
    126  CB        -1.3680  -56.2920   61.8050 C.3   187  THR187      0.1794
    127  OG1       -2.4580  -55.4740   61.3510 O.3   187  THR187     -0.2208
    128  CG2       -0.0450  -55.6550   61.4590 C.3   187  THR187      0.0378
    129  N          1.7020  -50.3710   66.0830 N.3   196  PHE196     -0.1241
    130  CA         1.9770  -49.1010   65.4200 C.3   196  PHE196      0.1605
    131  C          1.7320  -47.8940   66.3160 C.2   196  PHE196      0.2264
    132  O          2.5840  -47.0210   66.4350 O.2   196  PHE196     -0.2867
    133  CB         1.1390  -48.9480   64.1510 C.3   196  PHE196      0.0534
    134  CG         1.4380  -49.9690   63.0740 C.ar  196  PHE196     -0.0203
    135  CD1        2.7470  -50.3950   62.8050 C.ar  196  PHE196     -0.0042
    136  CD2        0.4020  -50.4950   62.3020 C.ar  196  PHE196     -0.0042
    137  CE1        3.0000  -51.3420   61.8190 C.ar  196  PHE196     -0.0003
    138  CE2        0.6560  -51.4350   61.3140 C.ar  196  PHE196     -0.0003
    139  CZ         1.9530  -51.8590   61.0690 C.ar  196  PHE196     -0.0000
    140  N          0.9090  -57.0700   52.9290 N.3   217  ASN217     -0.1240
    141  CA         2.2430  -56.5670   52.5680 C.3   217  ASN217      0.1653
    142  C          3.2350  -57.7100   52.2850 C.2   217  ASN217      0.2266
    143  O          3.0560  -58.8370   52.7760 O.2   217  ASN217     -0.2867
    144  CB         2.7700  -55.6040   53.6560 C.3   217  ASN217      0.1155
    145  CG         3.4930  -56.3080   54.8060 C.2   217  ASN217      0.2627
    146  OD1        4.6290  -55.9750   55.1310 O.2   217  ASN217     -0.2716
    147  ND2        2.8310  -57.2550   55.4400 N.am  217  ASN217     -0.0877
    148  N          6.4720  -59.1710   53.2340 N.3   219  PHE219     -0.1241
    149  CA         7.1800  -58.9650   54.4950 C.3   219  PHE219      0.1605
    150  C          8.7120  -59.0850   54.4270 C.2   219  PHE219      0.2264
    151  O          9.4130  -58.5250   55.2730 O.2   219  PHE219     -0.2867
    152  CB         6.5870  -59.8360   55.6120 C.3   219  PHE219      0.0534
    153  CG         6.6980  -61.3180   55.3900 C.ar  219  PHE219     -0.0203
    154  CD1        7.8530  -62.0030   55.7570 C.ar  219  PHE219     -0.0042
    155  CD2        5.6240  -62.0420   54.8700 C.ar  219  PHE219     -0.0042
    156  CE1        7.9500  -63.3760   55.5730 C.ar  219  PHE219     -0.0003
    157  CE2        5.7110  -63.4210   54.6950 C.ar  219  PHE219     -0.0003
    158  CZ         6.8790  -64.0910   55.0490 C.ar  219  PHE219     -0.0000
    159  N         10.5020  -55.6920   54.4890 N.3   222  ALA222     -0.1231
    160  CA        10.8370  -55.0980   55.7850 C.3   222  ALA222      0.1694
    161  C         12.2910  -55.3410   56.1740 C.2   222  ALA222      0.2592
    162  O         12.9550  -54.4550   56.6970 O.2   222  ALA222     -0.2718
    163  CB         9.9240  -55.6460   56.8510 C.3   222  ALA222      0.0304
    164  N         12.7760  -56.5420   55.8720 N.am  223  ALA223     -0.1966
    165  CA        14.1430  -56.9750   56.1780 C.3   223  ALA223      0.1728
    166  C         15.2030  -56.6600   55.1140 C.2   223  ALA223      0.2616
    167  O         16.3350  -57.1360   55.2200 O.2   223  ALA223     -0.2715
    168  CB        14.1390  -58.4740   56.4520 C.3   223  ALA223      0.0334
    169  N         14.8590  -55.8760   54.1000 N.am  224  ASP224     -0.1971
    170  CA        15.8230  -55.4510   53.0860 C.3   224  ASP224      0.1709
    171  C         16.8060  -54.4780   53.7210 C.2   224  ASP224      0.2293
    172  O         16.3680  -53.6070   54.4600 O.2   224  ASP224     -0.2864
    173  CB        15.0880  -54.7400   51.9470 C.3   224  ASP224      0.1436
    174  CG        15.8780  -54.6960   50.6500 C.2   224  ASP224      0.3671
    175  OD1       17.0940  -54.4190   50.6740 O.co2 224  ASP224     -0.2456
    176  OD2       15.2480  -54.9080   49.5900 O.co2 224  ASP224     -0.2456
    177  N         16.4150  -50.3540   53.2550 N.3   227  VAL227     -0.1231
    178  CA        15.5640  -49.5590   54.1730 C.3   227  VAL227      0.1692
    179  C         16.3750  -48.5630   55.0240 C.2   227  VAL227      0.2591
    180  O         15.9550  -47.4230   55.2270 O.2   227  VAL227     -0.2718
    181  CB        14.7600  -50.4690   55.1360 C.3   227  VAL227      0.0266
    182  CG1       13.9620  -49.6290   56.1150 C.3   227  VAL227      0.0020
    183  CG2       13.8210  -51.4050   54.3780 C.3   227  VAL227      0.0020
    184  N         17.5260  -49.0190   55.5210 N.am  228  ILE228     -0.1980
    185  CA        18.4280  -48.2060   56.3490 C.3   228  ILE228      0.1595
    186  C         19.8060  -47.9020   55.7110 C.2   228  ILE228      0.2287
    187  O         20.6650  -47.2990   56.3700 O.2   228  ILE228     -0.2864
    188  CB        18.6520  -48.8570   57.7360 C.3   228  ILE228      0.0276
    189  CG1       19.1250  -50.3050   57.5860 C.3   228  ILE228      0.0022
    190  CG2       17.3760  -48.7770   58.5490 C.3   228  ILE228      0.0022
    191  CD1       19.8610  -50.8360   58.7900 C.3   228  ILE228      0.0001
    192  N          8.4940  -48.3900   66.7040 N.3   250  LEU250     -0.1231
    193  CA         9.4510  -49.0030   65.7830 C.3   250  LEU250      0.1693
    194  C         10.8170  -48.3090   65.7640 C.2   250  LEU250      0.2591
    195  O         11.8390  -48.9610   65.4900 O.2   250  LEU250     -0.2718
    196  CB         8.8740  -49.0130   64.3710 C.3   250  LEU250      0.0284
    197  CG         7.4730  -49.5900   64.2420 C.3   250  LEU250      0.0019
    198  CD1        7.1410  -49.7890   62.7870 C.3   250  LEU250      0.0001
    199  CD2        7.3480  -50.9140   64.9670 C.3   250  LEU250      0.0001
    200  N         10.8330  -47.0000   66.0270 N.am  251  MET251     -0.1979
    201  CA        12.0550  -46.2010   65.9730 C.3   251  MET251      0.1605
    202  C         12.5780  -45.8020   67.3480 C.2   251  MET251      0.2287
    203  O         13.7730  -45.9450   67.6170 O.2   251  MET251     -0.2864
    204  CB        11.8280  -44.9250   65.1460 C.3   251  MET251      0.0413
    205  CG        11.2270  -45.1370   63.7560 C.3   251  MET251      0.0598
    206  SD        12.1690  -46.1820   62.6270 S.3   251  MET251     -0.1393
    207  CE        10.8330  -46.9350   61.6940 C.3   251  MET251      0.0692
    208  N          3.3740  -44.1780   65.4700 N.3   289  HIS289     -0.1241
    209  CA         4.0060  -44.4110   64.1680 C.3   289  HIS289      0.1621
    210  C          3.2250  -43.7750   63.0150 C.2   289  HIS289      0.2264
    211  O          3.8220  -43.2480   62.0750 O.2   289  HIS289     -0.2867
    212  CB         4.1610  -45.9220   63.9860 C.3   289  HIS289      0.0745
    213  CG         4.8210  -46.3470   62.7140 C.ar  289  HIS289      0.0817
    214  ND1        6.1040  -45.9820   62.3680 N.ar  289  HIS289     -0.2268
    215  CD2        4.3910  -47.1780   61.7370 C.ar  289  HIS289      0.1154
    216  CE1        6.4190  -46.5380   61.2140 C.ar  289  HIS289      0.1986
    217  NE2        5.4000  -47.2690   60.8130 N.ar  289  HIS289     -0.2212
@<TRIPOS>BOND
     1   176   174   ar
     2   174   175   ar
     3   174   173    1
     4    45    44    2
     5   173   170    1
     6   142   141    1
     7   142   143    2
     8   141   140    1
     9   141   144    1
    10    16    15    2
    11    44    43    1
    12   170   171    1
    13   170   169    1
    14   148   149    1
    15   177   178    1
    16    15    14    1
    17    25    26    1
    18   144   145    1
    19   171   172    2
    20    46    43    1
    21    46    47    1
    22   169   166   am
    23    43    42    1
    24   110   111    1
    25   178   179    1
    26   178   181    1
    27    28    27    2
    28   183   181    1
    29   150   149    1
    30   150   151    2
    31   159   160    1
    32   149   152    1
    33   157   155   ar
    34   157   158   ar
    35   145   146    2
    36   145   147   am
    37    14    13    1
    38    14    17    1
    39    48    47    1
    40    26    27    1
    41    26    29    1
    42   155   153   ar
    43    40    39    2
    44     1     2    1
    45   113   112    2
    46   179   180    2
    47   179   184   am
    48     2     5    1
    49     2     3    1
    50   158   156   ar
    51    27    37   am
    52    47    49    1
    53   166   167    2
    54   166   165    1
    55   181   182    1
    56    29    30    1
    57    13     8   am
    58    17    18    1
    59     6     3   am
    60     6     7    1
    61    42    39   am
    62   153   152    1
    63   153   154   ar
    64    62    60    1
    65   184   185    1
    66    39    38    1
    67   111   112    1
    68   111   114    1
    69   156   154   ar
    70     8     7    1
    71     8     9    2
    72   186   185    1
    73   186   187    2
    74   160   161    1
    75   160   163    1
    76   112   115   am
    77     3     4    2
    78     7    10    1
    79   164   161   am
    80   164   165    1
    81    37    38    1
    82   161   162    2
    83   165   168    1
    84    32    30   ar
    85    32    34   ar
    86   185   188    1
    87    30    31   ar
    88    38    41    1
    89    18    20   ar
    90    18    19   ar
    91    60    59    1
    92    60    61    1
    93   119   120    1
    94   119   121    1
    95   119   116    1
    96   115   116    1
    97    11    10    1
    98    10    12    1
    99    59    56    1
   100    20    22   ar
   101    19    21   ar
   102    34    35   ar
   103   116   117    1
   104   189   188    1
   105   189   191    1
   106    31    33   ar
   107   188   190    1
   108   105   104    2
   109    58    57    2
   110    35    33   ar
   111    35    36    1
   112   104   103    1
   113    22    23   ar
   114    21    23   ar
   115    56    57    1
   116    56    55    1
   117   117   118    2
   118   117   122   am
   119    57    63   am
   120    55    52   am
   121    50    51    1
   122    23    24    1
   123    52    53    2
   124    52    51    1
   125   108   107    1
   126   122   123    1
   127    54    51    1
   128    66    65    2
   129    63    64    1
   130   103   102    1
   131   103   106    1
   132    65    64    1
   133   102   100   am
   134   217   216   ar
   135   217   215   ar
   136   106   107    1
   137   107   109    1
   138   139   138   ar
   139   139   137   ar
   140   125   124    2
   141   123   124    1
   142   123   126    1
   143   216   214   ar
   144   138   136   ar
   145   127   126    1
   146   128   126    1
   147   207   206    1
   148   215   213   ar
   149   137   135   ar
   150   100    99    1
   151   100   101    2
   152   211   210    2
   153    88    86    1
   154    99    98    1
   155   136   134   ar
   156    74    72   am
   157   214   213   ar
   158   206   205    1
   159   213   212    1
   160   198   197    1
   161   135   134   ar
   162    81    79    1
   163    95    97    1
   164    95    94    1
   165    89    87    1
   166   210   209    1
   167   134   133    1
   168    72    71    1
   169    72    73    2
   170    86    87    1
   171    86    83    1
   172    71    68    1
   173   205   204    1
   174    96    94    1
   175    85    84    2
   176    91    94    1
   177    91    90    1
   178    91    92    1
   179   212   209    1
   180    80    79    1
   181   133   130    1
   182   209   208    1
   183    79    76    1
   184    84    90   am
   185    84    83    1
   186   197   196    1
   187   197   199    1
   188    93    92    2
   189   196   193    1
   190    78    77    2
   191    83    82    1
   192    67    68    1
   193    76    77    1
   194    76    75    1
   195    68    69    1
   196   204   201    1
   197   130   129    1
   198   130   131    1
   199   195   194    2
   200   194   193    1
   201   194   200   am
   202   193   192    1
   203   201   200    1
   204   201   202    1
   205    69    70    2
   206   131   132    2
   207   202   203    2
