@<TRIPOS>MOLECULE
tmp/5hdrA00.pdb
 160 160 0 0 0
SMALL
GASTEIGER

@<TRIPOS>ATOM
      1  N         21.6370   -2.0430   52.6530 N.3    30  PHE30      -0.1241
      2  CA        22.7010   -1.1590   52.1870 C.3    30  PHE30       0.1605
      3  C         23.6620   -2.0560   51.4530 C.2    30  PHE30       0.2264
      4  O         23.9020   -3.1710   51.8860 O.2    30  PHE30      -0.2867
      5  CB        23.4510   -0.5150   53.3660 C.3    30  PHE30       0.0534
      6  CG        23.7300    0.9570   53.2160 C.ar   30  PHE30      -0.0203
      7  CD1       24.3510    1.4530   52.0890 C.ar   30  PHE30      -0.0042
      8  CD2       23.4140    1.8440   54.2500 C.ar   30  PHE30      -0.0042
      9  CE1       24.6150    2.8120   51.9710 C.ar   30  PHE30      -0.0003
     10  CE2       23.6670    3.2040   54.1430 C.ar   30  PHE30      -0.0003
     11  CZ        24.2660    3.6890   52.9950 C.ar   30  PHE30      -0.0000
     12  N         27.5120   -1.8280   49.9560 N.3    32  HIS32      -0.1241
     13  CA        28.8160   -1.1730   49.7900 C.3    32  HIS32       0.1621
     14  C         29.6540   -2.0190   48.8730 C.2    32  HIS32       0.2264
     15  O         30.1420   -3.0980   49.2640 O.2    32  HIS32      -0.2867
     16  CB        29.5970   -0.9940   51.1290 C.3    32  HIS32       0.0745
     17  CG        29.2180    0.2300   51.8810 C.ar   32  HIS32       0.0817
     18  ND1       28.0110    0.3480   52.5290 N.ar   32  HIS32      -0.2268
     19  CD2       29.8590    1.4090   52.0580 C.ar   32  HIS32       0.1154
     20  CE1       27.9250    1.5500   53.0770 C.ar   32  HIS32       0.1986
     21  NE2       29.0340    2.2120   52.8030 N.ar   32  HIS32      -0.2212
     22  N         36.6380   -0.4240   53.5290 N.3    53  GLU53      -0.1231
     23  CA        36.4170    0.6470   52.5460 C.3    53  GLU53       0.1699
     24  C         37.3060    1.9010   52.7510 C.2    53  GLU53       0.2592
     25  O         37.3450    2.7810   51.8750 O.2    53  GLU53      -0.2718
     26  CB        34.9080    1.0010   52.3920 C.3    53  GLU53       0.0402
     27  CG        34.2640    1.8760   53.4620 C.3    53  GLU53       0.1161
     28  CD        34.0340    1.1800   54.7990 C.2    53  GLU53       0.3649
     29  OE1       34.1440   -0.0750   54.8940 O.co2  53  GLU53      -0.2457
     30  OE2       33.7370    1.9130   55.7710 O.co2  53  GLU53      -0.2457
     31  N         38.0150    1.9560   53.8810 N.am   54  TRP54      -0.1976
     32  CA        38.9720    3.0140   54.2000 C.3    54  TRP54       0.1640
     33  C         40.4170    2.4970   54.1160 C.2    54  TRP54       0.2290
     34  O         41.3260    3.1970   54.5530 O.2    54  TRP54      -0.2864
     35  CB        38.7110    3.5510   55.6150 C.3    54  TRP54       0.0576
     36  CG        37.6340    4.5370   55.6940 C.ar   54  TRP54       0.0006
     37  CD1       36.3060    4.2940   55.6110 C.ar   54  TRP54       0.0946
     38  CD2       37.7730    5.9600   55.8740 C.ar   54  TRP54       0.0152
     39  NE1       35.5870    5.4830   55.7100 N.ar   54  TRP54      -0.2442
     40  CE2       36.4650    6.5170   55.8750 C.ar   54  TRP54       0.0810
     41  CE3       38.8710    6.8130   56.0240 C.ar   54  TRP54       0.0012
     42  CZ2       36.2270    7.8860   56.0200 C.ar   54  TRP54       0.0191
     43  CZ3       38.6380    8.1890   56.1710 C.ar   54  TRP54       0.0001
     44  CH2       37.3300    8.7100   56.1650 C.ar   54  TRP54       0.0015
     45  N         31.8770    5.7320   46.3330 N.3   101  HIS101     -0.1226
     46  CA        32.3630    5.9250   47.7130 C.3   101  HIS101      0.1752
     47  C         33.4970    6.9790   47.7010 C.2   101  HIS101      0.2596
     48  O         33.7270    7.6100   46.6720 O.2   101  HIS101     -0.2718
     49  CB        32.7800    4.5820   48.3570 C.3   101  HIS101      0.0759
     50  CG        32.6590    4.5720   49.8570 C.ar  101  HIS101      0.0818
     51  ND1       33.7530    4.6850   50.6990 N.ar  101  HIS101     -0.2268
     52  CD2       31.5680    4.5240   50.6570 C.ar  101  HIS101      0.1154
     53  CE1       33.3360    4.7000   51.9500 C.ar  101  HIS101      0.1986
     54  NE2       32.0180    4.5950   51.9520 N.ar  101  HIS101     -0.2212
     55  N         34.1720    7.1730   48.8320 N.am  102  HIS102     -0.1975
     56  CA        35.2610    8.1440   48.9730 C.3   102  HIS102      0.1656
     57  C         36.3860    7.9470   47.9540 C.2   102  HIS102      0.2291
     58  O         36.9770    8.9210   47.4800 O.2   102  HIS102     -0.2864
     59  CB        35.9010    8.0780   50.3830 C.3   102  HIS102      0.0771
     60  CG        34.9220    8.1290   51.5230 C.ar  102  HIS102      0.0820
     61  ND1       33.7590    8.8800   51.4910 N.ar  102  HIS102     -0.2267
     62  CD2       34.9510    7.5350   52.7410 C.ar  102  HIS102      0.1154
     63  CE1       33.1130    8.7360   52.6350 C.ar  102  HIS102      0.1986
     64  NE2       33.8190    7.9310   53.4110 N.ar  102  HIS102     -0.2212
     65  N         23.4040    6.1190   47.4010 N.3   144  TYR144     -0.1241
     66  CA        24.4440    6.6400   48.2650 C.3   144  TYR144      0.1605
     67  C         25.4000    7.3620   47.3550 C.2   144  TYR144      0.2264
     68  O         25.7920    6.8170   46.3270 O.2   144  TYR144     -0.2867
     69  CB        25.1760    5.5060   49.0070 C.3   144  TYR144      0.0534
     70  CG        26.4600    5.8770   49.7210 C.ar  144  TYR144     -0.0201
     71  CD1       27.6260    6.1730   49.0100 C.ar  144  TYR144     -0.0009
     72  CD2       26.5300    5.8860   51.1240 C.ar  144  TYR144     -0.0009
     73  CE1       28.8000    6.5080   49.6690 C.ar  144  TYR144      0.0417
     74  CE2       27.7030    6.2260   51.7940 C.ar  144  TYR144      0.0417
     75  CZ        28.8350    6.5330   51.0640 C.ar  144  TYR144      0.1957
     76  OH        30.0060    6.8830   51.7030 O.3   144  TYR144     -0.2866
     77  N         21.2980    9.7840   49.2830 N.3   193  TRP193     -0.1241
     78  CA        21.8380    9.7300   50.6280 C.3   193  TRP193      0.1605
     79  C         23.2690   10.1800   50.5730 C.2   193  TRP193      0.2264
     80  O         24.1700    9.4050   50.1800 O.2   193  TRP193     -0.2867
     81  CB        21.7580    8.2920   51.1770 C.3   193  TRP193      0.0550
     82  CG        21.9120    8.1670   52.6810 C.ar  193  TRP193      0.0003
     83  CD1       20.9040    8.2190   53.6090 C.ar  193  TRP193      0.0946
     84  CD2       23.1310    7.9690   53.4240 C.ar  193  TRP193      0.0152
     85  NE1       21.4170    8.0580   54.8640 N.ar  193  TRP193     -0.2442
     86  CE2       22.7750    7.8960   54.7870 C.ar  193  TRP193      0.0810
     87  CE3       24.4750    7.8260   53.0700 C.ar  193  TRP193      0.0012
     88  CZ2       23.7210    7.7030   55.8060 C.ar  193  TRP193      0.0191
     89  CZ3       25.4230    7.6130   54.0830 C.ar  193  TRP193      0.0001
     90  CH2       25.0380    7.5670   55.4340 C.ar  193  TRP193      0.0015
     91  N         27.0200   11.4260   51.9120 N.3   195  ASP195     -0.1239
     92  CA        28.0430   11.0940   52.8960 C.3   195  ASP195      0.1674
     93  C         29.3240   11.8810   52.5300 C.2   195  ASP195      0.2266
     94  O         29.3980   12.4640   51.4520 O.2   195  ASP195     -0.2867
     95  CB        28.3530    9.5930   52.8650 C.3   195  ASP195      0.1410
     96  CG        28.9490    9.0750   54.1890 C.2   195  ASP195      0.3668
     97  OD1       29.0260    9.8530   55.1600 O.co2 195  ASP195     -0.2456
     98  OD2       29.3800    7.9080   54.2410 O.co2 195  ASP195     -0.2456
     99  N         31.4800   16.3140   55.8380 N.3   198  TRP198     -0.1241
    100  CA        31.8350   16.8330   57.1710 C.3   198  TRP198      0.1605
    101  C         32.9970   17.8090   57.1310 C.2   198  TRP198      0.2264
    102  O         33.1850   18.5740   58.0770 O.2   198  TRP198     -0.2867
    103  CB        32.1690   15.6950   58.1620 C.3   198  TRP198      0.0550
    104  CG        33.1300   14.7040   57.6090 C.ar  198  TRP198      0.0003
    105  CD1       34.4630   14.8830   57.3940 C.ar  198  TRP198      0.0946
    106  CD2       32.8230   13.3800   57.1440 C.ar  198  TRP198      0.0152
    107  NE1       35.0150   13.7420   56.8350 N.ar  198  TRP198     -0.2442
    108  CE2       34.0310   12.8050   56.6720 C.ar  198  TRP198      0.0810
    109  CE3       31.6490   12.6180   57.0950 C.ar  198  TRP198      0.0012
    110  CZ2       34.1000   11.4960   56.1560 C.ar  198  TRP198      0.0191
    111  CZ3       31.7220   11.2930   56.5880 C.ar  198  TRP198      0.0001
    112  CH2       32.9370   10.7570   56.1270 C.ar  198  TRP198      0.0015
    113  N         22.2230   14.6590   56.1790 N.3   228  ARG228     -0.1245
    114  CA        23.6870   14.6780   56.1870 C.3   228  ARG228      0.1563
    115  C         24.2870   15.5580   55.1080 C.2   228  ARG228      0.2260
    116  O         25.4290   16.0000   55.2160 O.2   228  ARG228     -0.2867
    117  CB        24.2520   13.2560   56.0750 C.3   228  ARG228      0.0307
    118  CG        25.7270   13.1760   56.4500 C.3   228  ARG228      0.0489
    119  CD        26.3010   11.7700   56.5720 C.3   228  ARG228      0.2205
    120  NE        25.6070   10.9250   57.5630 N.pl3 228  ARG228     -0.0865
    121  CZ        26.0850    9.7800   58.0760 C.cat 228  ARG228      0.5346
    122  NH1       27.2940    9.3150   57.7210 N.pl3 228  ARG228      0.1354
    123  NH2       25.3430    9.0910   58.9580 N.pl3 228  ARG228      0.1354
    124  N         24.1590    6.0330   62.9740 N.3   254  GLU254     -0.1245
    125  CA        25.0000    5.1320   62.2000 C.3   254  GLU254      0.1567
    126  C         25.7020    4.2360   63.2080 C.2   254  GLU254      0.2260
    127  O         26.5230    4.6940   63.9730 O.2   254  GLU254     -0.2867
    128  CB        25.9950    5.9710   61.3700 C.3   254  GLU254      0.0388
    129  CG        27.0940    5.1980   60.6420 C.3   254  GLU254      0.1160
    130  CD        27.8520    6.0250   59.5820 C.2   254  GLU254      0.3649
    131  OE1       27.2450    6.9460   58.9770 O.co2 254  GLU254     -0.2457
    132  OE2       29.0640    5.7420   59.3470 O.co2 254  GLU254     -0.2457
    133  N         21.2880    3.2570   59.9750 N.3   274  CYS274     -0.1235
    134  CA        21.9610    2.1920   59.2840 C.3   274  CYS274      0.1677
    135  C         22.9230    1.5000   60.2280 C.2   274  CYS274      0.2270
    136  O         23.3170    2.0520   61.2590 O.2   274  CYS274     -0.2867
    137  CB        22.7120    2.7310   58.0570 C.3   274  CYS274      0.0956
    138  SG        23.6990    4.2040   58.3900 S.3   274  CYS274     -0.0801
    139  N         32.4260   -2.7380   62.8170 N.3   280  ASN280     -0.1240
    140  CA        32.6740   -1.6270   61.8950 C.3   280  ASN280      0.1653
    141  C         33.3150   -2.0200   60.5470 C.2   280  ASN280      0.2266
    142  O         34.4410   -1.6660   60.2750 O.2   280  ASN280     -0.2867
    143  CB        33.4880   -0.5440   62.5990 C.3   280  ASN280      0.1155
    144  CG        33.4930    0.7910   61.8440 C.2   280  ASN280      0.2627
    145  OD1       32.7660    1.0120   60.8630 O.2   280  ASN280     -0.2716
    146  ND2       34.3220    1.6900   62.3140 N.am  280  ASN280     -0.0877
    147  N         31.9160   -1.8920   56.4840 N.3   282  TRP282     -0.1241
    148  CA        30.8770   -1.6610   55.4840 C.3   282  TRP282      0.1605
    149  C         31.2450   -2.3770   54.1810 C.2   282  TRP282      0.2264
    150  O         30.4450   -3.1570   53.6750 O.2   282  TRP282     -0.2867
    151  CB        30.6440   -0.1850   55.2480 C.3   282  TRP282      0.0550
    152  CG        30.2750    0.5410   56.4750 C.ar  282  TRP282      0.0003
    153  CD1       31.1360    1.0580   57.4150 C.ar  282  TRP282      0.0946
    154  CD2       28.9590    0.8720   56.9080 C.ar  282  TRP282      0.0152
    155  NE1       30.4260    1.6700   58.4150 N.ar  282  TRP282     -0.2442
    156  CE2       29.0900    1.5710   58.1340 C.ar  282  TRP282      0.0810
    157  CE3       27.6840    0.6400   56.3920 C.ar  282  TRP282      0.0012
    158  CZ2       27.9990    2.0390   58.8410 C.ar  282  TRP282      0.0191
    159  CZ3       26.5850    1.1080   57.0950 C.ar  282  TRP282      0.0001
    160  CH2       26.7480    1.8020   58.3060 C.ar  282  TRP282      0.0015
@<TRIPOS>BOND
     1    68    67    2
     2    45    46    1
     3    48    47    2
     4    67    66    1
     5    65    66    1
     6    58    57    2
     7    47    46    1
     8    47    55   am
     9    46    49    1
    10    57    56    1
    11    66    69    1
    12    49    50    1
    13    55    56    1
    14    14    15    2
    15    14    13    1
    16    56    59    1
    17    69    70    1
    18    71    73   ar
    19    71    70   ar
    20    77    78    1
    21    73    75   ar
    22    70    72   ar
    23    13    12    1
    24    13    16    1
    25    50    52   ar
    26    50    51   ar
    27    80    79    2
    28    59    60    1
    29    79    78    1
    30    78    81    1
    31    52    54   ar
    32    51    53   ar
    33    75    76    1
    34    75    74   ar
    35    72    74   ar
    36    16    17    1
    37    81    82    1
    38    94    93    2
    39     3     4    2
    40     3     2    1
    41    61    60   ar
    42    61    63   ar
    43    60    62   ar
    44    25    24    2
    45    17    19   ar
    46    17    18   ar
    47    91    92    1
    48    53    54   ar
    49     9     7   ar
    50     9    11   ar
    51    19    21   ar
    52     7     6   ar
    53     2     1    1
    54     2     5    1
    55    26    23    1
    56    26    27    1
    57    18    20   ar
    58    93    92    1
    59    23    24    1
    60    23    22    1
    61    63    64   ar
    62    82    84   ar
    63    82    83   ar
    64    62    64   ar
    65    24    31   am
    66    21    20   ar
    67    95    92    1
    68    95    96    1
    69    11    10   ar
    70    87    84   ar
    71    87    89   ar
    72     6     5    1
    73     6     8   ar
    74    84    86   ar
    75    27    28    1
    76    83    85   ar
    77   150   149    2
    78    31    32    1
    79    89    90   ar
    80    33    32    1
    81    33    34    2
    82    10     8   ar
    83   149   148    1
    84    96    98   ar
    85    96    97   ar
    86    32    35    1
    87    86    85   ar
    88    86    88   ar
    89    28    29   ar
    90    28    30   ar
    91   115   116    2
    92   115   114    1
    93   151   148    1
    94   151   152    1
    95    90    88   ar
    96   148   147    1
    97    37    36   ar
    98    37    39   ar
    99    35    36    1
   100    36    38   ar
   101    39    40   ar
   102    99   100    1
   103    38    40   ar
   104    38    41   ar
   105    40    42   ar
   106    42    44   ar
   107    41    43   ar
   108   117   114    1
   109   117   118    1
   110   112   110   ar
   111   112   111   ar
   112   110   108   ar
   113    44    43   ar
   114   113   114    1
   115   157   154   ar
   116   157   159   ar
   117   118   119    1
   118   152   154   ar
   119   152   153   ar
   120   119   120    1
   121   111   109   ar
   122   108   107   ar
   123   108   106   ar
   124   107   105   ar
   125   154   156   ar
   126   109   106   ar
   127   159   160   ar
   128   101   100    1
   129   101   102    2
   130   106   104   ar
   131   100   103    1
   132   105   104   ar
   133   153   155   ar
   134   120   121    2
   135   104   103    1
   136   122   121    1
   137   137   138    1
   138   137   134    1
   139   121   123    1
   140   156   155   ar
   141   156   158   ar
   142   160   158   ar
   143   131   130   ar
   144   134   133    1
   145   134   135    1
   146   132   130   ar
   147   130   129    1
   148   135   136    2
   149   142   141    2
   150   141   140    1
   151   129   128    1
   152   145   144    2
   153   128   125    1
   154   144   146   am
   155   144   143    1
   156   140   143    1
   157   140   139    1
   158   125   124    1
   159   125   126    1
   160   126   127    2
