@<TRIPOS>MOLECULE
tmp/5hduA01.pdb
 219 207 0 0 0
SMALL
GASTEIGER

@<TRIPOS>ATOM
      1  N         35.8520    8.2330   23.5190 N.3    14  SER14      -0.1202
      2  CA        34.7910    8.9490   24.2300 C.3    14  SER14       0.2020
      3  C         34.2020   10.1500   23.4810 C.2    14  SER14       0.2619
      4  O         32.9810   10.3250   23.5220 O.2    14  SER14      -0.2717
      5  CB        35.2490    9.3640   25.6210 C.3    14  SER14       0.2103
      6  OG        36.3400   10.2580   25.5110 O.3    14  SER14      -0.2182
      7  N         35.0490   10.9400   22.8050 N.am   15  GLY15      -0.1942
      8  CA        34.5830   12.1290   22.0890 C.3    15  GLY15       0.2014
      9  C         33.6940   11.8430   20.8900 C.2    15  GLY15       0.2639
     10  O         32.8900   12.6930   20.5090 O.2    15  GLY15      -0.2714
     11  N         33.8140   10.6370   20.2860 N.am   16  GLN16      -0.1963
     12  CA        33.0360   10.2920   19.0850 C.3    16  GLN16       0.1733
     13  C         32.0640    9.1370   19.3200 C.2    16  GLN16       0.2617
     14  O         31.2740    8.8110   18.4350 O.2    16  GLN16      -0.2715
     15  CB        33.9830    9.9740   17.9030 C.3    16  GLN16       0.0408
     16  CG        34.9150   11.1650   17.5560 C.3    16  GLN16       0.0908
     17  CD        35.1810   11.4010   16.0810 C.2    16  GLN16       0.2608
     18  OE1       36.0450   10.7690   15.4680 O.2    16  GLN16      -0.2717
     19  NE2       34.5330   12.4120   15.5050 N.am   16  GLN16      -0.0878
     20  N         32.1210    8.5480   20.5050 N.am   17  GLY17      -0.1940
     21  CA        31.2990    7.4010   20.8680 C.3    17  GLY17       0.2014
     22  C         31.9540    6.1020   20.4380 C.2    17  GLY17       0.2638
     23  O         32.9690    6.1040   19.7330 O.2    17  GLY17      -0.2714
     24  N         31.3990    4.9730   20.9030 N.am   18  TYR18      -0.1973
     25  CA        31.9140    3.6290   20.6240 C.3    18  TYR18       0.1639
     26  C         30.8870    2.8920   19.7880 C.2    18  TYR18       0.2290
     27  O         29.6840    2.9880   20.0780 O.2    18  TYR18      -0.2864
     28  CB        32.1400    2.8850   21.9430 C.3    18  TYR18       0.0560
     29  CG        33.3350    3.4130   22.7010 C.ar   18  TYR18      -0.0198
     30  CD1       33.2140    4.4940   23.5770 C.ar   18  TYR18      -0.0009
     31  CD2       34.5880    2.8520   22.5240 C.ar   18  TYR18      -0.0009
     32  CE1       34.3290    5.0080   24.2490 C.ar   18  TYR18       0.0417
     33  CE2       35.7110    3.3710   23.1740 C.ar   18  TYR18       0.0417
     34  CZ        35.5680    4.4210   24.0630 C.ar   18  TYR18       0.1957
     35  OH        36.7030    4.8510   24.7390 O.3    18  TYR18      -0.2866
     36  N         26.6020    3.1120   16.6940 N.3    34  LEU34      -0.1245
     37  CA        26.9370    3.6330   18.0260 C.3    34  LEU34       0.1561
     38  C         26.1690    2.8610   19.1030 C.2    34  LEU34       0.2260
     39  O         24.9540    2.7180   19.0070 O.2    34  LEU34      -0.2867
     40  CB        26.5420    5.1220   18.0710 C.3    34  LEU34       0.0270
     41  CG        26.8300    5.8370   19.4030 C.3    34  LEU34       0.0019
     42  CD1       28.2460    6.3180   19.4340 C.3    34  LEU34       0.0001
     43  CD2       25.9140    7.0290   19.5980 C.3    34  LEU34       0.0001
     44  N         24.4380    2.8700   22.4500 N.3    36  ASP36      -0.1239
     45  CA        23.8650    3.9490   23.2460 C.3    36  ASP36       0.1674
     46  C         22.9070    3.4940   24.3250 C.2    36  ASP36       0.2266
     47  O         21.7230    3.2600   24.0620 O.2    36  ASP36      -0.2867
     48  CB        23.1870    4.9280   22.2690 C.3    36  ASP36       0.1410
     49  CG        22.6820    6.2050   22.9030 C.2    36  ASP36       0.3668
     50  OD1       23.0790    6.4960   24.0760 O.co2  36  ASP36      -0.2456
     51  OD2       21.9040    6.9170   22.2420 O.co2  36  ASP36      -0.2456
     52  N         21.6730    5.4450   26.4110 N.3    38  GLY38      -0.1210
     53  CA        20.8670    6.6360   26.7270 C.3    38  GLY38       0.1956
     54  C         19.6850    6.8640   25.7960 C.2    38  GLY38       0.2612
     55  O         19.0920    7.9530   25.7860 O.2    38  GLY38      -0.2717
     56  N         19.3870    5.8840   24.9240 N.am   39  SER39      -0.1952
     57  CA        18.2180    5.9710   24.0250 C.3    39  SER39       0.1924
     58  C         17.7230    4.5590   23.7550 C.2    39  SER39       0.2314
     59  O         18.3580    3.5950   24.1850 O.2    39  SER39      -0.2863
     60  CB        18.5370    6.6960   22.7310 C.3    39  SER39       0.2116
     61  OG        19.4300    5.9450   21.9360 O.3    39  SER39      -0.2180
     62  N         15.9640    3.5600   20.4960 N.3    41  ASN41      -0.1240
     63  CA        15.6580    3.2960   19.0860 C.3    41  ASN41       0.1653
     64  C         16.8800    2.7650   18.3620 C.2    41  ASN41       0.2266
     65  O         18.0130    3.2120   18.6140 O.2    41  ASN41      -0.2867
     66  CB        15.2230    4.5700   18.3600 C.3    41  ASN41       0.1155
     67  CG        13.8200    4.9710   18.6910 C.2    41  ASN41       0.2627
     68  OD1       13.5360    5.4630   19.7860 O.2    41  ASN41      -0.2716
     69  ND2       12.8880    4.7090   17.7470 N.am   41  ASN41      -0.0877
     70  N         18.3060    3.2100   14.8900 N.3    43  ALA43      -0.1245
     71  CA        18.1180    4.1510   13.7870 C.3    43  ALA43       0.1562
     72  C         19.3520    4.2110   12.9390 C.2    43  ALA43       0.2260
     73  O         20.4670    4.3050   13.4730 O.2    43  ALA43      -0.2867
     74  CB        17.7730    5.5410   14.3270 C.3    43  ALA43       0.0290
     75  N         12.8520   13.0770   15.6810 N.3    73  VAL73      -0.1245
     76  CA        13.5880   13.2800   16.9260 C.3    73  VAL73       0.1561
     77  C         14.0840   14.7460   16.9650 C.2    73  VAL73       0.2260
     78  O         14.7640   15.1890   16.0340 O.2    73  VAL73      -0.2867
     79  CB        14.6960   12.2170   17.1690 C.3    73  VAL73       0.0252
     80  CG1       15.6620   12.6490   18.2660 C.3    73  VAL73       0.0019
     81  CG2       14.0800   10.8660   17.5100 C.3    73  VAL73       0.0019
     82  N         19.0210   17.5190   20.2230 N.3    76  THR76      -0.1203
     83  CA        19.6460   16.9650   21.4290 C.3    76  THR76       0.1994
     84  C         21.1750   17.0190   21.1570 C.2    76  THR76       0.2617
     85  O         21.8080   18.0230   21.4970 O.2    76  THR76      -0.2717
     86  CB        18.9680   15.6180   21.8320 C.3    76  THR76       0.1784
     87  OG1       19.5250   15.1320   23.0500 O.3    76  THR76      -0.2211
     88  CG2       18.9880   14.5430   20.7210 C.3    76  THR76       0.0376
     89  N         21.7360   16.0020   20.4760 N.am   77  GLN77      -0.1979
     90  CA        23.1070   15.9650   19.9640 C.3    77  GLN77       0.1601
     91  C         22.8840   15.8510   18.4310 C.2    77  GLN77       0.2287
     92  O         23.4570   15.0030   17.7360 O.2    77  GLN77      -0.2864
     93  CB        23.8940   14.7780   20.5470 C.3    77  GLN77       0.0394
     94  CG        25.0280   15.1920   21.4860 C.3    77  GLN77       0.0908
     95  CD        26.3920   15.3340   20.8330 C.2    77  GLN77       0.2608
     96  OE1       27.4100   15.4720   21.5190 O.2    77  GLN77      -0.2717
     97  NE2       26.4660   15.3090   19.5030 N.am   77  GLN77      -0.0878
     98  N         16.9130   14.4270   13.7480 N.3    80  TRP80      -0.1241
     99  CA        16.6930   13.5720   12.5810 C.3    80  TRP80       0.1605
    100  C         15.2340   13.1850   12.4090 C.2    80  TRP80       0.2264
    101  O         14.4620   13.1960   13.3670 O.2    80  TRP80      -0.2867
    102  CB        17.6090   12.3230   12.5900 C.3    80  TRP80       0.0550
    103  CG        17.3860   11.3860   13.7410 C.ar   80  TRP80       0.0003
    104  CD1       18.1220   11.3110   14.8850 C.ar   80  TRP80       0.0946
    105  CD2       16.4410   10.3060   13.8000 C.ar   80  TRP80       0.0152
    106  NE1       17.6650   10.2830   15.6760 N.ar   80  TRP80      -0.2442
    107  CE2       16.6200    9.6600   15.0420 C.ar   80  TRP80       0.0810
    108  CE3       15.4280    9.8450   12.9370 C.ar   80  TRP80       0.0012
    109  CZ2       15.8310    8.5780   15.4450 C.ar   80  TRP80       0.0191
    110  CZ3       14.6450    8.7770   13.3390 C.ar   80  TRP80       0.0001
    111  CH2       14.8340    8.1650   14.5860 C.ar   80  TRP80       0.0015
    112  N         23.5280   15.6200   13.2100 N.3   112  PHE112     -0.1241
    113  CA        23.4650   14.2790   13.7820 C.3   112  PHE112      0.1605
    114  C         24.7030   13.4740   13.3530 C.2   112  PHE112      0.2264
    115  O         25.4940   13.1020   14.2190 O.2   112  PHE112     -0.2867
    116  CB        22.1350   13.6040   13.4060 C.3   112  PHE112      0.0534
    117  CG        21.9690   12.2000   13.9190 C.ar  112  PHE112     -0.0203
    118  CD1       21.6700   11.9590   15.2570 C.ar  112  PHE112     -0.0042
    119  CD2       22.0560   11.1150   13.0550 C.ar  112  PHE112     -0.0042
    120  CE1       21.4830   10.6610   15.7210 C.ar  112  PHE112     -0.0003
    121  CE2       21.9200    9.8140   13.5330 C.ar  112  PHE112     -0.0003
    122  CZ        21.6240    9.5930   14.8590 C.ar  112  PHE112     -0.0000
    123  N         28.4090   13.1010   12.1410 N.3   114  ILE114     -0.1245
    124  CA        29.5820   13.9450   12.3790 C.3   114  ILE114      0.1561
    125  C         30.7050   13.6590   11.3930 C.2   114  ILE114      0.2260
    126  O         31.0360   12.4970   11.1620 O.2   114  ILE114     -0.2867
    127  CB        30.0280   13.8050   13.8680 C.3   114  ILE114      0.0252
    128  CG1       28.8860   14.2160   14.8310 C.3   114  ILE114      0.0019
    129  CG2       31.3240   14.5890   14.1810 C.3   114  ILE114      0.0019
    130  CD1       28.8030   13.3840   16.0770 C.3   114  ILE114      0.0001
    131  N         30.5520    5.9940   12.4250 N.3   119  TRP119     -0.1241
    132  CA        29.2900    5.2750   12.6420 C.3   119  TRP119      0.1605
    133  C         28.2040    5.8240   11.7300 C.2   119  TRP119      0.2264
    134  O         28.2040    7.0020   11.3660 O.2   119  TRP119     -0.2867
    135  CB        28.8370    5.2070   14.1040 C.3   119  TRP119      0.0550
    136  CG        28.8350    6.5050   14.8410 C.ar  119  TRP119      0.0003
    137  CD1       29.8320    6.9830   15.6430 C.ar  119  TRP119      0.0946
    138  CD2       27.7910    7.4910   14.8590 C.ar  119  TRP119      0.0152
    139  NE1       29.4620    8.1910   16.1870 N.ar  119  TRP119     -0.2442
    140  CE2       28.2140    8.5330   15.7160 C.ar  119  TRP119      0.0810
    141  CE3       26.5040    7.5640   14.2910 C.ar  119  TRP119      0.0012
    142  CZ2       27.4070    9.6420   16.0020 C.ar  119  TRP119      0.0191
    143  CZ3       25.7090    8.6660   14.5560 C.ar  119  TRP119      0.0001
    144  CH2       26.1670    9.7060   15.3880 C.ar  119  TRP119      0.0015
    145  N         22.6370    4.3410   15.2190 N.3   122  ILE122     -0.1245
    146  CA        22.6550    4.2300   16.6860 C.3   122  ILE122      0.1561
    147  C         21.8490    3.0710   17.1540 C.2   122  ILE122      0.2260
    148  O         20.7310    2.8480   16.6550 O.2   122  ILE122     -0.2867
    149  CB        22.1490    5.5540   17.3220 C.3   122  ILE122      0.0252
    150  CG1       23.0140    6.7570   16.8860 C.3   122  ILE122      0.0019
    151  CG2       22.0480    5.4340   18.8650 C.3   122  ILE122      0.0019
    152  CD1       22.7580    8.0650   17.6480 C.3   122  ILE122      0.0001
    153  N         11.1530    5.2220   26.7450 N.3   130  ILE130     -0.1245
    154  CA        11.7030    6.4010   26.0900 C.3   130  ILE130      0.1561
    155  C         11.9080    6.2180   24.5590 C.2   130  ILE130      0.2260
    156  O         12.5150    7.0630   23.8970 O.2   130  ILE130     -0.2867
    157  CB        12.9950    6.8790   26.8210 C.3   130  ILE130      0.0252
    158  CG1       14.0850    5.8000   26.7700 C.3   130  ILE130      0.0019
    159  CG2       12.6880    7.3150   28.2830 C.3   130  ILE130      0.0019
    160  CD1       15.4950    6.3520   27.0580 C.3   130  ILE130      0.0001
    161  N         10.8940    6.3270   20.6120 N.3   132  ARG132     -0.1245
    162  CA        10.1600    7.2580   19.7560 C.3   132  ARG132      0.1563
    163  C          9.5550    6.4760   18.6090 C.2   132  ARG132      0.2260
    164  O         10.1930    5.5640   18.0830 O.2   132  ARG132     -0.2867
    165  CB        11.0700    8.3710   19.2110 C.3   132  ARG132      0.0307
    166  CG        11.8010    9.1850   20.2980 C.3   132  ARG132      0.0489
    167  CD        10.8790    9.9530   21.2310 C.3   132  ARG132      0.2205
    168  NE        11.6380   10.8930   22.0560 N.pl3 132  ARG132     -0.0865
    169  CZ        11.7070   12.2000   21.8300 C.cat 132  ARG132      0.5346
    170  NH1       12.4310   12.9780   22.6240 N.pl3 132  ARG132      0.1354
    171  NH2       11.0450   12.7430   20.8150 N.pl3 132  ARG132      0.1354
    172  N         25.0320    6.3120   30.7930 N.3   232  ASP232     -0.1225
    173  CA        24.8330    6.5790   29.3670 C.3   232  ASP232      0.1805
    174  C         26.1110    6.4730   28.5530 C.2   232  ASP232      0.2598
    175  O         26.9290    7.3970   28.5330 O.2   232  ASP232     -0.2718
    176  CB        24.2110    7.9750   29.1960 C.3   232  ASP232      0.1424
    177  CG        23.8350    8.3380   27.7600 C.2   232  ASP232      0.3668
    178  OD1       23.9620    7.4570   26.8720 O.co2 232  ASP232     -0.2456
    179  OD2       23.5250    9.5360   27.5060 O.co2 232  ASP232     -0.2456
    180  N         26.2580    5.3440   27.8040 N.am  233  SER233     -0.1938
    181  CA        27.4100    5.1460   26.9360 C.3   233  SER233      0.2055
    182  C         27.4540    6.1490   25.7640 C.2   233  SER233      0.2644
    183  O         28.4870    6.2710   25.1060 O.2   233  SER233     -0.2714
    184  CB        27.4560    3.7170   26.4100 C.3   233  SER233      0.2130
    185  OG        26.2940    3.4550   25.6170 O.3   233  SER233     -0.2179
    186  N         26.3190    6.8310   25.5090 N.am  234  GLY234     -0.1939
    187  CA        26.1980    7.8210   24.4450 C.3   234  GLY234      0.2014
    188  C         26.4260    9.2680   24.8700 C.2   234  GLY234      0.2640
    189  O         26.1140   10.1790   24.1100 O.2   234  GLY234     -0.2714
    190  N         27.0010    9.4880   26.0820 N.am  235  THR235     -0.1936
    191  CA        27.4200   10.8170   26.5460 C.3   235  THR235      0.2028
    192  C         28.9290   10.7010   26.7870 C.2   235  THR235      0.2642
    193  O         29.3620    9.7540   27.4280 O.2   235  THR235     -0.2714
    194  CB        26.7030   11.1940   27.8540 C.3   235  THR235      0.1808
    195  OG1       25.3480   11.5420   27.5220 O.3   235  THR235     -0.2208
    196  CG2       27.3320   12.4120   28.5400 C.3   235  THR235      0.0379
    197  N         29.7000   11.6900   26.3300 N.am  236  THR236     -0.1950
    198  CA        31.1570   11.6730   26.5090 C.3   236  THR236      0.1897
    199  C         31.5190   11.9190   27.9820 C.2   236  THR236      0.2313
    200  O         32.3690   11.2250   28.5570 O.2   236  THR236     -0.2863
    201  CB        31.7820   12.8050   25.6500 C.3   236  THR236      0.1794
    202  OG1       31.5120   12.5220   24.2590 O.3   236  THR236     -0.2208
    203  CG2       33.2910   12.9460   25.8630 C.3   236  THR236      0.0378
    204  N         28.4250   14.2330   33.5820 N.3   239  ARG239     -0.1245
    205  CA        27.6300   15.4710   33.6610 C.3   239  ARG239      0.1563
    206  C         26.9500   15.4960   35.0130 C.2   239  ARG239      0.2260
    207  O         26.4500   14.4670   35.4850 O.2   239  ARG239     -0.2867
    208  CB        26.6180   15.5960   32.4860 C.3   239  ARG239      0.0307
    209  CG        27.3040   15.4650   31.1220 C.3   239  ARG239      0.0489
    210  CD        26.3660   15.7070   29.9540 C.3   239  ARG239      0.2205
    211  NE        25.8870   17.0930   29.9630 N.pl3 239  ARG239     -0.0865
    212  CZ        24.6290   17.4530   29.7280 C.cat 239  ARG239      0.5346
    213  NH1       24.2750   18.7320   29.8000 N.pl3 239  ARG239      0.1354
    214  NH2       23.7090   16.5370   29.4470 N.pl3 239  ARG239      0.1354
    215  N         30.9380    8.2520   29.1530 N.3   336  ALA336     -0.1245
    216  CA        32.1890    7.5460   28.8740 C.3   336  ALA336      0.1562
    217  C         33.2720    7.8070   29.9210 C.2   336  ALA336      0.2260
    218  O         34.0280    6.8780   30.2050 O.2   336  ALA336     -0.2867
    219  CB        32.6890    7.8790   27.4830 C.3   336  ALA336      0.0290
@<TRIPOS>BOND
     1   126   125    2
     2   134   133    2
     3   125   124    1
     4   133   132    1
     5   123   124    1
     6   124   127    1
     7   100    99    1
     8   100   101    2
     9   131   132    1
    10    99   102    1
    11    99    98    1
    12   102   103    1
    13   132   135    1
    14   108   110   ar
    15   108   105   ar
    16    72    73    2
    17    72    71    1
    18   119   121   ar
    19   119   117   ar
    20   112   113    1
    21   110   111   ar
    22   114   113    1
    23   114   115    2
    24   116   113    1
    25   116   117    1
    26   121   122   ar
    27   103   105   ar
    28   103   104   ar
    29    71    74    1
    30    71    70    1
    31   105   107   ar
    32   127   129    1
    33   127   128    1
    34   117   118   ar
    35   135   136    1
    36   141   143   ar
    37   141   138   ar
    38   143   144   ar
    39   111   109   ar
    40   128   130    1
    41   136   138   ar
    42   136   137   ar
    43   122   120   ar
    44   138   140   ar
    45   104   106   ar
    46   107   109   ar
    47   107   106   ar
    48   145   146    1
    49   118   120   ar
    50   144   142   ar
    51    18    17    2
    52    19    17   am
    53   137   139   ar
    54    75    76    1
    55   140   142   ar
    56   140   139   ar
    57    78    77    2
    58    17    16    1
    59   148   147    2
    60   146   147    1
    61   146   149    1
    62    36    37    1
    63   150   149    1
    64   150   152    1
    65    76    77    1
    66    76    79    1
    67    79    81    1
    68    79    80    1
    69   149   151    1
    70    16    15    1
    71    92    91    2
    72    69    67   am
    73    15    12    1
    74    37    40    1
    75    37    38    1
    76    40    41    1
    77   164   163    2
    78    66    67    1
    79    66    63    1
    80    64    65    2
    81    64    63    1
    82    91    90    1
    83    14    13    2
    84   163   162    1
    85    67    68    2
    86    39    38    2
    87    12    13    1
    88    12    11    1
    89    63    62    1
    90   165   162    1
    91   165   166    1
    92    13    20   am
    93    41    42    1
    94    41    43    1
    95    97    95   am
    96    23    22    2
    97   162   161    1
    98    26    27    2
    99    26    25    1
   100    90    89    1
   101    90    93    1
   102    82    83    1
   103    11     9   am
   104   166   167    1
   105    22    21    1
   106    22    24   am
   107    89    84   am
   108    20    21    1
   109    10     9    2
   110    93    94    1
   111    25    24    1
   112    25    28    1
   113    88    86    1
   114   171   169    1
   115    95    94    1
   116    95    96    2
   117     9     8    1
   118    84    83    1
   119    84    85    2
   120   167   168    1
   121    83    86    1
   122   169   168    2
   123   169   170    1
   124    86    87    1
   125    61    60    1
   126    28    29    1
   127     8     7    1
   128    51    49   ar
   129    48    49    1
   130    48    45    1
   131    44    45    1
   132    31    29   ar
   133    31    33   ar
   134    29    30   ar
   135    60    57    1
   136     7     3   am
   137    49    50   ar
   138    33    34   ar
   139    45    46    1
   140     3     4    2
   141     3     2    1
   142     1     2    1
   143    30    32   ar
   144    58    57    1
   145    58    59    2
   146   156   155    2
   147    57    56    1
   148    47    46    2
   149    34    32   ar
   150    34    35    1
   151   189   188    2
   152     2     5    1
   153   202   201    1
   154   187   188    1
   155   187   186    1
   156   155   154    1
   157   188   190   am
   158    56    54   am
   159   183   182    2
   160   186   182   am
   161     6     5    1
   162   185   184    1
   163   201   203    1
   164   201   198    1
   165   182   181    1
   166    55    54    2
   167    54    53    1
   168   190   191    1
   169   154   153    1
   170   154   157    1
   171   197   198    1
   172   197   192   am
   173   184   181    1
   174    52    53    1
   175   198   199    1
   176   191   192    1
   177   191   194    1
   178   158   157    1
   179   158   160    1
   180   192   193    2
   181   157   159    1
   182   178   177   ar
   183   181   180    1
   184   219   216    1
   185   179   177   ar
   186   195   194    1
   187   177   176    1
   188   180   174   am
   189   194   196    1
   190   199   200    2
   191   175   174    2
   192   174   173    1
   193   216   215    1
   194   216   217    1
   195   176   173    1
   196   173   172    1
   197   214   212    1
   198   212   213    1
   199   212   211    2
   200   217   218    2
   201   210   211    1
   202   210   209    1
   203   209   208    1
   204   208   205    1
   205   204   205    1
   206   205   206    1
   207   206   207    2
