@<TRIPOS>MOLECULE
tmp/5hdxA00.pdb
 224 216 0 0 0
SMALL
GASTEIGER

@<TRIPOS>ATOM
      1  N         34.6980   10.7880   22.9020 N.3    15  GLY15      -0.1210
      2  CA        34.1810   11.9890   22.2430 C.3    15  GLY15       0.1956
      3  C         33.2640   11.7540   21.0560 C.2    15  GLY15       0.2612
      4  O         32.3560   12.5600   20.8210 O.2    15  GLY15      -0.2717
      5  N         33.4980   10.6650   20.2840 N.am   16  GLN16      -0.1965
      6  CA        32.7210   10.3550   19.0630 C.3    16  GLN16       0.1733
      7  C         31.8270    9.1240   19.2200 C.2    16  GLN16       0.2616
      8  O         31.0140    8.8220   18.3480 O.2    16  GLN16      -0.2715
      9  CB        33.6500   10.2070   17.8480 C.3    16  GLN16       0.0408
     10  CG        34.3540   11.5220   17.4680 C.3    16  GLN16       0.0908
     11  CD        35.0570   11.4690   16.1330 C.2    16  GLN16       0.2608
     12  OE1       35.9960   10.6920   15.9180 O.2    16  GLN16      -0.2717
     13  NE2       34.6540   12.3450   15.2240 N.am   16  GLN16      -0.0878
     14  N         31.9410    8.4760   20.3590 N.am   17  GLY17      -0.1955
     15  CA        31.1470    7.2990   20.6810 C.3    17  GLY17       0.1869
     16  C         31.8390    6.0000   20.3340 C.2    17  GLY17       0.2309
     17  O         32.7830    5.9660   19.5320 O.2    17  GLY17      -0.2863
     18  N         26.5000    3.0270   16.6380 N.3    34  LEU34      -0.1245
     19  CA        26.8200    3.5640   17.9610 C.3    34  LEU34       0.1561
     20  C         26.0650    2.7920   19.0570 C.2    34  LEU34       0.2260
     21  O         24.8610    2.6150   18.9610 O.2    34  LEU34      -0.2867
     22  CB        26.4060    5.0400   17.9990 C.3    34  LEU34       0.0270
     23  CG        26.6620    5.7670   19.3340 C.3    34  LEU34       0.0019
     24  CD1       28.0930    6.1560   19.4520 C.3    34  LEU34       0.0001
     25  CD2       25.8310    7.0110   19.4510 C.3    34  LEU34       0.0001
     26  N         24.3320    2.9300   22.3760 N.3    36  ASP36      -0.1239
     27  CA        23.7610    4.0110   23.1760 C.3    36  ASP36       0.1674
     28  C         22.8110    3.5240   24.2690 C.2    36  ASP36       0.2266
     29  O         21.6290    3.2540   24.0140 O.2    36  ASP36      -0.2867
     30  CB        23.0590    5.0050   22.2420 C.3    36  ASP36       0.1410
     31  CG        22.5630    6.2560   22.9240 C.2    36  ASP36       0.3668
     32  OD1       23.0010    6.5250   24.0810 O.co2  36  ASP36      -0.2456
     33  OD2       21.7040    6.9410   22.3370 O.co2  36  ASP36      -0.2456
     34  N         21.5920    5.4210   26.4000 N.3    38  GLY38      -0.1210
     35  CA        20.7830    6.6040   26.7080 C.3    38  GLY38       0.1956
     36  C         19.5820    6.8110   25.7910 C.2    38  GLY38       0.2613
     37  O         18.9700    7.8800   25.8030 O.2    38  GLY38      -0.2717
     38  N         19.2760    5.8340   24.9060 N.am   39  SER39      -0.1938
     39  CA        18.0980    5.9380   24.0180 C.3    39  SER39       0.2055
     40  C         17.5980    4.5310   23.7250 C.2    39  SER39       0.2644
     41  O         18.2480    3.5630   24.1230 O.2    39  SER39      -0.2714
     42  CB        18.3990    6.7060   22.7410 C.3    39  SER39       0.2130
     43  OG        19.2710    5.9730   21.9010 O.3    39  SER39      -0.2179
     44  N         16.4690    4.4090   23.0090 N.am   40  SER40      -0.1935
     45  CA        15.8520    3.1030   22.8490 C.3    40  SER40       0.2055
     46  C         15.3800    2.8010   21.4390 C.2    40  SER40       0.2643
     47  O         14.6270    1.8340   21.2690 O.2    40  SER40      -0.2714
     48  CB        14.6740    2.9920   23.8080 C.3    40  SER40       0.2130
     49  OG        15.1190    3.2650   25.1330 O.3    40  SER40      -0.2179
     50  N         15.8790    3.5350   20.4380 N.am   41  ASN41      -0.1971
     51  CA        15.5650    3.2410   19.0420 C.3    41  ASN41       0.1688
     52  C         16.7840    2.6880   18.3190 C.2    41  ASN41       0.2292
     53  O         17.9090    3.1470   18.5390 O.2    41  ASN41      -0.2864
     54  CB        15.1550    4.5150   18.2830 C.3    41  ASN41       0.1181
     55  CG        13.7460    4.9210   18.5800 C.2    41  ASN41       0.2629
     56  OD1       13.4530    5.3930   19.6850 O.2    41  ASN41      -0.2716
     57  ND2       12.8310    4.6560   17.6300 N.am   41  ASN41      -0.0877
     58  N         12.5130   12.8920   15.5700 N.3    73  VAL73      -0.1231
     59  CA        13.2110   12.8850   16.8470 C.3    73  VAL73       0.1678
     60  C         14.0750   14.1420   17.0490 C.2    73  VAL73       0.2434
     61  O         15.2930   14.1090   16.8230 O.2    73  VAL73      -0.2733
     62  CB        14.0050   11.5730   17.1170 C.3    73  VAL73       0.0265
     63  CG1       14.6330   11.5920   18.5040 C.3    73  VAL73       0.0020
     64  CG2       13.1150   10.3450   16.9670 C.3    73  VAL73       0.0020
     65  N         13.4720   15.2360   17.5540 N.am   74  PRO74      -0.2718
     66  CA        14.2850   16.4090   17.9010 C.3    74  PRO74       0.1535
     67  C         14.7900   16.2740   19.3500 C.2    74  PRO74       0.2599
     68  O         13.9970   15.9980   20.2620 O.2    74  PRO74      -0.2715
     69  CB        13.2940   17.5710   17.7530 C.3    74  PRO74       0.0310
     70  CG        11.9300   16.9550   18.0640 C.3    74  PRO74       0.0237
     71  CD        12.0440   15.4450   17.8970 C.3    74  PRO74       0.0939
     72  N         16.1060   16.3980   19.5640 N.am   75  TYR75      -0.1960
     73  CA        16.6660   16.3770   20.9210 C.3    75  TYR75       0.1771
     74  C         17.4850   17.6680   21.1130 C.2    75  TYR75       0.2620
     75  O         17.4970   18.4940   20.2030 O.2    75  TYR75      -0.2715
     76  CB        17.3960   15.0440   21.2970 C.3    75  TYR75       0.0574
     77  CG        18.5050   14.6510   20.3520 C.ar   75  TYR75      -0.0198
     78  CD1       18.2360   13.9330   19.1900 C.ar   75  TYR75      -0.0009
     79  CD2       19.8190   15.0400   20.5900 C.ar   75  TYR75      -0.0009
     80  CE1       19.2440   13.6350   18.2750 C.ar   75  TYR75       0.0417
     81  CE2       20.8370   14.7340   19.6920 C.ar   75  TYR75       0.0417
     82  CZ        20.5450   14.0250   18.5390 C.ar   75  TYR75       0.1957
     83  OH        21.5430   13.7380   17.6480 O.3    75  TYR75      -0.2866
     84  N         18.0840   17.8870   22.3030 N.am   76  THR76      -0.1937
     85  CA        18.8100   19.1230   22.6510 C.3    76  THR76       0.2028
     86  C         19.8440   19.5810   21.5920 C.2    76  THR76       0.2642
     87  O         19.6980   20.6860   21.0600 O.2    76  THR76      -0.2714
     88  CB        19.4410   19.0070   24.0560 C.3    76  THR76       0.1808
     89  OG1       18.4160   18.6770   24.9960 O.3    76  THR76      -0.2208
     90  CG2       20.1380   20.2950   24.5010 C.3    76  THR76       0.0379
     91  N         20.8650   18.7470   21.2950 N.am   77  GLN77      -0.1976
     92  CA        21.9730   19.0980   20.3930 C.3    77  GLN77       0.1601
     93  C         21.8130   18.6910   18.9160 C.2    77  GLN77       0.2287
     94  O         22.6150   19.1180   18.0790 O.2    77  GLN77      -0.2864
     95  CB        23.2900   18.5230   20.9440 C.3    77  GLN77       0.0394
     96  CG        23.7050   19.2160   22.2280 C.3    77  GLN77       0.0908
     97  CD        24.1080   20.6610   22.0060 C.2    77  GLN77       0.2608
     98  OE1       24.6720   21.0140   20.9630 O.2    77  GLN77      -0.2717
     99  NE2       23.8510   21.4790   22.9570 N.am   77  GLN77      -0.0878
    100  N         16.7990   14.1340   13.9820 N.3    80  TRP80      -0.1241
    101  CA        16.6770   13.2360   12.8430 C.3    80  TRP80       0.1605
    102  C         15.2320   12.8910   12.5990 C.2    80  TRP80       0.2264
    103  O         14.4120   12.9480   13.5070 O.2    80  TRP80      -0.2867
    104  CB        17.5750   11.9860   12.9430 C.3    80  TRP80       0.0550
    105  CG        17.3150   11.0600   14.0940 C.ar   80  TRP80       0.0003
    106  CD1       18.0890   10.9180   15.2090 C.ar   80  TRP80       0.0946
    107  CD2       16.3570    9.9890   14.1340 C.ar   80  TRP80       0.0152
    108  NE1       17.6400    9.8630   15.9700 N.ar   80  TRP80      -0.2442
    109  CE2       16.5510    9.2980   15.3520 C.ar   80  TRP80       0.0810
    110  CE3       15.3410    9.5520   13.2610 C.ar   80  TRP80       0.0012
    111  CZ2       15.7480    8.2160   15.7380 C.ar   80  TRP80       0.0191
    112  CZ3       14.5330    8.4950   13.6550 C.ar   80  TRP80       0.0001
    113  CH2       14.7370    7.8350   14.8730 C.ar   80  TRP80       0.0015
    114  N         22.8470   17.8770   12.5620 N.3   111  LYS111     -0.1231
    115  CA        23.8980   17.7420   13.5770 C.3   111  LYS111      0.1693
    116  C         23.8690   16.3770   14.2860 C.2   111  LYS111      0.2592
    117  O         24.2060   16.2740   15.4730 O.2   111  LYS111     -0.2718
    118  CB        23.8670   18.9220   14.5830 C.3   111  LYS111      0.0285
    119  CG        24.1000   20.2990   13.9590 C.3   111  LYS111      0.0035
    120  CD        24.2710   21.4040   15.0230 C.3   111  LYS111      0.0206
    121  CE        23.0100   21.7750   15.7880 C.3   111  LYS111      0.1093
    122  NZ        21.9960   22.4340   14.9200 N.3   111  LYS111     -0.1314
    123  N         23.4540   15.3260   13.5480 N.am  112  PHE112     -0.1976
    124  CA        23.3740   13.9740   14.0730 C.3   112  PHE112      0.1639
    125  C         24.6240   13.1800   13.6670 C.2   112  PHE112      0.2290
    126  O         25.3860   12.7760   14.5410 O.2   112  PHE112     -0.2864
    127  CB        22.0550   13.3030   13.6420 C.3   112  PHE112      0.0560
    128  CG        21.9020   11.8870   14.1290 C.ar  112  PHE112     -0.0200
    129  CD1       21.5780   11.6220   15.4560 C.ar  112  PHE112     -0.0042
    130  CD2       22.0500   10.8170   13.2580 C.ar  112  PHE112     -0.0042
    131  CE1       21.4300   10.3140   15.9060 C.ar  112  PHE112     -0.0003
    132  CE2       21.9100    9.5070   13.7120 C.ar  112  PHE112     -0.0003
    133  CZ        21.6040    9.2640   15.0320 C.ar  112  PHE112     -0.0000
    134  N         28.2830   12.5660   12.7990 N.3   114  ILE114     -0.1245
    135  CA        29.5480   13.2280   13.1400 C.3   114  ILE114      0.1561
    136  C         30.5600   12.9420   12.0290 C.2   114  ILE114      0.2260
    137  O         30.8160   11.7730   11.7110 O.2   114  ILE114     -0.2867
    138  CB        30.1050   12.7670   14.5320 C.3   114  ILE114      0.0252
    139  CG1       29.0720   12.8950   15.6910 C.3   114  ILE114      0.0019
    140  CG2       31.4200   13.5050   14.8780 C.3   114  ILE114      0.0019
    141  CD1       29.5220   12.1260   17.0560 C.3   114  ILE114      0.0001
    142  N         30.5330    5.7990   12.3080 N.3   119  TRP119     -0.1241
    143  CA        29.2640    5.0930   12.5430 C.3   119  TRP119      0.1605
    144  C         28.1360    5.6690   11.6730 C.2   119  TRP119      0.2264
    145  O         28.1580    6.8410   11.3120 O.2   119  TRP119     -0.2867
    146  CB        28.8440    4.9690   14.0070 C.3   119  TRP119      0.0550
    147  CG        28.8410    6.2250   14.8130 C.ar  119  TRP119      0.0003
    148  CD1       29.8180    6.6290   15.6870 C.ar  119  TRP119      0.0946
    149  CD2       27.7810    7.1930   14.9140 C.ar  119  TRP119      0.0152
    150  NE1       29.4270    7.7680   16.3370 N.ar  119  TRP119     -0.2442
    151  CE2       28.1820    8.1500   15.8770 C.ar  119  TRP119      0.0810
    152  CE3       26.5000    7.3120   14.3320 C.ar  119  TRP119      0.0012
    153  CZ2       27.3710    9.2470   16.2300 C.ar  119  TRP119      0.0191
    154  CZ3       25.6920    8.3850   14.6820 C.ar  119  TRP119      0.0001
    155  CH2       26.1230    9.3450   15.6220 C.ar  119  TRP119      0.0015
    156  N         22.5410    4.2230   15.1710 N.3   122  ILE122     -0.1245
    157  CA        22.5670    4.1350   16.6370 C.3   122  ILE122      0.1561
    158  C         21.7440    2.9800   17.1130 C.2   122  ILE122      0.2260
    159  O         20.6420    2.7590   16.5880 O.2   122  ILE122     -0.2867
    160  CB        22.0800    5.4640   17.2750 C.3   122  ILE122      0.0252
    161  CG1       22.9990    6.6320   16.9240 C.3   122  ILE122      0.0019
    162  CG2       21.9820    5.3490   18.7910 C.3   122  ILE122      0.0019
    163  CD1       22.7970    7.9010   17.8550 C.3   122  ILE122      0.0001
    164  N         11.0270    5.1880   26.6130 N.3   130  ILE130     -0.1245
    165  CA        11.5900    6.3610   25.9670 C.3   130  ILE130      0.1561
    166  C         11.8000    6.1760   24.4350 C.2   130  ILE130      0.2260
    167  O         12.3960    7.0320   23.7780 O.2   130  ILE130     -0.2867
    168  CB        12.8740    6.8240   26.7120 C.3   130  ILE130      0.0252
    169  CG1       13.9400    5.7210   26.7130 C.3   130  ILE130      0.0019
    170  CG2       12.5460    7.2770   28.1720 C.3   130  ILE130      0.0019
    171  CD1       15.3560    6.2660   27.0690 C.3   130  ILE130      0.0001
    172  N         10.7890    6.1990   20.4720 N.3   132  ARG132     -0.1245
    173  CA        10.0070    7.1080   19.6350 C.3   132  ARG132      0.1563
    174  C          9.4150    6.3180   18.4720 C.2   132  ARG132      0.2260
    175  O         10.0780    5.4140   17.9550 O.2   132  ARG132     -0.2867
    176  CB        10.8600    8.2500   19.0930 C.3   132  ARG132      0.0307
    177  CG        11.4240    9.1930   20.1420 C.3   132  ARG132      0.0489
    178  CD        10.4060    9.8690   21.0490 C.3   132  ARG132      0.2205
    179  NE        11.0950   10.7820   21.9610 N.pl3 132  ARG132     -0.0865
    180  CZ        11.3550   12.0600   21.6970 C.cat 132  ARG132      0.5346
    181  NH1       12.0150   12.8020   22.5740 N.pl3 132  ARG132      0.1354
    182  NH2       10.9470   12.6070   20.5570 N.pl3 132  ARG132      0.1354
    183  N         15.2880    5.1200   31.2010 N.3   202  TYR202     -0.1241
    184  CA        16.7300    5.2130   31.0440 C.3   202  TYR202      0.1605
    185  C         17.2480    4.1350   32.0080 C.2   202  TYR202      0.2264
    186  O         16.4750    3.5420   32.7720 O.2   202  TYR202     -0.2867
    187  CB        17.2390    6.5730   31.5540 C.3   202  TYR202      0.0534
    188  CG        16.8200    7.7260   30.6820 C.ar  202  TYR202     -0.0201
    189  CD1       17.5070    8.0230   29.5040 C.ar  202  TYR202     -0.0009
    190  CD2       15.6870    8.4750   30.9840 C.ar  202  TYR202     -0.0009
    191  CE1       17.0790    9.0490   28.6590 C.ar  202  TYR202      0.0417
    192  CE2       15.2610    9.5070   30.1530 C.ar  202  TYR202      0.0417
    193  CZ        15.9500    9.7820   28.9900 C.ar  202  TYR202      0.1957
    194  OH        15.5070   10.8030   28.1830 O.3   202  TYR202     -0.2866
    195  N         24.8890    6.3060   30.7050 N.3   232  ASP232     -0.1239
    196  CA        24.6830    6.5930   29.2880 C.3   232  ASP232      0.1674
    197  C         25.9730    6.5260   28.4570 C.2   232  ASP232      0.2266
    198  O         26.7600    7.4840   28.4020 O.2   232  ASP232     -0.2867
    199  CB        24.0340    7.9770   29.1530 C.3   232  ASP232      0.1410
    200  CG        23.7090    8.3670   27.7030 C.2   232  ASP232      0.3668
    201  OD1       23.8520    7.4930   26.7980 O.co2 232  ASP232     -0.2456
    202  OD2       23.4250    9.5670   27.4530 O.co2 232  ASP232     -0.2456
    203  N         26.2200    6.8910   25.3690 N.3   234  GLY234     -0.1210
    204  CA        26.1250    7.8570   24.2940 C.3   234  GLY234      0.1956
    205  C         26.5310    9.2720   24.6860 C.2   234  GLY234      0.2612
    206  O         26.5780   10.1510   23.8330 O.2   234  GLY234     -0.2717
    207  N         26.8170    9.5030   25.9850 N.am  235  THR235     -0.1952
    208  CA        27.3030   10.8120   26.4670 C.3   235  THR235      0.1897
    209  C         28.8000   10.6690   26.7060 C.2   235  THR235      0.2313
    210  O         29.2340    9.6560   27.2330 O.2   235  THR235     -0.2863
    211  CB        26.5920   11.2020   27.7670 C.3   235  THR235      0.1794
    212  OG1       25.2390   11.5550   27.4780 O.3   235  THR235     -0.2208
    213  CG2       27.2510   12.4010   28.4850 C.3   235  THR235      0.0378
    214  N         28.3110   14.1680   33.5380 N.3   239  ARG239     -0.1245
    215  CA        27.5410   15.4280   33.6210 C.3   239  ARG239      0.1563
    216  C         26.8590   15.4690   34.9800 C.2   239  ARG239      0.2260
    217  O         26.3280   14.4410   35.4490 O.2   239  ARG239     -0.2867
    218  CB        26.5330   15.5690   32.4430 C.3   239  ARG239      0.0307
    219  CG        27.2120   15.4350   31.0930 C.3   239  ARG239      0.0489
    220  CD        26.2670   15.6870   29.9280 C.3   239  ARG239      0.2205
    221  NE        25.8360   17.0870   29.9280 N.pl3 239  ARG239     -0.0865
    222  CZ        24.5900   17.4860   29.7120 C.cat 239  ARG239      0.5346
    223  NH1       24.2830   18.7780   29.7570 N.pl3 239  ARG239      0.1354
    224  NH2       23.6350   16.5990   29.4780 N.pl3 239  ARG239      0.1354
@<TRIPOS>BOND
     1   145   144    2
     2   144   143    1
     3   137   136    2
     4   136   135    1
     5   142   143    1
     6   143   146    1
     7   114   115    1
     8   102   101    1
     9   102   103    2
    10   134   135    1
    11   101   104    1
    12   101   100    1
    13   104   105    1
    14   135   138    1
    15   130   132   ar
    16   130   128   ar
    17   110   112   ar
    18   110   107   ar
    19   123   124    1
    20   123   116   am
    21   115   116    1
    22   115   118    1
    23   127   124    1
    24   127   128    1
    25   112   113   ar
    26   125   124    1
    27   125   126    2
    28   132   133   ar
    29   119   118    1
    30   119   120    1
    31   146   147    1
    32   105   107   ar
    33   105   106   ar
    34   128   129   ar
    35   107   109   ar
    36   116   117    2
    37   152   154   ar
    38   152   149   ar
    39   138   140    1
    40   138   139    1
    41   154   155   ar
    42   147   149   ar
    43   147   148   ar
    44   113   111   ar
    45   149   151   ar
    46   122   121    1
    47   120   121    1
    48   133   131   ar
    49   156   157    1
    50   106   108   ar
    51    13    11   am
    52   109   111   ar
    53   109   108   ar
    54   129   131   ar
    55    58    59    1
    56   155   153   ar
    57   148   150   ar
    58   139   141    1
    59   151   153   ar
    60   151   150   ar
    61    12    11    2
    62    11    10    1
    63   159   158    2
    64   157   158    1
    65   157   160    1
    66    18    19    1
    67    61    60    2
    68    59    60    1
    69    59    62    1
    70   161   160    1
    71   161   163    1
    72    64    62    1
    73    60    65   am
    74    62    63    1
    75   160   162    1
    76    10     9    1
    77    65    71    1
    78    65    66    1
    79    57    55   am
    80    83    82    1
    81    69    66    1
    82    69    70    1
    83     9     6    1
    84    71    70    1
    85    66    67    1
    86   175   174    2
    87    19    22    1
    88    19    20    1
    89    22    23    1
    90    94    93    2
    91    80    82   ar
    92    80    78   ar
    93    54    55    1
    94    54    51    1
    95    52    53    2
    96    52    51    1
    97     8     7    2
    98   174   173    1
    99    82    81   ar
   100    55    56    2
   101    93    92    1
   102    21    20    2
   103    51    50    1
   104     6     7    1
   105     6     5    1
   106   176   173    1
   107   176   177    1
   108    78    77   ar
   109     7    14   am
   110    23    25    1
   111    23    24    1
   112    67    72   am
   113    67    68    2
   114    17    16    2
   115    72    73    1
   116   173   172    1
   117    81    79   ar
   118   177   178    1
   119    75    74    2
   120     5     3   am
   121    16    15    1
   122    77    79   ar
   123    77    76    1
   124    14    15    1
   125    92    95    1
   126    92    91    1
   127    50    46   am
   128   182   180    1
   129     4     3    2
   130    73    74    1
   131    73    76    1
   132    95    96    1
   133    98    97    2
   134   178   179    1
   135     3     2    1
   136    87    86    2
   137    74    84   am
   138    47    46    2
   139    91    86   am
   140    46    45    1
   141    86    85    1
   142   180   179    2
   143   180   181    1
   144    43    42    1
   145    97    96    1
   146    97    99   am
   147    30    31    1
   148    30    27    1
   149     2     1    1
   150    84    85    1
   151    33    31   ar
   152    26    27    1
   153    85    88    1
   154    42    39    1
   155    45    44    1
   156    45    48    1
   157    31    32   ar
   158    44    40   am
   159    27    28    1
   160    40    39    1
   161    40    41    2
   162   167   166    2
   163    48    49    1
   164   206   205    2
   165    29    28    2
   166    39    38    1
   167    88    90    1
   168    88    89    1
   169   204   205    1
   170   204   203    1
   171   166   165    1
   172   205   207   am
   173    38    36   am
   174    36    37    2
   175    36    35    1
   176   165   164    1
   177   165   168    1
   178   207   208    1
   179    34    35    1
   180   208   209    1
   181   208   211    1
   182   209   210    2
   183   168   169    1
   184   168   170    1
   185   169   171    1
   186   201   200   ar
   187   202   200   ar
   188   212   211    1
   189   200   199    1
   190   211   213    1
   191   194   193    1
   192   198   197    2
   193   197   196    1
   194   191   193   ar
   195   191   189   ar
   196   193   192   ar
   197   199   196    1
   198   196   195    1
   199   224   222    1
   200   189   188   ar
   201   222   223    1
   202   222   221    2
   203   221   220    1
   204   220   219    1
   205   192   190   ar
   206   188   190   ar
   207   188   187    1
   208   184   183    1
   209   184   187    1
   210   184   185    1
   211   219   218    1
   212   185   186    2
   213   218   215    1
   214   214   215    1
   215   215   216    1
   216   216   217    2
