@<TRIPOS>MOLECULE
tmp/5hdzA00.pdb
 224 216 0 0 0
SMALL
GASTEIGER

@<TRIPOS>ATOM
      1  N         34.7880   10.8100   23.0030 N.3    15  GLY15      -0.1210
      2  CA        34.2720   12.0130   22.3440 C.3    15  GLY15       0.1956
      3  C         33.3280   11.8030   21.1730 C.2    15  GLY15       0.2612
      4  O         32.4250   12.6210   20.9610 O.2    15  GLY15      -0.2717
      5  N         33.5300   10.7160   20.3970 N.am   16  GLN16      -0.1965
      6  CA        32.7630   10.4140   19.1740 C.3    16  GLN16       0.1733
      7  C         31.8580    9.1850   19.3320 C.2    16  GLN16       0.2616
      8  O         31.0560    8.8740   18.4460 O.2    16  GLN16      -0.2715
      9  CB        33.7150   10.2340   17.9840 C.3    16  GLN16       0.0408
     10  CG        34.2940   11.5660   17.4760 C.3    16  GLN16       0.0908
     11  CD        35.1180   11.4290   16.2130 C.2    16  GLN16       0.2608
     12  OE1       36.0240   10.5890   16.1040 O.2    16  GLN16      -0.2717
     13  NE2       34.8540   12.2950   15.2470 N.am   16  GLN16      -0.0878
     14  N         32.0000    8.5070   20.4520 N.am   17  GLY17      -0.1955
     15  CA        31.2220    7.3210   20.7690 C.3    17  GLY17       0.1869
     16  C         31.9030    6.0180   20.4210 C.2    17  GLY17       0.2309
     17  O         32.8630    5.9710   19.6330 O.2    17  GLY17      -0.2863
     18  N         26.5440    3.0610   16.7350 N.3    34  LEU34      -0.1245
     19  CA        26.8620    3.6110   18.0580 C.3    34  LEU34       0.1561
     20  C         26.1260    2.8320   19.1540 C.2    34  LEU34       0.2260
     21  O         24.9180    2.6470   19.0550 O.2    34  LEU34      -0.2867
     22  CB        26.4400    5.0910   18.0840 C.3    34  LEU34       0.0270
     23  CG        26.6460    5.8020   19.4320 C.3    34  LEU34       0.0019
     24  CD1       28.0720    6.1450   19.6190 C.3    34  LEU34       0.0001
     25  CD2       25.8630    7.0670   19.5150 C.3    34  LEU34       0.0001
     26  N         24.3980    2.9910   22.4430 N.3    36  ASP36      -0.1239
     27  CA        23.8340    4.0650   23.2550 C.3    36  ASP36       0.1674
     28  C         22.8810    3.5850   24.3500 C.2    36  ASP36       0.2266
     29  O         21.6980    3.3310   24.0770 O.2    36  ASP36      -0.2867
     30  CB        23.1360    5.0600   22.3300 C.3    36  ASP36       0.1410
     31  CG        22.6290    6.3110   23.0090 C.2    36  ASP36       0.3668
     32  OD1       23.0370    6.5660   24.1600 O.co2  36  ASP36      -0.2456
     33  OD2       21.7930    7.0080   22.4080 O.co2  36  ASP36      -0.2456
     34  N         22.1200    5.0030   26.5420 N.3    38  GLY38      -0.1210
     35  CA        21.3800    6.2690   26.5980 C.3    38  GLY38       0.1956
     36  C         20.1630    6.3590   25.7270 C.2    38  GLY38       0.2613
     37  O         19.4540    7.3570   25.8550 O.2    38  GLY38      -0.2717
     38  N         19.9490    5.3300   24.9140 N.am   39  SER39      -0.1938
     39  CA        18.8830    5.3750   23.9360 C.3    39  SER39       0.2055
     40  C         18.0510    4.1130   23.7860 C.2    39  SER39       0.2644
     41  O         18.3010    3.1130   24.4680 O.2    39  SER39      -0.2714
     42  CB        19.5520    5.6540   22.5810 C.3    39  SER39       0.2130
     43  OG        18.6480    6.1770   21.6280 O.3    39  SER39      -0.2179
     44  N         17.0160    4.1110   22.9160 N.am   40  SER40      -0.1935
     45  CA        15.9140    3.1670   22.9180 C.3    40  SER40       0.2055
     46  C         15.4520    2.8340   21.5110 C.2    40  SER40       0.2643
     47  O         14.7070    1.8490   21.3680 O.2    40  SER40      -0.2714
     48  CB        14.7430    3.7470   23.7030 C.3    40  SER40       0.2130
     49  OG        15.1590    4.0280   25.0340 O.3    40  SER40      -0.2179
     50  N         15.9570    3.5620   20.4930 N.am   41  ASN41      -0.1971
     51  CA        15.6320    3.2660   19.0930 C.3    41  ASN41       0.1688
     52  C         16.8430    2.7150   18.3670 C.2    41  ASN41       0.2292
     53  O         17.9690    3.1370   18.6140 O.2    41  ASN41      -0.2864
     54  CB        15.1830    4.5360   18.3240 C.3    41  ASN41       0.1181
     55  CG        13.7700    4.9300   18.6390 C.2    41  ASN41       0.2629
     56  OD1       13.4860    5.4310   19.7390 O.2    41  ASN41      -0.2716
     57  ND2       12.8410    4.6740   17.6890 N.am   41  ASN41      -0.0877
     58  N         12.5280   12.8910   15.6150 N.3    73  VAL73      -0.1231
     59  CA        13.2050   12.8950   16.9120 C.3    73  VAL73       0.1678
     60  C         14.0740   14.1520   17.1500 C.2    73  VAL73       0.2434
     61  O         15.2840   14.1220   16.9060 O.2    73  VAL73      -0.2733
     62  CB        13.9990   11.5880   17.1760 C.3    73  VAL73       0.0265
     63  CG1       14.6230   11.5970   18.5690 C.3    73  VAL73       0.0020
     64  CG2       13.1140   10.3600   17.0020 C.3    73  VAL73       0.0020
     65  N         13.4970   15.2270   17.7300 N.am   74  PRO74      -0.2718
     66  CA        14.3250   16.3900   18.0790 C.3    74  PRO74       0.1535
     67  C         14.8290   16.2780   19.5290 C.2    74  PRO74       0.2599
     68  O         14.0310   16.0660   20.4530 O.2    74  PRO74      -0.2715
     69  CB        13.3550   17.5660   17.9050 C.3    74  PRO74       0.0310
     70  CG        11.9710   16.9700   18.1830 C.3    74  PRO74       0.0237
     71  CD        12.0780   15.4510   18.0940 C.3    74  PRO74       0.0939
     72  N         16.1520   16.3610   19.7290 N.am   75  TYR75      -0.1960
     73  CA        16.7370   16.3650   21.0770 C.3    75  TYR75       0.1771
     74  C         17.5570   17.6560   21.2340 C.2    75  TYR75       0.2620
     75  O         17.6720   18.4030   20.2620 O.2    75  TYR75      -0.2715
     76  CB        17.4860   15.0480   21.4540 C.3    75  TYR75       0.0574
     77  CG        18.5800   14.6500   20.4930 C.ar   75  TYR75      -0.0198
     78  CD1       19.8820   15.1090   20.6620 C.ar   75  TYR75      -0.0009
     79  CD2       18.3100   13.8350   19.4000 C.ar   75  TYR75      -0.0009
     80  CE1       20.8850   14.7860   19.7530 C.ar   75  TYR75       0.0417
     81  CE2       19.3040   13.5110   18.4780 C.ar   75  TYR75       0.0417
     82  CZ        20.5910   13.9880   18.6610 C.ar   75  TYR75       0.1957
     83  OH        21.5720   13.6720   17.7590 O.3    75  TYR75      -0.2866
     84  N         18.0660   17.9580   22.4460 N.am   76  THR76      -0.1937
     85  CA        18.7990   19.2030   22.7360 C.3    76  THR76       0.2028
     86  C         19.9210   19.5330   21.7190 C.2    76  THR76       0.2642
     87  O         19.8920   20.6180   21.1330 O.2    76  THR76      -0.2714
     88  CB        19.3270   19.2010   24.1880 C.3    76  THR76       0.1808
     89  OG1       18.2410   18.9370   25.0780 O.3    76  THR76      -0.2208
     90  CG2       19.9870   20.5220   24.5790 C.3    76  THR76       0.0379
     91  N         20.8830   18.6100   21.5090 N.am   77  GLN77      -0.1976
     92  CA        22.0540   18.8390   20.6500 C.3    77  GLN77       0.1601
     93  C         21.8830   18.5040   19.1550 C.2    77  GLN77       0.2287
     94  O         22.7980   18.7750   18.3740 O.2    77  GLN77      -0.2864
     95  CB        23.2730   18.0840   21.2110 C.3    77  GLN77       0.0394
     96  CG        23.7800   18.5470   22.5750 C.3    77  GLN77       0.0908
     97  CD        24.1550   20.0070   22.5830 C.2    77  GLN77       0.2608
     98  OE1       24.9400   20.4350   21.7150 O.2    77  GLN77      -0.2717
     99  NE2       23.5500   20.7880   23.4220 N.am   77  GLN77      -0.0878
    100  N         16.8910   14.1250   13.9660 N.3    80  TRP80      -0.1241
    101  CA        16.7600   13.2620   12.8010 C.3    80  TRP80       0.1605
    102  C         15.3060   12.9090   12.5930 C.2    80  TRP80       0.2264
    103  O         14.5240   12.8890   13.5440 O.2    80  TRP80      -0.2867
    104  CB        17.6560   12.0020   12.8680 C.3    80  TRP80       0.0550
    105  CG        17.4020   11.0420   13.9990 C.ar   80  TRP80       0.0003
    106  CD1       18.2110   10.8290   15.0780 C.ar   80  TRP80       0.0946
    107  CD2       16.3970   10.0150   14.0460 C.ar   80  TRP80       0.0152
    108  NE1       17.7230    9.7940   15.8440 N.ar   80  TRP80      -0.2442
    109  CE2       16.5940    9.2900   15.2430 C.ar   80  TRP80       0.0810
    110  CE3       15.3240    9.6590   13.2070 C.ar   80  TRP80       0.0012
    111  CZ2       15.7410    8.2520   15.6410 C.ar   80  TRP80       0.0191
    112  CZ3       14.4800    8.6290   13.6010 C.ar   80  TRP80       0.0001
    113  CH2       14.6910    7.9370   14.7990 C.ar   80  TRP80       0.0015
    114  N         22.9140   17.8080   12.6210 N.3   111  LYS111     -0.1231
    115  CA        23.9440   17.6860   13.6570 C.3   111  LYS111      0.1693
    116  C         23.8930   16.3250   14.3920 C.2   111  LYS111      0.2592
    117  O         24.2320   16.2260   15.5760 O.2   111  LYS111     -0.2718
    118  CB        23.9090   18.8910   14.6270 C.3   111  LYS111      0.0285
    119  CG        24.1610   20.1990   13.8770 C.3   111  LYS111      0.0035
    120  CD        24.6300   21.3000   14.8040 C.3   111  LYS111      0.0206
    121  CE        23.6510   22.4730   14.7540 C.3   111  LYS111      0.1093
    122  NZ        22.3640   22.0990   15.4100 N.3   111  LYS111     -0.1314
    123  N         23.4920   15.2700   13.6570 N.am  112  PHE112     -0.1976
    124  CA        23.4100   13.9130   14.1770 C.3   112  PHE112      0.1639
    125  C         24.6590   13.1090   13.7800 C.2   112  PHE112      0.2290
    126  O         25.3980   12.6830   14.6640 O.2   112  PHE112     -0.2864
    127  CB        22.1090   13.2430   13.7170 C.3   112  PHE112      0.0560
    128  CG        21.9570   11.8120   14.1690 C.ar  112  PHE112     -0.0200
    129  CD1       21.6280   11.5140   15.4870 C.ar  112  PHE112     -0.0042
    130  CD2       22.1150   10.7630   13.2730 C.ar  112  PHE112     -0.0042
    131  CE1       21.4650   10.1920   15.9000 C.ar  112  PHE112     -0.0003
    132  CE2       21.9600    9.4410   13.6910 C.ar  112  PHE112     -0.0003
    133  CZ        21.6110    9.1660   14.9890 C.ar  112  PHE112     -0.0000
    134  N         28.3400   12.4500   12.9360 N.3   114  ILE114     -0.1245
    135  CA        29.6110   13.1030   13.2780 C.3   114  ILE114      0.1561
    136  C         30.6190   12.8270   12.1660 C.2   114  ILE114      0.2260
    137  O         30.8660   11.6630   11.8310 O.2   114  ILE114     -0.2867
    138  CB        30.1580   12.6390   14.6700 C.3   114  ILE114      0.0252
    139  CG1       29.1430   12.8520   15.8270 C.3   114  ILE114      0.0019
    140  CG2       31.5160   13.3070   14.9890 C.3   114  ILE114      0.0019
    141  CD1       29.5630   12.1180   17.2150 C.3   114  ILE114      0.0001
    142  N         30.5940    5.7590   12.3780 N.3   119  TRP119     -0.1241
    143  CA        29.3240    5.0700   12.6110 C.3   119  TRP119      0.1605
    144  C         28.2100    5.6640   11.7430 C.2   119  TRP119      0.2264
    145  O         28.2200    6.8500   11.3990 O.2   119  TRP119     -0.2867
    146  CB        28.9030    4.9270   14.0730 C.3   119  TRP119      0.0550
    147  CG        28.9020    6.1780   14.9000 C.ar  119  TRP119      0.0003
    148  CD1       29.8860    6.5710   15.7680 C.ar  119  TRP119      0.0946
    149  CD2       27.8520    7.1540   15.0100 C.ar  119  TRP119      0.0152
    150  NE1       29.5030    7.7080   16.4360 N.ar  119  TRP119     -0.2442
    151  CE2       28.2610    8.1020   15.9840 C.ar  119  TRP119      0.0810
    152  CE3       26.5770    7.2990   14.4160 C.ar  119  TRP119      0.0012
    153  CZ2       27.4580    9.2060   16.3470 C.ar  119  TRP119      0.0191
    154  CZ3       25.7820    8.3800   14.7730 C.ar  119  TRP119      0.0001
    155  CH2       26.2240    9.3330   15.7200 C.ar  119  TRP119      0.0015
    156  N         22.5930    4.2800   15.2500 N.3   122  ILE122     -0.1245
    157  CA        22.6030    4.2180   16.7040 C.3   122  ILE122      0.1561
    158  C         21.7880    3.0600   17.1830 C.2   122  ILE122      0.2260
    159  O         20.6740    2.8510   16.6680 O.2   122  ILE122     -0.2867
    160  CB        22.1230    5.5560   17.3230 C.3   122  ILE122      0.0252
    161  CG1       23.0390    6.7130   16.9270 C.3   122  ILE122      0.0019
    162  CG2       22.0570    5.4600   18.8350 C.3   122  ILE122      0.0019
    163  CD1       22.8880    8.0500   17.8330 C.3   122  ILE122      0.0001
    164  N         11.0320    5.2510   26.6610 N.3   130  ILE130     -0.1245
    165  CA        11.5850    6.4250   26.0060 C.3   130  ILE130      0.1561
    166  C         11.8130    6.2360   24.4820 C.2   130  ILE130      0.2260
    167  O         12.4150    7.1000   23.8340 O.2   130  ILE130     -0.2867
    168  CB        12.8600    6.9030   26.7690 C.3   130  ILE130      0.0252
    169  CG1       13.9580    5.8260   26.7850 C.3   130  ILE130      0.0019
    170  CG2       12.5060    7.3320   28.2230 C.3   130  ILE130      0.0019
    171  CD1       15.3580    6.4340   27.1760 C.3   130  ILE130      0.0001
    172  N         10.8600    6.2650   20.5090 N.3   132  ARG132     -0.1245
    173  CA        10.0720    7.1560   19.6500 C.3   132  ARG132      0.1563
    174  C          9.4700    6.3630   18.4990 C.2   132  ARG132      0.2260
    175  O         10.1280    5.4580   17.9800 O.2   132  ARG132     -0.2867
    176  CB        10.8820    8.3360   19.1080 C.3   132  ARG132      0.0307
    177  CG        11.4570    9.2820   20.1610 C.3   132  ARG132      0.0489
    178  CD        10.4350    9.9510   21.0690 C.3   132  ARG132      0.2205
    179  NE        11.0950   10.9060   21.9560 N.pl3 132  ARG132     -0.0865
    180  CZ        11.2470   12.1990   21.6880 C.cat 132  ARG132      0.5346
    181  NH1       11.8830   12.9890   22.5440 N.pl3 132  ARG132      0.1354
    182  NH2       10.7600   12.7150   20.5650 N.pl3 132  ARG132      0.1354
    183  N         15.3270    5.2300   31.2480 N.3   202  TYR202     -0.1241
    184  CA        16.7800    5.3180   31.0970 C.3   202  TYR202      0.1605
    185  C         17.2920    4.2400   32.0840 C.2   202  TYR202      0.2264
    186  O         16.5260    3.6660   32.8770 O.2   202  TYR202     -0.2867
    187  CB        17.2720    6.6820   31.6050 C.3   202  TYR202      0.0534
    188  CG        16.8180    7.8220   30.7320 C.ar  202  TYR202     -0.0201
    189  CD1       17.5570    8.1150   29.5660 C.ar  202  TYR202     -0.0009
    190  CD2       15.6940    8.6100   31.1030 C.ar  202  TYR202     -0.0009
    191  CE1       17.1720    9.2050   28.7590 C.ar  202  TYR202      0.0417
    192  CE2       15.3170    9.7000   30.2900 C.ar  202  TYR202      0.0417
    193  CZ        16.0660    9.9870   29.1230 C.ar  202  TYR202      0.1957
    194  OH        15.7350   11.0460   28.3040 O.3   202  TYR202     -0.2866
    195  N         24.9810    6.3660   30.8090 N.3   232  ASP232     -0.1239
    196  CA        24.7710    6.6510   29.3920 C.3   232  ASP232      0.1674
    197  C         26.0530    6.5890   28.5620 C.2   232  ASP232      0.2266
    198  O         26.8400    7.5530   28.5120 O.2   232  ASP232     -0.2867
    199  CB        24.1480    8.0370   29.2540 C.3   232  ASP232      0.1410
    200  CG        23.7910    8.4200   27.8100 C.2   232  ASP232      0.3668
    201  OD1       23.9140    7.5420   26.9110 O.co2 232  ASP232     -0.2456
    202  OD2       23.5050    9.6070   27.5660 O.co2 232  ASP232     -0.2456
    203  N         26.2990    6.9500   25.4810 N.3   234  GLY234     -0.1210
    204  CA        26.1980    7.9220   24.4080 C.3   234  GLY234      0.1956
    205  C         26.5870    9.3450   24.7930 C.2   234  GLY234      0.2612
    206  O         26.5860   10.2260   23.9410 O.2   234  GLY234     -0.2717
    207  N         26.8980    9.5930   26.0950 N.am  235  THR235     -0.1952
    208  CA        27.3750   10.9100   26.5570 C.3   235  THR235      0.1897
    209  C         28.8650   10.7530   26.7870 C.2   235  THR235      0.2313
    210  O         29.2850    9.7400   27.3260 O.2   235  THR235     -0.2863
    211  CB        26.6870   11.2620   27.8680 C.3   235  THR235      0.1794
    212  OG1       25.3330   11.6150   27.5750 O.3   235  THR235     -0.2208
    213  CG2       27.3410   12.4530   28.6020 C.3   235  THR235      0.0378
    214  N         28.3930   14.2660   33.6120 N.3   239  ARG239     -0.1245
    215  CA        27.6120   15.5210   33.6900 C.3   239  ARG239      0.1563
    216  C         26.9370   15.5590   35.0550 C.2   239  ARG239      0.2260
    217  O         26.4060   14.5310   35.5270 O.2   239  ARG239     -0.2867
    218  CB        26.5890   15.6300   32.5290 C.3   239  ARG239      0.0307
    219  CG        27.2680   15.5100   31.1780 C.3   239  ARG239      0.0489
    220  CD        26.3090   15.7530   30.0270 C.3   239  ARG239      0.2205
    221  NE        25.8790   17.1550   30.0330 N.pl3 239  ARG239     -0.0865
    222  CZ        24.6380   17.5620   29.7940 C.cat 239  ARG239      0.5346
    223  NH1       24.3330   18.8540   29.8550 N.pl3 239  ARG239      0.1354
    224  NH2       23.6890   16.6830   29.5130 N.pl3 239  ARG239      0.1354
@<TRIPOS>BOND
     1   145   144    2
     2   144   143    1
     3   137   136    2
     4   136   135    1
     5   142   143    1
     6   102   101    1
     7   102   103    2
     8   143   146    1
     9   114   115    1
    10   101   104    1
    11   101   100    1
    12   104   105    1
    13   134   135    1
    14   110   112   ar
    15   110   107   ar
    16   130   132   ar
    17   130   128   ar
    18   135   138    1
    19   112   113   ar
    20   123   124    1
    21   123   116   am
    22   115   116    1
    23   115   118    1
    24   132   133   ar
    25   127   128    1
    26   127   124    1
    27   125   124    1
    28   125   126    2
    29   119   118    1
    30   119   120    1
    31   105   107   ar
    32   105   106   ar
    33   107   109   ar
    34   146   147    1
    35   128   129   ar
    36   116   117    2
    37   152   154   ar
    38   152   149   ar
    39   138   140    1
    40   138   139    1
    41   121   120    1
    42   121   122    1
    43   154   155   ar
    44   113   111   ar
    45   147   149   ar
    46   147   148   ar
    47   133   131   ar
    48   149   151   ar
    49   106   108   ar
    50   109   111   ar
    51   109   108   ar
    52    13    11   am
    53   156   157    1
    54   129   131   ar
    55    58    59    1
    56   155   153   ar
    57   148   150   ar
    58   139   141    1
    59   151   153   ar
    60   151   150   ar
    61    12    11    2
    62    11    10    1
    63   159   158    2
    64   157   158    1
    65   157   160    1
    66    18    19    1
    67    61    60    2
    68    59    60    1
    69    59    62    1
    70   161   160    1
    71   161   163    1
    72    64    62    1
    73    60    65   am
    74    62    63    1
    75   160   162    1
    76    10     9    1
    77    57    55   am
    78    65    66    1
    79    65    71    1
    80    83    82    1
    81    69    66    1
    82    69    70    1
    83   175   174    2
    84     9     6    1
    85    19    22    1
    86    19    20    1
    87    66    67    1
    88    22    23    1
    89    71    70    1
    90    54    55    1
    91    54    51    1
    92    52    53    2
    93    52    51    1
    94    94    93    2
    95     8     7    2
    96    81    82   ar
    97    81    79   ar
    98   174   173    1
    99    55    56    2
   100    82    80   ar
   101    21    20    2
   102    51    50    1
   103   176   173    1
   104   176   177    1
   105    93    92    1
   106     6     7    1
   107     6     5    1
   108     7    14   am
   109    79    77   ar
   110    23    25    1
   111    23    24    1
   112    67    72   am
   113    67    68    2
   114    17    16    2
   115   173   172    1
   116    72    73    1
   117    80    78   ar
   118   177   178    1
   119    75    74    2
   120     5     3   am
   121    16    15    1
   122    14    15    1
   123    77    78   ar
   124    77    76    1
   125    50    46   am
   126   182   180    1
   127    92    95    1
   128    92    91    1
   129     4     3    2
   130   178   179    1
   131    73    74    1
   132    73    76    1
   133    87    86    2
   134     3     2    1
   135    95    96    1
   136    74    84   am
   137    47    46    2
   138    91    86   am
   139    46    45    1
   140    43    42    1
   141   180   179    2
   142   180   181    1
   143    98    97    2
   144    86    85    1
   145    30    31    1
   146    30    27    1
   147     2     1    1
   148    33    31   ar
   149    26    27    1
   150    84    85    1
   151    96    97    1
   152    42    39    1
   153    97    99   am
   154    85    88    1
   155    44    45    1
   156    44    40   am
   157    45    48    1
   158    31    32   ar
   159    27    28    1
   160    48    49    1
   161    40    39    1
   162    40    41    2
   163   167   166    2
   164    39    38    1
   165   206   205    2
   166    29    28    2
   167    88    90    1
   168    88    89    1
   169   204   205    1
   170   204   203    1
   171   166   165    1
   172   205   207   am
   173    38    36   am
   174    36    37    2
   175    36    35    1
   176   165   164    1
   177   165   168    1
   178   207   208    1
   179    34    35    1
   180   208   209    1
   181   208   211    1
   182   168   169    1
   183   168   170    1
   184   169   171    1
   185   209   210    2
   186   201   200   ar
   187   202   200   ar
   188   212   211    1
   189   200   199    1
   190   211   213    1
   191   194   193    1
   192   198   197    2
   193   197   196    1
   194   191   193   ar
   195   191   189   ar
   196   193   192   ar
   197   199   196    1
   198   196   195    1
   199   224   222    1
   200   189   188   ar
   201   222   223    1
   202   222   221    2
   203   220   221    1
   204   220   219    1
   205   192   190   ar
   206   188   190   ar
   207   188   187    1
   208   184   183    1
   209   184   187    1
   210   184   185    1
   211   219   218    1
   212   185   186    2
   213   218   215    1
   214   214   215    1
   215   215   216    1
   216   216   217    2
