@<TRIPOS>MOLECULE
tmp/5he2A00.pdb
 209 194 0 0 0
SMALL
GASTEIGER

@<TRIPOS>ATOM
      1  N        -22.6410   27.6040    9.6140 N.3   168  ILE168     -0.1231
      2  CA       -23.1770   28.5180   10.6270 C.3   168  ILE168      0.1692
      3  C        -22.1710   28.9040   11.6950 C.2   168  ILE168      0.2593
      4  O        -22.5360   29.5380   12.6650 O.2   168  ILE168     -0.2718
      5  CB       -24.4270   27.9480   11.3410 C.3   168  ILE168      0.0266
      6  CG1      -24.1350   26.5930   11.9910 C.3   168  ILE168      0.0019
      7  CG2      -25.5820   27.8420   10.3680 C.3   168  ILE168      0.0020
      8  CD1      -25.3180   26.0020   12.7170 C.3   168  ILE168      0.0001
      9  N        -20.9140   28.5250   11.5430 N.am  169  GLY169     -0.1942
     10  CA       -19.9110   28.8370   12.5610 C.3   169  GLY169      0.2014
     11  C        -18.5630   28.2240   12.2330 C.2   169  GLY169      0.2639
     12  O        -18.4840   27.2790   11.4410 O.2   169  GLY169     -0.2714
     13  N        -17.5120   28.7600   12.8570 N.am  170  ARG170     -0.1963
     14  CA       -16.1290   28.4230   12.5110 C.3   170  ARG170      0.1729
     15  C        -15.1450   28.8720   13.5940 C.2   170  ARG170      0.2617
     16  O        -15.3330   29.9140   14.2050 O.2   170  ARG170     -0.2715
     17  CB       -15.7590   29.0700   11.1660 C.3   170  ARG170      0.0348
     18  CG       -14.3350   28.8120   10.6630 C.3   170  ARG170      0.0492
     19  CD       -13.8560   29.9290    9.7320 C.3   170  ARG170      0.2205
     20  NE       -14.7430   30.0750    8.5810 N.pl3 170  ARG170     -0.0865
     21  CZ       -14.7260   29.2860    7.5070 C.cat 170  ARG170      0.5346
     22  NH1      -13.8660   28.2750    7.4100 N.pl3 170  ARG170      0.1354
     23  NH2      -15.5750   29.5110    6.5120 N.pl3 170  ARG170      0.1354
     24  N        -14.1100   28.0690   13.8280 N.am  171  GLY171     -0.1940
     25  CA       -12.9920   28.4640   14.6830 C.3   171  GLY171      0.2014
     26  C        -11.6740   27.8670   14.2290 C.2   171  GLY171      0.2639
     27  O        -11.5600   27.3340   13.1090 O.2   171  GLY171     -0.2714
     28  N        -10.6770   27.9520   15.1050 N.am  172  GLY172     -0.1939
     29  CA        -9.3730   27.3540   14.8420 C.3   172  GLY172      0.2014
     30  C         -9.4290   26.0210   14.0950 C.2   172  GLY172      0.2639
     31  O         -8.8240   25.8690   13.0310 O.2   172  GLY172     -0.2714
     32  N        -10.1790   25.0640   14.6350 N.am  173  PHE173     -0.1959
     33  CA       -10.0470   23.6880   14.2070 C.3   173  PHE173      0.1771
     34  C        -11.0600   23.2200   13.2010 C.2   173  PHE173      0.2620
     35  O        -10.9290   22.1180   12.6950 O.2   173  PHE173     -0.2715
     36  CB       -10.1280   22.7740   15.4010 C.3   173  PHE173      0.0574
     37  CG        -9.0710   23.0140   16.4300 C.ar  173  PHE173     -0.0200
     38  CD1       -7.8490   23.5590   16.0970 C.ar  173  PHE173     -0.0042
     39  CD2       -9.2860   22.6270   17.7390 C.ar  173  PHE173     -0.0042
     40  CE1       -6.8740   23.7430   17.0550 C.ar  173  PHE173     -0.0003
     41  CE2       -8.3090   22.8000   18.6990 C.ar  173  PHE173     -0.0003
     42  CZ        -7.1020   23.3690   18.3590 C.ar  173  PHE173     -0.0000
     43  N        -12.0780   24.0200   12.9090 N.am  174  GLY174     -0.1940
     44  CA       -13.0480   23.6200   11.8820 C.3   174  GLY174      0.2014
     45  C        -14.3240   24.4330   11.8600 C.2   174  GLY174      0.2639
     46  O        -14.3480   25.5700   12.3200 O.2   174  GLY174     -0.2714
     47  N        -15.3820   23.8170   11.3450 N.am  175  GLU175     -0.1963
     48  CA       -16.6430   24.4780   11.0540 C.3   175  GLU175      0.1733
     49  C        -17.8570   23.7910   11.6680 C.2   175  GLU175      0.2616
     50  O        -17.8410   22.6040   11.9640 O.2   175  GLU175     -0.2715
     51  CB       -16.8780   24.4790    9.5440 C.3   175  GLU175      0.0429
     52  CG       -16.0850   25.5010    8.7450 C.3   175  GLU175      0.1163
     53  CD       -14.9510   24.8830    7.9550 C.2   175  GLU175      0.3649
     54  OE1      -14.0930   24.2040    8.5830 O.co2 175  GLU175     -0.2457
     55  OE2      -14.9230   25.0980    6.7140 O.co2 175  GLU175     -0.2457
     56  N        -18.9380   24.5480   11.8100 N.am  176  VAL176     -0.1977
     57  CA       -20.2140   23.9700   12.1450 C.3   176  VAL176      0.1596
     58  C        -21.1770   24.2130   11.0070 C.2   176  VAL176      0.2287
     59  O        -21.2820   25.3210   10.4870 O.2   176  VAL176     -0.2864
     60  CB       -20.8010   24.5540   13.4260 C.3   176  VAL176      0.0276
     61  CG1      -22.1460   23.9140   13.7110 C.3   176  VAL176      0.0022
     62  CG2      -19.8640   24.3120   14.5890 C.3   176  VAL176      0.0022
     63  N        -26.9850   20.7480   14.5620 N.3   189  ALA189     -0.1245
     64  CA       -25.7390   21.2580   14.0970 C.3   189  ALA189      0.1562
     65  C        -24.8150   20.0670   13.9510 C.2   189  ALA189      0.2260
     66  O        -24.9370   19.0840   14.6930 O.2   189  ALA189     -0.2867
     67  CB       -25.1770   22.2070   15.1170 C.3   189  ALA189      0.0290
     68  N        -20.7920   19.9990   14.1700 N.3   191  LYS191     -0.1245
     69  CA       -19.4210   20.4790   14.2680 C.3   191  LYS191      0.1561
     70  C        -18.4660   19.5100   13.5480 C.2   191  LYS191      0.2260
     71  O        -18.6620   18.3110   13.6160 O.2   191  LYS191     -0.2867
     72  CB       -19.0550   20.5750   15.7400 C.3   191  LYS191      0.0271
     73  CG       -17.8240   21.4000   16.0610 C.3   191  LYS191      0.0035
     74  CD       -17.9380   22.0340   17.4480 C.3   191  LYS191      0.0206
     75  CE       -16.5750   22.3370   18.0650 C.3   191  LYS191      0.1093
     76  NZ       -16.7470   23.2430   19.2310 N.3   191  LYS191     -0.1314
     77  N        -14.2590   18.9580   13.0530 N.3   193  LEU193     -0.1245
     78  CA       -12.9010   19.3770   13.3190 C.3   193  LEU193      0.1561
     79  C        -11.9180   18.6530   12.4060 C.2   193  LEU193      0.2260
     80  O        -11.9390   17.4120   12.3440 O.2   193  LEU193     -0.2867
     81  CB       -12.5790   19.1060   14.7790 C.3   193  LEU193      0.0270
     82  CG       -12.9520   20.2420   15.7210 C.3   193  LEU193      0.0019
     83  CD1      -14.2630   20.8930   15.3200 C.3   193  LEU193      0.0001
     84  CD2      -12.9910   19.7870   17.1760 C.3   193  LEU193      0.0001
     85  N         -7.5430   19.1300   23.8490 N.3   206  LEU206     -0.1231
     86  CA        -8.6150   20.0930   23.7130 C.3   206  LEU206      0.1693
     87  C         -9.8170   19.5690   22.9280 C.2   206  LEU206      0.2591
     88  O        -10.9540   19.8210   23.3060 O.2   206  LEU206     -0.2718
     89  CB        -8.0980   21.3760   23.0590 C.3   206  LEU206      0.0284
     90  CG        -7.4060   22.3920   23.9700 C.3   206  LEU206      0.0019
     91  CD1       -7.3040   23.7140   23.2320 C.3   206  LEU206      0.0001
     92  CD2       -8.1080   22.6110   25.3130 C.3   206  LEU206      0.0001
     93  N         -9.5900   18.8660   21.8290 N.am  207  ALA207     -0.1980
     94  CA       -10.7160   18.2660   21.1270 C.3   207  ALA207      0.1597
     95  C        -11.2970   17.1520   21.9880 C.2   207  ALA207      0.2287
     96  O        -12.4820   17.1460   22.3050 O.2   207  ALA207     -0.2864
     97  CB       -10.2920   17.7270   19.7800 C.3   207  ALA207      0.0319
     98  N        -13.5110   18.6750   25.0340 N.3   210  GLU210     -0.1245
     99  CA       -14.8220   19.1110   24.6420 C.3   210  GLU210      0.1567
    100  C        -15.8070   17.9290   24.6670 C.2   210  GLU210      0.2260
    101  O        -16.8880   18.0220   25.2620 O.2   210  GLU210     -0.2867
    102  CB       -14.7630   19.7420   23.2600 C.3   210  GLU210      0.0388
    103  CG       -16.0430   20.4830   22.9670 C.3   210  GLU210      0.1160
    104  CD       -16.0920   21.2100   21.6380 C.2   210  GLU210      0.3649
    105  OE1      -15.0510   21.4600   20.9890 O.co2 210  GLU210     -0.2457
    106  OE2      -17.2240   21.5530   21.2440 O.co2 210  GLU210     -0.2457
    107  N        -25.7980   24.1320   24.9810 N.3   226  VAL226     -0.1245
    108  CA       -25.8050   23.4480   23.6890 C.3   226  VAL226      0.1561
    109  C        -25.1620   22.0830   23.8280 C.2   226  VAL226      0.2260
    110  O        -23.9200   21.9420   23.8320 O.2   226  VAL226     -0.2867
    111  CB       -25.0830   24.2580   22.6300 C.3   226  VAL226      0.0252
    112  CG1      -24.7420   23.3990   21.4240 C.3   226  VAL226      0.0019
    113  CG2      -25.9490   25.4320   22.2420 C.3   226  VAL226      0.0019
    114  N        -24.6030   18.2450   17.7540 N.3   242  LEU242     -0.1231
    115  CA       -24.9600   19.1740   18.8050 C.3   242  LEU242      0.1693
    116  C        -26.3150   19.7890   18.5020 C.2   242  LEU242      0.2592
    117  O        -26.8330   19.6410   17.3990 O.2   242  LEU242     -0.2718
    118  CB       -23.9340   20.2970   18.8510 C.3   242  LEU242      0.0284
    119  CG       -22.4930   19.9100   19.0960 C.3   242  LEU242      0.0019
    120  CD1      -21.5540   21.0580   18.8560 C.3   242  LEU242      0.0001
    121  CD2      -22.3660   19.4450   20.5200 C.3   242  LEU242      0.0001
    122  N        -26.8590   20.4870   19.4990 N.am  243  ASP243     -0.1974
    123  CA       -28.1110   21.2330   19.3980 C.3   243  ASP243      0.1709
    124  C        -27.9270   22.3090   18.3610 C.2   243  ASP243      0.2293
    125  O        -26.8870   22.9530   18.3260 O.2   243  ASP243     -0.2864
    126  CB       -28.4340   21.9510   20.7210 C.3   243  ASP243      0.1436
    127  CG       -29.0300   21.0480   21.7670 C.2   243  ASP243      0.3671
    128  OD1      -30.1090   20.5450   21.5090 O.co2 243  ASP243     -0.2456
    129  OD2      -28.4550   20.8630   22.8580 O.co2 243  ASP243     -0.2456
    130  N        -28.4730   25.8040   16.8090 N.3   245  MET245     -0.1245
    131  CA       -28.8300   27.1720   17.1210 C.3   245  MET245      0.1570
    132  C        -28.5210   27.9980   15.9080 C.2   245  MET245      0.2261
    133  O        -27.3680   28.3270   15.6860 O.2   245  MET245     -0.2867
    134  CB       -27.9450   27.6860   18.2690 C.3   245  MET245      0.0387
    135  CG       -27.9770   26.8760   19.5600 C.3   245  MET245      0.0595
    136  SD       -29.4850   27.2300   20.4650 S.3   245  MET245     -0.1393
    137  CE       -29.1420   28.9200   20.9580 C.3   245  MET245      0.0692
    138  N        -24.3850   34.4000   17.4560 N.3   249  ASP249     -0.1239
    139  CA       -23.8910   34.5310   18.8070 C.3   249  ASP249      0.1674
    140  C        -24.0440   35.9670   19.2630 C.2   249  ASP249      0.2266
    141  O        -24.3960   36.8330   18.4760 O.2   249  ASP249     -0.2867
    142  CB       -22.4320   34.1240   18.8450 C.3   249  ASP249      0.1410
    143  CG       -21.6360   34.8160   17.7860 C.2   249  ASP249      0.3668
    144  OD1      -21.4830   34.1940   16.7240 O.co2 249  ASP249     -0.2456
    145  OD2      -21.2330   35.9830   17.9880 O.co2 249  ASP249     -0.2456
    146  N        -14.4550   29.9560   30.0350 N.3   288  ASP288     -0.1239
    147  CA       -14.2830   30.8450   28.8910 C.3   288  ASP288      0.1674
    148  C        -15.5650   31.5890   28.5600 C.2   288  ASP288      0.2266
    149  O        -15.8580   31.8160   27.3870 O.2   288  ASP288     -0.2867
    150  CB       -13.8040   30.0250   27.6830 C.3   288  ASP288      0.1410
    151  CG       -13.2630   30.8860   26.5470 C.2   288  ASP288      0.3668
    152  OD1      -12.6470   31.9560   26.7890 O.co2 288  ASP288     -0.2456
    153  OD2      -13.4560   30.4450   25.3960 O.co2 288  ASP288     -0.2456
    154  N        -18.2120   34.3900   27.7690 N.3   290  LYS290     -0.1245
    155  CA       -17.9740   35.5420   26.9040 C.3   290  LYS290      0.1561
    156  C        -19.1380   35.6000   25.9170 C.2   290  LYS290      0.2260
    157  O        -19.7290   34.5740   25.6350 O.2   290  LYS290     -0.2867
    158  CB       -16.6490   35.3160   26.1660 C.3   290  LYS290      0.0271
    159  CG       -16.3470   36.1970   24.9480 C.3   290  LYS290      0.0035
    160  CD       -14.9980   35.8500   24.3210 C.3   290  LYS290      0.0206
    161  CE       -14.6430   34.3500   24.3750 C.3   290  LYS290      0.1093
    162  NZ       -13.3440   34.0340   23.7050 N.3   290  LYS290     -0.1314
    163  N        -19.5200   35.8750   22.6580 N.3   292  ALA292     -0.1231
    164  CA       -19.3310   34.9650   21.5210 C.3   292  ALA292      0.1694
    165  C        -19.6210   33.4520   21.7730 C.2   292  ALA292      0.2592
    166  O        -19.8190   32.7220   20.8020 O.2   292  ALA292     -0.2718
    167  CB       -17.9320   35.1420   20.9390 C.3   292  ALA292      0.0304
    168  N        -19.6450   32.9850   23.0280 N.am  293  ASN293     -0.1974
    169  CA       -20.0720   31.5960   23.3490 C.3   293  ASN293      0.1688
    170  C        -21.5220   31.4530   23.8060 C.2   293  ASN293      0.2292
    171  O        -21.9230   30.4120   24.3700 O.2   293  ASN293     -0.2864
    172  CB       -19.1390   30.9710   24.3890 C.3   293  ASN293      0.1181
    173  CG       -17.7310   30.8040   23.8660 C.2   293  ASN293      0.2629
    174  OD1      -17.5200   30.8330   22.6630 O.2   293  ASN293     -0.2716
    175  ND2      -16.7580   30.6360   24.7630 N.am  293  ASN293     -0.0877
    176  N        -25.0730   31.4430   22.1630 N.3   295  LEU295     -0.1245
    177  CA       -25.6900   31.4110   20.8460 C.3   295  LEU295      0.1561
    178  C        -27.1360   31.7240   21.0490 C.2   295  LEU295      0.2260
    179  O        -27.6600   31.3970   22.0840 O.2   295  LEU295     -0.2867
    180  CB       -25.5170   30.0380   20.2080 C.3   295  LEU295      0.0270
    181  CG       -24.0680   29.5400   20.0670 C.3   295  LEU295      0.0019
    182  CD1      -24.0170   28.2160   19.3050 C.3   295  LEU295      0.0001
    183  CD2      -23.1720   30.5640   19.3790 C.3   295  LEU295      0.0001
    184  N        -22.4920   27.5240   24.7310 N.3   305  SER305     -0.1202
    185  CA       -21.9800   26.5080   23.7900 C.3   305  SER305      0.2020
    186  C        -20.4900   26.4360   23.8570 C.2   305  SER305      0.2618
    187  O        -19.8850   27.3470   24.3500 O.2   305  SER305     -0.2717
    188  CB       -22.3930   26.8290   22.3530 C.3   305  SER305      0.2103
    189  OG       -21.8770   25.8410   21.4670 O.3   305  SER305     -0.2182
    190  N        -19.9240   25.3420   23.3580 N.am  306  ASP306     -0.1973
    191  CA       -18.4800   25.1730   23.1470 C.3   306  ASP306      0.1709
    192  C        -17.6590   24.8800   24.4090 C.2   306  ASP306      0.2293
    193  O        -16.8650   25.7140   24.8770 O.2   306  ASP306     -0.2864
    194  CB       -17.8690   26.3670   22.3900 C.3   306  ASP306      0.1436
    195  CG       -18.0390   26.2680   20.8800 C.2   306  ASP306      0.3671
    196  OD1      -19.1870   26.0310   20.4370 O.co2 306  ASP306     -0.2456
    197  OD2      -17.0240   26.4790   20.1460 O.co2 306  ASP306     -0.2456
    198  N        -14.9740   23.3570   24.9550 N.3   308  GLY308     -0.1210
    199  CA       -13.5460   23.0860   24.8010 C.3   308  GLY308      0.1956
    200  C        -12.6910   23.3440   26.0400 C.2   308  GLY308      0.2611
    201  O        -12.0050   22.4520   26.5270 O.2   308  GLY308     -0.2717
    202  N        -12.7550   24.5640   26.5670 N.am  309  LEU309     -0.1979
    203  CA       -11.9020   24.9860   27.6940 C.3   309  LEU309      0.1596
    204  C        -12.5020   24.7130   29.0720 C.2   309  LEU309      0.2287
    205  O        -11.8820   25.0150   30.0850 O.2   309  LEU309     -0.2864
    206  CB       -11.5830   26.4760   27.5700 C.3   309  LEU309      0.0297
    207  CG       -10.8830   26.9020   26.2750 C.3   309  LEU309      0.0022
    208  CD1      -10.7360   28.4170   26.2040 C.3   309  LEU309      0.0001
    209  CD2       -9.5220   26.2350   26.1250 C.3   309  LEU309      0.0001
@<TRIPOS>BOND
     1    23    21    1
     2    55    53   ar
     3    22    21    1
     4    21    20    2
     5    53    54   ar
     6    53    52    1
     7    20    19    1
     8    52    51    1
     9    51    48    1
    10     1     2    1
    11    19    18    1
    12     7     5    1
    13    59    58    2
    14     2     5    1
    15     2     3    1
    16    18    17    1
    17    58    57    1
    18    48    47    1
    19    48    49    1
    20    17    14    1
    21     5     6    1
    22    47    45   am
    23    12    11    2
    24     9     3   am
    25     9    10    1
    26    49    56   am
    27    49    50    2
    28     3     4    2
    29    56    57    1
    30    45    44    1
    31    45    46    2
    32    44    43    1
    33     6     8    1
    34    57    60    1
    35    11    10    1
    36    11    13   am
    37    80    79    2
    38    79    78    1
    39    14    13    1
    40    14    15    1
    41    35    34    2
    42    43    34   am
    43    31    30    2
    44    77    78    1
    45    27    26    2
    46    34    33    1
    47    78    81    1
    48    60    61    1
    49    60    62    1
    50    70    71    2
    51    70    69    1
    52    15    24   am
    53    15    16    2
    54    24    25    1
    55    65    64    1
    56    65    66    2
    57    30    32   am
    58    30    29    1
    59    64    63    1
    60    64    67    1
    61    68    69    1
    62    33    32    1
    63    33    36    1
    64    26    25    1
    65    26    28   am
    66    69    72    1
    67    81    82    1
    68    29    28    1
    69    83    82    1
    70    36    37    1
    71   133   132    2
    72    82    84    1
    73    72    73    1
    74   132   131    1
    75    73    74    1
    76    38    37   ar
    77    38    40   ar
    78    37    39   ar
    79   144   143   ar
    80   130   131    1
    81    40    42   ar
    82   131   134    1
    83   117   116    2
    84    74    75    1
    85   138   139    1
    86    39    41   ar
    87   114   115    1
    88   143   145   ar
    89   143   142    1
    90    75    76    1
    91   134   135    1
    92   125   124    2
    93    42    41   ar
    94   124   123    1
    95   141   140    2
    96   116   115    1
    97   116   122   am
    98   115   118    1
    99   139   142    1
   100   139   140    1
   101   118   119    1
   102   120   119    1
   103   119   121    1
   104   182   181    1
   105   183   181    1
   106   123   122    1
   107   123   126    1
   108   135   136    1
   109    97    94    1
   110   181   180    1
   111   197   195   ar
   112   180   177    1
   113   196   195   ar
   114   136   137    1
   115   126   127    1
   116   166   165    2
   117   177   178    1
   118   177   176    1
   119   195   194    1
   120   167   164    1
   121   105   104   ar
   122   178   179    2
   123    94    93    1
   124    94    95    1
   125   106   104   ar
   126   112   111    1
   127   189   188    1
   128   128   127   ar
   129   164   165    1
   130   164   163    1
   131   104   103    1
   132   127   129   ar
   133   165   168   am
   134    93    87   am
   135    95    96    2
   136   113   111    1
   137   188   185    1
   138   194   191    1
   139   111   108    1
   140   174   173    2
   141    87    88    2
   142    87    86    1
   143   103   102    1
   144   168   169    1
   145    89    86    1
   146    89    90    1
   147   191   190    1
   148   191   192    1
   149    91    90    1
   150   102    99    1
   151   169   170    1
   152   169   172    1
   153   190   186   am
   154   108   109    1
   155   108   107    1
   156   162   161    1
   157    86    85    1
   158   185   186    1
   159   185   184    1
   160   170   171    2
   161   109   110    2
   162   186   187    2
   163   173   172    1
   164   173   175   am
   165    90    92    1
   166   160   161    1
   167   160   159    1
   168   192   193    2
   169    99   100    1
   170    99    98    1
   171   100   101    2
   172   199   198    1
   173   199   200    1
   174   159   158    1
   175   153   151   ar
   176   157   156    2
   177   156   155    1
   178   200   201    2
   179   200   202   am
   180   209   207    1
   181   158   155    1
   182   208   207    1
   183   207   206    1
   184   151   152   ar
   185   151   150    1
   186   202   203    1
   187   155   154    1
   188   149   148    2
   189   206   203    1
   190   150   147    1
   191   203   204    1
   192   148   147    1
   193   147   146    1
   194   204   205    2
