@<TRIPOS>MOLECULE
tmp/5he3A00.pdb
 192 176 0 0 0
SMALL
GASTEIGER

@<TRIPOS>ATOM
      1  N        -22.3970   27.3910    9.2790 N.3   168  ILE168     -0.1231
      2  CA       -22.9470   28.3260   10.2740 C.3   168  ILE168      0.1692
      3  C        -21.9370   28.8160   11.3090 C.2   168  ILE168      0.2593
      4  O        -22.3200   29.3680   12.3360 O.2   168  ILE168     -0.2718
      5  CB       -24.1500   27.6950   11.0060 C.3   168  ILE168      0.0266
      6  CG1      -23.7100   26.4840   11.8490 C.3   168  ILE168      0.0019
      7  CG2      -25.2190   27.3010    9.9960 C.3   168  ILE168      0.0020
      8  CD1      -24.8590   25.6450   12.3660 C.3   168  ILE168      0.0001
      9  N        -20.6520   28.6200   11.0340 N.am  169  GLY169     -0.1942
     10  CA       -19.5900   28.8440   12.0200 C.3   169  GLY169      0.2014
     11  C        -18.3060   28.1990   11.5290 C.2   169  GLY169      0.2639
     12  O        -18.3410   27.0660   11.0290 O.2   169  GLY169     -0.2714
     13  N        -17.1940   28.9420   11.6190 N.am  170  ARG170     -0.1963
     14  CA       -15.8340   28.4430   11.3040 C.3   170  ARG170      0.1729
     15  C        -14.9770   28.6490   12.5450 C.2   170  ARG170      0.2617
     16  O        -15.2970   29.4670   13.4010 O.2   170  ARG170     -0.2715
     17  CB       -15.1810   29.1740   10.0980 C.3   170  ARG170      0.0348
     18  CG       -15.7160   28.7950    8.7160 C.3   170  ARG170      0.0492
     19  CD       -14.9830   29.4710    7.5540 C.3   170  ARG170      0.2205
     20  NE       -15.1190   30.9320    7.6200 N.pl3 170  ARG170     -0.0865
     21  CZ       -15.6440   31.7370    6.6830 C.cat 170  ARG170      0.5346
     22  NH1      -16.0960   31.2740    5.5120 N.pl3 170  ARG170      0.1354
     23  NH2      -15.6940   33.0500    6.9240 N.pl3 170  ARG170      0.1354
     24  N        -13.8890   27.9020   12.6370 N.am  171  GLY171     -0.1940
     25  CA       -12.9090   28.1450   13.6710 C.3   171  GLY171      0.2014
     26  C        -11.5060   27.7690   13.2620 C.2   171  GLY171      0.2639
     27  O        -11.1670   27.7390   12.0780 O.2   171  GLY171     -0.2714
     28  N        -10.6910   27.4980   14.2740 N.am  172  GLY172     -0.1939
     29  CA        -9.3430   27.0070   14.0820 C.3   172  GLY172      0.2014
     30  C         -9.3420   25.6170   13.4760 C.2   172  GLY172      0.2639
     31  O         -8.6130   25.3600   12.5290 O.2   172  GLY172     -0.2714
     32  N        -10.1790   24.7220   13.9790 N.am  173  PHE173     -0.1959
     33  CA       -10.0250   23.3330   13.6300 C.3   173  PHE173      0.1771
     34  C        -10.9850   22.8000   12.5960 C.2   173  PHE173      0.2620
     35  O        -10.7960   21.6980   12.0850 O.2   173  PHE173     -0.2715
     36  CB       -10.0710   22.5340   14.9000 C.3   173  PHE173      0.0574
     37  CG        -9.0400   22.9800   15.8710 C.ar  173  PHE173     -0.0200
     38  CD1       -7.7310   22.5820   15.7140 C.ar  173  PHE173     -0.0042
     39  CD2       -9.3540   23.8650   16.8720 C.ar  173  PHE173     -0.0042
     40  CE1       -6.7520   23.0120   16.5780 C.ar  173  PHE173     -0.0003
     41  CE2       -8.3850   24.3020   17.7470 C.ar  173  PHE173     -0.0003
     42  CZ        -7.0790   23.8750   17.6010 C.ar  173  PHE173     -0.0000
     43  N        -11.9920   23.5830   12.2510 N.am  174  GLY174     -0.1954
     44  CA       -12.9310   23.1800   11.2090 C.3   174  GLY174      0.1869
     45  C        -14.1680   24.0490   11.1870 C.2   174  GLY174      0.2309
     46  O        -14.1550   25.1870   11.6370 O.2   174  GLY174     -0.2863
     47  N        -18.6930   24.3940   11.1750 N.3   176  VAL176     -0.1245
     48  CA       -19.9310   23.8840   11.7160 C.3   176  VAL176      0.1561
     49  C        -21.0120   24.0470   10.6930 C.2   176  VAL176      0.2260
     50  O        -21.1380   25.1280   10.1010 O.2   176  VAL176     -0.2867
     51  CB       -20.3400   24.6740   12.9440 C.3   176  VAL176      0.0252
     52  CG1      -21.6030   24.0840   13.5680 C.3   176  VAL176      0.0019
     53  CG2      -19.1790   24.6890   13.9180 C.3   176  VAL176      0.0019
     54  N        -26.8040   20.4360   14.3190 N.3   189  ALA189     -0.1245
     55  CA       -25.5770   21.0020   13.8610 C.3   189  ALA189      0.1562
     56  C        -24.5710   19.9100   13.7740 C.2   189  ALA189      0.2260
     57  O        -24.5590   19.0240   14.5980 O.2   189  ALA189     -0.2867
     58  CB       -25.0820   22.0460   14.8310 C.3   189  ALA189      0.0290
     59  N        -20.5300   19.8120   13.8180 N.3   191  LYS191     -0.1245
     60  CA       -19.2280   20.4380   13.9050 C.3   191  LYS191      0.1561
     61  C        -18.1630   19.4410   13.4260 C.2   191  LYS191      0.2260
     62  O        -17.9890   18.3840   14.0310 O.2   191  LYS191     -0.2867
     63  CB       -18.9720   20.8730   15.3450 C.3   191  LYS191      0.0271
     64  CG       -17.6730   21.6240   15.5200 C.3   191  LYS191      0.0035
     65  CD       -17.0800   21.4280   16.8980 C.3   191  LYS191      0.0206
     66  CE       -17.6810   22.3660   17.9210 C.3   191  LYS191      0.1093
     67  NZ       -16.5760   22.9390   18.7370 N.3   191  LYS191     -0.1314
     68  N        -14.1120   18.8120   12.5390 N.3   193  LEU193     -0.1245
     69  CA       -12.7990   19.3190   12.8060 C.3   193  LEU193      0.1561
     70  C        -11.8030   18.4890   12.0210 C.2   193  LEU193      0.2260
     71  O        -11.7550   17.2770   12.1610 O.2   193  LEU193     -0.2867
     72  CB       -12.5100   19.2500   14.2870 C.3   193  LEU193      0.0270
     73  CG       -13.5380   19.9400   15.1620 C.3   193  LEU193      0.0019
     74  CD1      -13.0850   19.8120   16.6030 C.3   193  LEU193      0.0001
     75  CD2      -13.7170   21.4050   14.7800 C.3   193  LEU193      0.0001
     76  N         -1.9350   22.5650   14.6010 N.3   201  LYS201     -0.1245
     77  CA        -1.8980   23.4920   15.7500 C.3   201  LYS201      0.1561
     78  C         -1.7830   22.7650   17.1040 C.2   201  LYS201      0.2260
     79  O         -1.8720   23.3990   18.1660 O.2   201  LYS201     -0.2867
     80  CB        -3.1120   24.4260   15.7230 C.3   201  LYS201      0.0271
     81  CG        -3.3090   25.1200   14.3750 C.3   201  LYS201      0.0035
     82  CD        -4.3770   26.2080   14.4100 C.3   201  LYS201      0.0206
     83  CE        -4.6290   26.7840   13.0210 C.3   201  LYS201      0.1093
     84  NZ        -5.5350   27.9620   13.1050 N.3   201  LYS201     -0.1314
     85  N         -7.8480   19.7090   22.9860 N.3   206  LEU206     -0.1245
     86  CA        -9.0890   20.4980   22.8470 C.3   206  LEU206      0.1561
     87  C        -10.2260   19.7460   22.1970 C.2   206  LEU206      0.2260
     88  O        -11.3830   19.9040   22.5890 O.2   206  LEU206     -0.2867
     89  CB        -8.8780   21.7260   21.9630 C.3   206  LEU206      0.0270
     90  CG        -8.2120   22.9780   22.4990 C.3   206  LEU206      0.0019
     91  CD1       -8.7680   24.1710   21.7150 C.3   206  LEU206      0.0001
     92  CD2       -8.4070   23.1410   24.0060 C.3   206  LEU206      0.0001
     93  N        -13.2600   18.5290   24.3700 N.3   210  GLU210     -0.1245
     94  CA       -14.6010   18.9500   23.9990 C.3   210  GLU210      0.1567
     95  C        -15.5580   17.7460   23.9470 C.2   210  GLU210      0.2260
     96  O        -16.7120   17.8560   24.3160 O.2   210  GLU210     -0.2867
     97  CB       -14.6010   19.6740   22.6690 C.3   210  GLU210      0.0388
     98  CG       -16.0120   19.9920   22.2730 C.3   210  GLU210      0.1160
     99  CD       -16.1610   20.9940   21.1570 C.2   210  GLU210      0.3649
    100  OE1      -17.3150   21.4250   20.9330 O.co2 210  GLU210     -0.2457
    101  OE2      -15.1650   21.3540   20.4900 O.co2 210  GLU210     -0.2457
    102  N        -25.3580   23.8260   24.1970 N.3   226  VAL226     -0.1245
    103  CA       -25.3330   23.1810   22.9200 C.3   226  VAL226      0.1561
    104  C        -24.7190   21.8470   23.1990 C.2   226  VAL226      0.2260
    105  O        -23.4810   21.6850   23.2320 O.2   226  VAL226     -0.2867
    106  CB       -24.4950   23.9370   21.9140 C.3   226  VAL226      0.0252
    107  CG1      -24.4920   23.1890   20.6080 C.3   226  VAL226      0.0019
    108  CG2      -25.0650   25.3280   21.7530 C.3   226  VAL226      0.0019
    109  N        -24.6340   18.1240   17.3150 N.3   242  LEU242     -0.1231
    110  CA       -24.9890   19.0470   18.3430 C.3   242  LEU242      0.1693
    111  C        -26.2830   19.7430   18.0550 C.2   242  LEU242      0.2592
    112  O        -26.7840   19.7500   16.9210 O.2   242  LEU242     -0.2718
    113  CB       -23.9430   20.1400   18.4030 C.3   242  LEU242      0.0284
    114  CG       -22.5130   19.6840   18.5750 C.3   242  LEU242      0.0019
    115  CD1      -21.6120   20.9010   18.6420 C.3   242  LEU242      0.0001
    116  CD2      -22.4290   18.8220   19.8180 C.3   242  LEU242      0.0001
    117  N        -26.7830   20.4030   19.1010 N.am  243  ASP243     -0.1974
    118  CA       -28.0240   21.1440   19.0380 C.3   243  ASP243      0.1709
    119  C        -27.7540   22.1920   18.0280 C.2   243  ASP243      0.2293
    120  O        -26.6630   22.7340   17.9630 O.2   243  ASP243     -0.2864
    121  CB       -28.3870   21.8480   20.3580 C.3   243  ASP243      0.1436
    122  CG       -28.8660   20.9090   21.4420 C.2   243  ASP243      0.3671
    123  OD1      -30.0410   20.5150   21.4580 O.co2 243  ASP243     -0.2456
    124  OD2      -28.0520   20.5870   22.3260 O.co2 243  ASP243     -0.2456
    125  N        -28.1140   25.6940   16.4350 N.3   245  MET245     -0.1245
    126  CA       -28.3390   27.1090   16.7550 C.3   245  MET245      0.1570
    127  C        -28.0830   27.9500   15.5310 C.2   245  MET245      0.2261
    128  O        -26.9330   28.1850   15.1970 O.2   245  MET245     -0.2867
    129  CB       -27.3460   27.5240   17.8460 C.3   245  MET245      0.0387
    130  CG       -27.4070   26.6920   19.1310 C.3   245  MET245      0.0595
    131  SD       -29.0030   26.8710   19.9270 S.3   245  MET245     -0.1393
    132  CE       -28.9160   28.6130   20.3190 C.3   245  MET245      0.0692
    133  N        -23.8820   34.1900   17.0130 N.3   249  ASP249     -0.1239
    134  CA       -23.4190   34.3510   18.3790 C.3   249  ASP249      0.1674
    135  C        -23.6560   35.7520   18.8770 C.2   249  ASP249      0.2266
    136  O        -24.0050   36.6450   18.1080 O.2   249  ASP249     -0.2867
    137  CB       -21.9490   33.9520   18.5130 C.3   249  ASP249      0.1410
    138  CG       -21.0440   34.7890   17.6700 C.2   249  ASP249      0.3668
    139  OD1      -21.0280   36.0180   17.8730 O.co2 249  ASP249     -0.2456
    140  OD2      -20.3530   34.2190   16.8020 O.co2 249  ASP249     -0.2456
    141  N        -17.8910   33.8800   27.1430 N.3   290  LYS290     -0.1245
    142  CA       -17.8730   35.2200   26.5180 C.3   290  LYS290      0.1561
    143  C        -18.9480   35.3000   25.4200 C.2   290  LYS290      0.2260
    144  O        -19.4760   34.2820   25.0300 O.2   290  LYS290     -0.2867
    145  CB       -16.4780   35.5460   25.9480 C.3   290  LYS290      0.0271
    146  CG       -16.2630   35.2190   24.4640 C.3   290  LYS290      0.0035
    147  CD       -14.7920   35.2250   24.0820 C.3   290  LYS290      0.0206
    148  CE       -14.4350   34.0510   23.1750 C.3   290  LYS290      0.1093
    149  NZ       -13.0890   34.1770   22.5380 N.3   290  LYS290     -0.1314
    150  N        -19.0940   35.4600   22.2050 N.3   292  ALA292     -0.1231
    151  CA       -18.9390   34.6000   21.0320 C.3   292  ALA292      0.1694
    152  C        -19.2230   33.1030   21.2720 C.2   292  ALA292      0.2592
    153  O        -19.4230   32.3670   20.3010 O.2   292  ALA292     -0.2718
    154  CB       -17.5640   34.7810   20.4330 C.3   292  ALA292      0.0304
    155  N        -19.2560   32.6460   22.5280 N.am  293  ASN293     -0.1974
    156  CA       -19.7110   31.2700   22.8460 C.3   293  ASN293      0.1688
    157  C        -21.1750   31.1820   23.2670 C.2   293  ASN293      0.2292
    158  O        -21.6630   30.1450   23.7260 O.2   293  ASN293     -0.2864
    159  CB       -18.8290   30.6670   23.9200 C.3   293  ASN293      0.1181
    160  CG       -17.3780   30.6060   23.4950 C.2   293  ASN293      0.2629
    161  OD1      -17.0900   30.3980   22.3190 O.2   293  ASN293     -0.2716
    162  ND2      -16.4520   30.7930   24.4410 N.am  293  ASN293     -0.0877
    163  N        -24.5940   31.2880   21.6620 N.3   295  LEU295     -0.1245
    164  CA       -25.2390   31.2340   20.3740 C.3   295  LEU295      0.1561
    165  C        -26.6960   31.4910   20.5940 C.2   295  LEU295      0.2260
    166  O        -27.1810   31.2140   21.6530 O.2   295  LEU295     -0.2867
    167  CB       -25.0600   29.8670   19.7610 C.3   295  LEU295      0.0270
    168  CG       -23.6140   29.4180   19.6000 C.3   295  LEU295      0.0019
    169  CD1      -23.6590   28.1160   18.8260 C.3   295  LEU295      0.0001
    170  CD2      -22.7530   30.4310   18.8860 C.3   295  LEU295      0.0001
    171  N        -22.0130   27.3230   24.0780 N.3   305  SER305     -0.1202
    172  CA       -21.5090   26.3660   23.1290 C.3   305  SER305      0.2020
    173  C        -20.0490   26.2800   23.2110 C.2   305  SER305      0.2618
    174  O        -19.4200   27.2280   23.5610 O.2   305  SER305     -0.2717
    175  CB       -21.8150   26.8070   21.7090 C.3   305  SER305      0.2103
    176  OG       -21.2790   25.8500   20.7920 O.3   305  SER305     -0.2182
    177  N        -19.5170   25.1430   22.8120 N.am  306  ASP306     -0.1973
    178  CA       -18.1170   25.0240   22.4610 C.3   306  ASP306      0.1709
    179  C        -17.3300   24.8320   23.7430 C.2   306  ASP306      0.2293
    180  O        -16.6200   25.7270   24.2190 O.2   306  ASP306     -0.2864
    181  CB       -17.6200   26.2040   21.5840 C.3   306  ASP306      0.1436
    182  CG       -16.2830   25.9010   20.8810 C.2   306  ASP306      0.3671
    183  OD1      -15.6890   24.8280   21.1650 O.co2 306  ASP306     -0.2456
    184  OD2      -15.8090   26.7430   20.0660 O.co2 306  ASP306     -0.2456
    185  N        -12.4360   24.3690   25.7260 N.3   309  LEU309     -0.1245
    186  CA       -11.6700   24.7410   26.9410 C.3   309  LEU309      0.1561
    187  C        -12.3680   24.4760   28.2810 C.2   309  LEU309      0.2260
    188  O        -11.7950   24.7730   29.3280 O.2   309  LEU309     -0.2867
    189  CB       -11.3130   26.2300   26.9100 C.3   309  LEU309      0.0270
    190  CG       -10.6530   26.7900   25.6510 C.3   309  LEU309      0.0019
    191  CD1      -10.5130   28.3150   25.6950 C.3   309  LEU309      0.0001
    192  CD2       -9.3120   26.1080   25.4420 C.3   309  LEU309      0.0001
@<TRIPOS>BOND
     1    22    21    1
     2    21    23    1
     3    21    20    2
     4    19    20    1
     5    19    18    1
     6    18    17    1
     7     1     2    1
     8     7     5    1
     9    17    14    1
    10    50    49    2
    11     2     5    1
    12     2     3    1
    13    49    48    1
    14     5     6    1
    15    12    11    2
    16     9     3   am
    17     9    10    1
    18    47    48    1
    19    45    44    1
    20    45    46    2
    21    44    43    1
    22    14    13    1
    23    14    15    1
    24     3     4    2
    25    11    13   am
    26    11    10    1
    27    48    51    1
    28     6     8    1
    29    70    71    2
    30    70    69    1
    31    27    26    2
    32    35    34    2
    33    43    34   am
    34    31    30    2
    35    68    69    1
    36    15    24   am
    37    15    16    2
    38    34    33    1
    39    24    25    1
    40    69    72    1
    41    51    52    1
    42    51    53    1
    43    83    84    1
    44    83    82    1
    45    26    25    1
    46    26    28   am
    47    61    60    1
    48    61    62    2
    49    30    32   am
    50    30    29    1
    51    33    32    1
    52    33    36    1
    53    56    55    1
    54    56    57    2
    55    59    60    1
    56    55    54    1
    57    55    58    1
    58    60    63    1
    59    29    28    1
    60    72    73    1
    61    81    82    1
    62    81    80    1
    63    76    77    1
    64    75    73    1
    65    36    37    1
    66    73    74    1
    67   128   127    2
    68    63    64    1
    69    64    65    1
    70   127   126    1
    71    38    37   ar
    72    38    40   ar
    73    80    77    1
    74    77    78    1
    75    37    39   ar
    76   125   126    1
    77    40    42   ar
    78   126   129    1
    79   140   138   ar
    80    39    41   ar
    81    65    66    1
    82   112   111    2
    83   133   134    1
    84    78    79    2
    85   109   110    1
    86    42    41   ar
    87   138   139   ar
    88   138   137    1
    89   129   130    1
    90    66    67    1
    91   120   119    2
    92   119   118    1
    93   111   110    1
    94   111   117   am
    95   136   135    2
    96   110   113    1
    97   134   137    1
    98   134   135    1
    99   113   114    1
   100   114   115    1
   101   114   116    1
   102   169   168    1
   103   170   168    1
   104   118   117    1
   105   118   121    1
   106   130   131    1
   107   168   167    1
   108   167   164    1
   109   131   132    1
   110   184   182   ar
   111   153   152    2
   112   121   122    1
   113   164   165    1
   114   164   163    1
   115   154   151    1
   116   101    99   ar
   117   165   166    2
   118   107   106    1
   119   176   175    1
   120   182   183   ar
   121   182   181    1
   122   100    99   ar
   123   151   152    1
   124   151   150    1
   125    99    98    1
   126   152   155   am
   127   122   123   ar
   128   122   124   ar
   129   181   178    1
   130   175   172    1
   131    91    90    1
   132   108   106    1
   133   106   103    1
   134    89    90    1
   135    89    86    1
   136    87    88    2
   137    87    86    1
   138    98    97    1
   139   161   160    2
   140   178   177    1
   141   178   179    1
   142    90    92    1
   143   155   156    1
   144   149   148    1
   145    97    94    1
   146   177   173   am
   147   156   157    1
   148   156   159    1
   149    86    85    1
   150   103   104    1
   151   103   102    1
   152   172   173    1
   153   172   171    1
   154   148   147    1
   155   104   105    2
   156   173   174    2
   157   157   158    2
   158   160   159    1
   159   160   162   am
   160   179   180    2
   161    95    94    1
   162    95    96    2
   163    94    93    1
   164   147   146    1
   165   146   145    1
   166   144   143    2
   167   143   142    1
   168   192   190    1
   169   190   191    1
   170   190   189    1
   171   185   186    1
   172   145   142    1
   173   142   141    1
   174   189   186    1
   175   186   187    1
   176   187   188    2
