@<TRIPOS>MOLECULE
tmp/5he5A01.pdb
 209 202 0 0 0
SMALL
GASTEIGER

@<TRIPOS>ATOM
      1  N         33.6870   10.8040   20.1350 N.3    16  GLN16      -0.1231
      2  CA        32.9590   10.5170   18.8840 C.3    16  GLN16       0.1698
      3  C         32.0180    9.3120   19.0160 C.2    16  GLN16       0.2592
      4  O         31.2570    9.0410   18.0950 O.2    16  GLN16      -0.2718
      5  CB        33.9580   10.2680   17.7340 C.3    16  GLN16       0.0381
      6  CG        34.7760   11.5080   17.3300 C.3    16  GLN16       0.0905
      7  CD        35.4010   11.3770   15.9610 C.2    16  GLN16       0.2608
      8  OE1       36.3130   10.5690   15.7310 O.2    16  GLN16      -0.2717
      9  NE2       34.9390   12.1950   15.0260 N.am   16  GLN16      -0.0878
     10  N         32.0830    8.6260   20.1440 N.am   17  GLY17      -0.1957
     11  CA        31.2510    7.4560   20.4160 C.3    17  GLY17       0.1869
     12  C         31.9130    6.1270   20.1280 C.2    17  GLY17       0.2309
     13  O         32.8550    6.0260   19.3160 O.2    17  GLY17      -0.2863
     14  N         26.5280    3.1670   16.6090 N.3    34  LEU34      -0.1245
     15  CA        26.8430    3.7210   17.9270 C.3    34  LEU34       0.1561
     16  C         26.0800    2.9780   19.0190 C.2    34  LEU34       0.2260
     17  O         24.8690    2.8100   18.9160 O.2    34  LEU34      -0.2867
     18  CB        26.4340    5.1940   17.9350 C.3    34  LEU34       0.0270
     19  CG        26.6190    5.9370   19.2560 C.3    34  LEU34       0.0019
     20  CD1       28.0610    6.2660   19.4480 C.3    34  LEU34       0.0001
     21  CD2       25.8210    7.2200   19.2660 C.3    34  LEU34       0.0001
     22  N         24.3320    3.1070   22.3620 N.3    36  ASP36      -0.1239
     23  CA        23.7810    4.1770   23.1900 C.3    36  ASP36       0.1674
     24  C         22.8610    3.6600   24.2910 C.2    36  ASP36       0.2266
     25  O         21.6850    3.3830   24.0370 O.2    36  ASP36      -0.2867
     26  CB        23.0490    5.1740   22.2900 C.3    36  ASP36       0.1410
     27  CG        22.5430    6.3880   23.0330 C.2    36  ASP36       0.3668
     28  OD1       23.0350    6.6480   24.1630 O.co2  36  ASP36      -0.2456
     29  OD2       21.6660    7.0860   22.4870 O.co2  36  ASP36      -0.2456
     30  N         21.6360    5.5080   26.4470 N.3    38  GLY38      -0.1210
     31  CA        20.8020    6.6730   26.7740 C.3    38  GLY38       0.1956
     32  C         19.6060    6.8900   25.8440 C.2    38  GLY38       0.2613
     33  O         18.9920    7.9660   25.8590 O.2    38  GLY38      -0.2717
     34  N         19.2940    5.9110   24.9670 N.am   39  SER39      -0.1938
     35  CA        18.1090    6.0240   24.0930 C.3    39  SER39       0.2055
     36  C         17.6330    4.6210   23.7800 C.2    39  SER39       0.2644
     37  O         18.2890    3.6590   24.1630 O.2    39  SER39      -0.2714
     38  CB        18.3900    6.8020   22.8130 C.3    39  SER39       0.2130
     39  OG        19.3030    6.1140   21.9690 O.3    39  SER39      -0.2179
     40  N         16.4940    4.5000   23.0530 N.am   40  SER40      -0.1935
     41  CA        15.8950    3.1830   22.8730 C.3    40  SER40       0.2055
     42  C         15.4450    2.8710   21.4640 C.2    40  SER40       0.2643
     43  O         14.6950    1.9010   21.3000 O.2    40  SER40      -0.2714
     44  CB        14.7080    3.0650   23.8160 C.3    40  SER40       0.2130
     45  OG        15.1550    3.3050   25.1460 O.3    40  SER40      -0.2179
     46  N         15.9150    3.6200   20.4720 N.am   41  ASN41      -0.1971
     47  CA        15.5970    3.3300   19.0690 C.3    41  ASN41       0.1688
     48  C         16.8130    2.7810   18.3310 C.2    41  ASN41       0.2292
     49  O         17.9490    3.2430   18.5360 O.2    41  ASN41      -0.2864
     50  CB        15.1570    4.6020   18.3320 C.3    41  ASN41       0.1181
     51  CG        13.7340    5.0050   18.6220 C.2    41  ASN41       0.2629
     52  OD1       13.4300    5.5280   19.6970 O.2    41  ASN41      -0.2716
     53  ND2       12.8180    4.6660   17.6920 N.am   41  ASN41      -0.0877
     54  N         12.5950   12.8480   15.6740 N.3    73  VAL73      -0.1231
     55  CA        13.2810   12.8380   16.9570 C.3    73  VAL73       0.1678
     56  C         14.1390   14.0890   17.1650 C.2    73  VAL73       0.2434
     57  O         15.3540   14.0670   16.9180 O.2    73  VAL73      -0.2733
     58  CB        14.0780   11.5240   17.2250 C.3    73  VAL73       0.0265
     59  CG1       14.6570   11.5200   18.6350 C.3    73  VAL73       0.0020
     60  CG2       13.1920   10.2920   17.0210 C.3    73  VAL73       0.0020
     61  N         13.5350   15.1800   17.6800 N.am   74  PRO74      -0.2718
     62  CA        14.3560   16.3390   18.0450 C.3    74  PRO74       0.1535
     63  C         14.8890   16.0940   19.4660 C.2    74  PRO74       0.2599
     64  O         14.1630   15.6020   20.3420 O.2    74  PRO74      -0.2715
     65  CB        13.3510   17.5060   18.0200 C.3    74  PRO74       0.0310
     66  CG        12.0170   16.8740   18.3770 C.3    74  PRO74       0.0237
     67  CD        12.1070   15.3830   18.0360 C.3    74  PRO74       0.0939
     68  N         16.1610   16.3690   19.6820 N.am   75  TYR75      -0.1960
     69  CA        16.7260   16.2600   21.0210 C.3    75  TYR75       0.1771
     70  C         17.5200   17.5440   21.2970 C.2    75  TYR75       0.2620
     71  O         17.4990   18.4490   20.4670 O.2    75  TYR75      -0.2715
     72  CB        17.4780   14.9080   21.2680 C.3    75  TYR75       0.0574
     73  CG        18.5930   14.6460   20.2900 C.ar   75  TYR75      -0.0198
     74  CD1       19.8820   15.0940   20.5420 C.ar   75  TYR75      -0.0009
     75  CD2       18.3540   13.9780   19.0900 C.ar   75  TYR75      -0.0009
     76  CE1       20.9050   14.9140   19.6160 C.ar   75  TYR75       0.0417
     77  CE2       19.3640   13.8040   18.1490 C.ar   75  TYR75       0.0417
     78  CZ        20.6430   14.2590   18.4240 C.ar   75  TYR75       0.1957
     79  OH        21.6480   14.0960   17.5090 O.3    75  TYR75      -0.2866
     80  N         18.1640   17.6740   22.4590 N.am   76  THR76      -0.1937
     81  CA        18.8070   18.9490   22.7880 C.3    76  THR76       0.2028
     82  C         19.8610   19.3950   21.7640 C.2    76  THR76       0.2642
     83  O         19.7660   20.5130   21.2590 O.2    76  THR76      -0.2714
     84  CB        19.3470   18.9250   24.2260 C.3    76  THR76       0.1808
     85  OG1       18.2430   18.6820   25.0980 O.3    76  THR76      -0.2208
     86  CG2       20.0190   20.2310   24.6250 C.3    76  THR76       0.0379
     87  N         20.8240   18.5370   21.4410 N.am   77  GLN77      -0.1976
     88  CA        21.9300   18.9190   20.5690 C.3    77  GLN77       0.1601
     89  C         21.7340   18.6540   19.0760 C.2    77  GLN77       0.2287
     90  O         22.6320   18.9570   18.2930 O.2    77  GLN77      -0.2864
     91  CB        23.2200   18.2390   21.0560 C.3    77  GLN77       0.0394
     92  CG        23.6710   18.7940   22.3940 C.3    77  GLN77       0.0908
     93  CD        24.1370   20.2330   22.3000 C.2    77  GLN77       0.2608
     94  OE1       24.7130   20.6540   21.2880 O.2    77  GLN77      -0.2717
     95  NE2       23.9210   20.9730   23.3220 N.am   77  GLN77      -0.0878
     96  N         16.9270   13.9730   14.2020 N.3    80  TRP80      -0.1241
     97  CA        16.8350   13.0730   13.0640 C.3    80  TRP80       0.1605
     98  C         15.4030   12.7670   12.7730 C.2    80  TRP80       0.2264
     99  O         14.5550   12.8090   13.6550 O.2    80  TRP80      -0.2867
    100  CB        17.7150   11.8100   13.1600 C.3    80  TRP80       0.0550
    101  CG        17.4470   10.8660   14.2870 C.ar   80  TRP80       0.0003
    102  CD1       18.2560   10.6600   15.3660 C.ar   80  TRP80       0.0946
    103  CD2       16.4730    9.8120   14.3150 C.ar   80  TRP80       0.0152
    104  NE1       17.7670    9.6420   16.1390 N.ar   80  TRP80      -0.2442
    105  CE2       16.6780    9.0860   15.5110 C.ar   80  TRP80       0.0810
    106  CE3       15.4140    9.4330   13.4600 C.ar   80  TRP80       0.0012
    107  CZ2       15.8600    8.0250   15.8970 C.ar   80  TRP80       0.0191
    108  CZ3       14.5730    8.4000   13.8610 C.ar   80  TRP80       0.0001
    109  CH2       14.8080    7.6880   15.0440 C.ar   80  TRP80       0.0015
    110  N         22.9860   17.7740   12.8250 N.3   111  LYS111     -0.1231
    111  CA        24.0210   17.6190   13.8530 C.3   111  LYS111      0.1693
    112  C         23.9730   16.2450   14.5400 C.2   111  LYS111      0.2592
    113  O         24.3420   16.1120   15.7100 O.2   111  LYS111     -0.2718
    114  CB        23.9490   18.7610   14.8880 C.3   111  LYS111      0.0285
    115  CG        24.2040   20.1460   14.2940 C.3   111  LYS111      0.0035
    116  CD        24.3180   21.2360   15.3740 C.3   111  LYS111      0.0206
    117  CE        23.0360   21.5480   16.1250 C.3   111  LYS111      0.1093
    118  NZ        21.9400   21.9830   15.2180 N.3   111  LYS111     -0.1314
    119  N         23.4960   15.2270   13.8090 N.am  112  PHE112     -0.1976
    120  CA        23.4330   13.8700   14.3290 C.3   112  PHE112      0.1639
    121  C         24.6960   13.1080   13.8830 C.2   112  PHE112      0.2290
    122  O         25.4980   12.6970   14.7310 O.2   112  PHE112     -0.2864
    123  CB        22.1320   13.1920   13.8800 C.3   112  PHE112      0.0560
    124  CG        22.0440   11.7490   14.3200 C.ar  112  PHE112     -0.0200
    125  CD1       21.8220   11.4240   15.6550 C.ar  112  PHE112     -0.0042
    126  CD2       22.0960   10.7170   13.3870 C.ar  112  PHE112     -0.0042
    127  CE1       21.7350   10.0870   16.0650 C.ar  112  PHE112     -0.0003
    128  CE2       21.9940    9.3810   13.7980 C.ar  112  PHE112     -0.0003
    129  CZ        21.8380    9.0790   15.1340 C.ar  112  PHE112     -0.0000
    130  N         28.3940   12.5420   12.6800 N.3   114  ILE114     -0.1245
    131  CA        29.6640   13.1850   13.0250 C.3   114  ILE114      0.1561
    132  C         30.6770   12.8970   11.9230 C.2   114  ILE114      0.2260
    133  O         30.9110   11.7330   11.5850 O.2   114  ILE114     -0.2867
    134  CB        30.1730   12.6660   14.4080 C.3   114  ILE114      0.0252
    135  CG1       29.1860   12.9790   15.5730 C.3   114  ILE114      0.0019
    136  CG2       31.6090   13.1800   14.7240 C.3   114  ILE114      0.0019
    137  CD1       29.5800   12.3160   16.9690 C.3   114  ILE114      0.0001
    138  N         30.6130    5.8270   12.1600 N.3   119  TRP119     -0.1241
    139  CA        29.3440    5.1380   12.4100 C.3   119  TRP119      0.1605
    140  C         28.2180    5.7380   11.5810 C.2   119  TRP119      0.2264
    141  O         28.2480    6.9190   11.2270 O.2   119  TRP119     -0.2867
    142  CB        28.9550    5.0010   13.8840 C.3   119  TRP119      0.0550
    143  CG        28.9700    6.2520   14.7010 C.ar  119  TRP119      0.0003
    144  CD1       29.9650    6.6470   15.5470 C.ar  119  TRP119      0.0946
    145  CD2       27.9130    7.2110   14.8470 C.ar  119  TRP119      0.0152
    146  NE1       29.6170    7.8160   16.1730 N.ar  119  TRP119     -0.2442
    147  CE2       28.3580    8.1870   15.7690 C.ar  119  TRP119      0.0810
    148  CE3       26.6330    7.3580   14.2780 C.ar  119  TRP119      0.0012
    149  CZ2       27.5570    9.2780   16.1580 C.ar  119  TRP119      0.0191
    150  CZ3       25.8380    8.4190   14.6660 C.ar  119  TRP119      0.0001
    151  CH2       26.2970    9.3790   15.5880 C.ar  119  TRP119      0.0015
    152  N         22.5550    4.2760   15.1220 N.3   122  ILE122     -0.1245
    153  CA        22.5510    4.2460   16.5840 C.3   122  ILE122      0.1561
    154  C         21.7520    3.0940   17.0970 C.2   122  ILE122      0.2260
    155  O         20.6860    2.7850   16.5350 O.2   122  ILE122     -0.2867
    156  CB        22.0370    5.6060   17.1140 C.3   122  ILE122      0.0252
    157  CG1       22.1920    5.7220   18.6400 C.3   122  ILE122      0.0019
    158  CG2       20.5740    5.9080   16.6470 C.3   122  ILE122      0.0019
    159  CD1       22.1440    7.2630   19.0910 C.3   122  ILE122      0.0001
    160  N         11.0480    5.2470   26.6570 N.3   130  ILE130     -0.1245
    161  CA        11.5990    6.4140   25.9950 C.3   130  ILE130      0.1561
    162  C         11.8000    6.2280   24.4510 C.2   130  ILE130      0.2260
    163  O         12.3550    7.0970   23.7750 O.2   130  ILE130     -0.2867
    164  CB        12.8750    6.8950   26.7210 C.3   130  ILE130      0.0252
    165  CG1       13.9710    5.8330   26.6590 C.3   130  ILE130      0.0019
    166  CG2       12.5620    7.3220   28.1950 C.3   130  ILE130      0.0019
    167  CD1       15.3930    6.4070   27.0700 C.3   130  ILE130      0.0001
    168  N         10.7410    6.2020   20.5160 N.3   132  ARG132     -0.1245
    169  CA         9.9400    7.0980   19.6650 C.3   132  ARG132      0.1563
    170  C          9.3800    6.3120   18.5000 C.2   132  ARG132      0.2260
    171  O         10.0520    5.4130   17.9980 O.2   132  ARG132     -0.2867
    172  CB        10.7370    8.2770   19.1370 C.3   132  ARG132      0.0307
    173  CG        11.2760    9.1740   20.2210 C.3   132  ARG132      0.0489
    174  CD        10.2050    9.7950   21.0990 C.3   132  ARG132      0.2205
    175  NE        10.8420   10.6530   22.0960 N.pl3 132  ARG132     -0.0865
    176  CZ        11.1920   11.9220   21.9020 C.cat 132  ARG132      0.5346
    177  NH1       11.8030   12.6010   22.8650 N.pl3 132  ARG132      0.1354
    178  NH2       10.9190   12.5280   20.7510 N.pl3 132  ARG132      0.1354
    179  N         15.3320    5.1620   31.2870 N.3   202  TYR202     -0.1241
    180  CA        16.7730    5.2500   31.1330 C.3   202  TYR202      0.1605
    181  C         17.3010    4.1800   32.1010 C.2   202  TYR202      0.2264
    182  O         16.5340    3.5820   32.8820 O.2   202  TYR202     -0.2867
    183  CB        17.2360    6.6250   31.6390 C.3   202  TYR202      0.0534
    184  CG        16.8820    7.7460   30.7090 C.ar  202  TYR202     -0.0201
    185  CD1       17.6290    7.9870   29.5570 C.ar  202  TYR202     -0.0009
    186  CD2       15.7660    8.5410   30.9430 C.ar  202  TYR202     -0.0009
    187  CE1       17.2610    8.9780   28.6530 C.ar  202  TYR202      0.0417
    188  CE2       15.3980    9.5430   30.0530 C.ar  202  TYR202      0.0417
    189  CZ        16.1450    9.7530   28.9100 C.ar  202  TYR202      0.1957
    190  OH        15.7770   10.7370   28.0300 O.3   202  TYR202     -0.2866
    191  N         24.9630    6.3930   30.7600 N.3   232  ASP232     -0.1239
    192  CA        24.7400    6.6920   29.3360 C.3   232  ASP232      0.1674
    193  C         26.0120    6.6210   28.4790 C.2   232  ASP232      0.2266
    194  O         26.8130    7.5730   28.4290 O.2   232  ASP232     -0.2867
    195  CB        24.1040    8.0880   29.2170 C.3   232  ASP232      0.1410
    196  CG        23.7780    8.4930   27.7850 C.2   232  ASP232      0.3668
    197  OD1       23.8750    7.6210   26.8820 O.co2 232  ASP232     -0.2456
    198  OD2       23.5290    9.6990   27.5440 O.co2 232  ASP232     -0.2456
    199  N         26.2180    7.0190   25.3820 N.3   234  GLY234     -0.1210
    200  CA        26.1450    8.0070   24.3170 C.3   234  GLY234      0.1956
    201  C         26.5500    9.4290   24.7200 C.2   234  GLY234      0.2612
    202  O         26.5120   10.3270   23.8870 O.2   234  GLY234     -0.2717
    203  N         26.9130    9.6480   26.0080 N.am  235  THR235     -0.1952
    204  CA        27.4070   10.9610   26.4950 C.3   235  THR235      0.1897
    205  C         28.9110   10.7970   26.7010 C.2   235  THR235      0.2313
    206  O         29.3370    9.7950   27.2560 O.2   235  THR235     -0.2863
    207  CB        26.7130   11.3140   27.8170 C.3   235  THR235      0.1794
    208  OG1       25.3550   11.6730   27.5320 O.3   235  THR235     -0.2208
    209  CG2       27.3720   12.4860   28.5680 C.3   235  THR235      0.0378
@<TRIPOS>BOND
     1   141   140    2
     2   140   139    1
     3   133   132    2
     4   132   131    1
     5   138   139    1
     6   139   142    1
     7   130   131    1
     8    98    97    1
     9    98    99    2
    10   110   111    1
    11   131   134    1
    12    97   100    1
    13    97    96    1
    14   100   101    1
    15   126   128   ar
    16   126   124   ar
    17   106   108   ar
    18   106   103   ar
    19   128   129   ar
    20   119   120    1
    21   119   112   am
    22   111   112    1
    23   111   114    1
    24   108   109   ar
    25   123   124    1
    26   123   120    1
    27   121   120    1
    28   121   122    2
    29   142   143    1
    30   148   150   ar
    31   148   145   ar
    32   101   103   ar
    33   101   102   ar
    34   115   114    1
    35   115   116    1
    36   103   105   ar
    37   124   125   ar
    38   134   136    1
    39   134   135    1
    40   112   113    2
    41   150   151   ar
    42   143   145   ar
    43   143   144   ar
    44   145   147   ar
    45     9     7   am
    46   109   107   ar
    47   152   153    1
    48   129   127   ar
    49   118   117    1
    50   102   104   ar
    51   116   117    1
    52   105   107   ar
    53   105   104   ar
    54   144   146   ar
    55   135   137    1
    56   151   149   ar
    57   125   127   ar
    58    54    55    1
    59     8     7    2
    60   147   149   ar
    61   147   146   ar
    62     7     6    1
    63   155   154    2
    64   153   154    1
    65   153   156    1
    66    14    15    1
    67   158   156    1
    68    57    56    2
    69    55    56    1
    70    55    58    1
    71    60    58    1
    72   156   157    1
    73    56    61   am
    74    58    59    1
    75     6     5    1
    76    79    78    1
    77    61    67    1
    78    61    62    1
    79    53    51   am
    80     5     2    1
    81    15    18    1
    82    15    16    1
    83    18    19    1
    84   171   170    2
    85    65    62    1
    86    65    66    1
    87    67    66    1
    88    62    63    1
    89     4     3    2
    90    77    78   ar
    91    77    75   ar
    92    90    89    2
    93    48    49    2
    94    48    47    1
    95    50    51    1
    96    50    47    1
    97    78    76   ar
    98   170   169    1
    99    51    52    2
   100   157   159    1
   101     2     3    1
   102     2     1    1
   103    17    16    2
   104     3    10   am
   105    47    46    1
   106    89    88    1
   107    75    73   ar
   108   172   169    1
   109   172   173    1
   110    19    21    1
   111    19    20    1
   112    13    12    2
   113    63    68   am
   114    63    64    2
   115    76    74   ar
   116   169   168    1
   117    68    69    1
   118    12    11    1
   119    10    11    1
   120   173   174    1
   121    73    74   ar
   122    73    72    1
   123    71    70    2
   124    46    42   am
   125    88    91    1
   126    88    87    1
   127   178   176    1
   128    69    72    1
   129    69    70    1
   130    91    92    1
   131   174   175    1
   132    83    82    2
   133    94    93    2
   134    70    80   am
   135    43    42    2
   136    87    82   am
   137    42    41    1
   138    82    81    1
   139   176   175    2
   140   176   177    1
   141    39    38    1
   142    26    27    1
   143    26    23    1
   144    93    92    1
   145    93    95   am
   146    22    23    1
   147    80    81    1
   148    29    27   ar
   149    81    84    1
   150    38    35    1
   151    41    40    1
   152    41    44    1
   153    27    28   ar
   154    40    36   am
   155    23    24    1
   156   163   162    2
   157    36    35    1
   158    36    37    2
   159    44    45    1
   160   202   201    2
   161    25    24    2
   162    35    34    1
   163    84    86    1
   164    84    85    1
   165   200   201    1
   166   200   199    1
   167   162   161    1
   168   201   203   am
   169    34    32   am
   170    32    33    2
   171    32    31    1
   172   161   160    1
   173   161   164    1
   174   203   204    1
   175    30    31    1
   176   204   205    1
   177   204   207    1
   178   165   164    1
   179   165   167    1
   180   205   206    2
   181   164   166    1
   182   197   196   ar
   183   208   207    1
   184   198   196   ar
   185   196   195    1
   186   207   209    1
   187   190   189    1
   188   194   193    2
   189   193   192    1
   190   187   189   ar
   191   187   185   ar
   192   189   188   ar
   193   195   192    1
   194   192   191    1
   195   185   184   ar
   196   188   186   ar
   197   184   186   ar
   198   184   183    1
   199   180   179    1
   200   180   183    1
   201   180   181    1
   202   181   182    2
