@<TRIPOS>MOLECULE
tmp/5he7B00.pdb
 195 183 0 0 0
SMALL
GASTEIGER

@<TRIPOS>ATOM
      1  N          9.5640   34.4460   54.7960 N.3    17  GLN17      -0.1245
      2  CA        10.3350   34.7180   53.5760 C.3    17  GLN17       0.1566
      3  C         11.2590   35.9460   53.6750 C.2    17  GLN17       0.2260
      4  O         12.0610   36.1680   52.7750 O.2    17  GLN17      -0.2867
      5  CB         9.3900   34.8560   52.3870 C.3    17  GLN17       0.0367
      6  CG         8.6640   33.5380   52.0590 C.3    17  GLN17       0.0905
      7  CD         7.9870   33.5430   50.7130 C.2    17  GLN17       0.2608
      8  OE1        7.3570   34.5280   50.2910 O.2    17  GLN17      -0.2717
      9  NE2        8.0500   32.4050   50.0400 N.am   17  GLN17      -0.0878
     10  N         16.5520   42.0690   51.2120 N.3    35  LEU35      -0.1245
     11  CA        16.2290   41.5610   52.5540 C.3    35  LEU35       0.1561
     12  C         17.0350   42.3080   53.6330 C.2    35  LEU35       0.2260
     13  O         18.2540   42.4100   53.5320 O.2    35  LEU35      -0.2867
     14  CB        16.5090   40.0490   52.6190 C.3    35  LEU35       0.0270
     15  CG        16.0880   39.3550   53.9160 C.3    35  LEU35       0.0019
     16  CD1       15.3790   38.0390   53.6350 C.3    35  LEU35       0.0001
     17  CD2       17.2770   39.0230   54.7390 C.3    35  LEU35       0.0001
     18  N         18.7740   42.2490   56.9730 N.3    37  ASP37      -0.1239
     19  CA        19.3690   41.1800   57.7810 C.3    37  ASP37       0.1674
     20  C         20.3050   41.6780   58.8780 C.2    37  ASP37       0.2266
     21  O         21.4870   41.9460   58.6280 O.2    37  ASP37      -0.2867
     22  CB        20.1160   40.2090   56.8460 C.3    37  ASP37       0.1410
     23  CG        20.6580   38.9640   57.5070 C.2    37  ASP37       0.3668
     24  OD1       20.2180   38.6490   58.6530 O.co2  37  ASP37      -0.2456
     25  OD2       21.4330   38.2340   56.8440 O.co2  37  ASP37      -0.2456
     26  N         21.5340   39.8110   61.0400 N.3    39  GLY39      -0.1210
     27  CA        22.3510   38.6390   61.3510 C.3    39  GLY39       0.1956
     28  C         23.5800   38.4170   60.4780 C.2    39  GLY39       0.2613
     29  O         24.2170   37.3670   60.5710 O.2    39  GLY39      -0.2717
     30  N         23.8790   39.3670   59.5660 N.am   40  SER40      -0.1938
     31  CA        25.0830   39.2650   58.7170 C.3    40  SER40       0.2055
     32  C         25.5660   40.6780   58.4500 C.2    40  SER40       0.2644
     33  O         24.8730   41.6320   58.8230 O.2    40  SER40      -0.2714
     34  CB        24.8060   38.5110   57.4210 C.3    40  SER40       0.2130
     35  OG        23.9840   39.2650   56.5570 O.3    40  SER40      -0.2179
     36  N         26.7300   40.8240   57.8020 N.am   41  SER41      -0.1935
     37  CA        27.3280   42.1520   57.6100 C.3    41  SER41       0.2055
     38  C         27.8190   42.4290   56.1990 C.2    41  SER41       0.2643
     39  O         28.5950   43.3690   56.0140 O.2    41  SER41      -0.2714
     40  CB        28.4790   42.3310   58.5970 C.3    41  SER41       0.2130
     41  OG        27.9830   42.1650   59.9120 O.3    41  SER41      -0.2179
     42  N         27.3610   41.6570   55.2160 N.am   42  ASN42      -0.1971
     43  CA        27.6880   41.9190   53.8060 C.3    42  ASN42       0.1688
     44  C         26.4470   42.3890   53.0600 C.2    42  ASN42       0.2292
     45  O         25.3370   41.9320   53.3430 O.2    42  ASN42      -0.2864
     46  CB        28.1820   40.6420   53.1140 C.3    42  ASN42       0.1181
     47  CG        29.5980   40.3160   53.4450 C.2    42  ASN42       0.2629
     48  OD1       29.9110   39.9180   54.5780 O.2    42  ASN42      -0.2716
     49  ND2       30.4930   40.5360   52.4770 N.am   42  ASN42      -0.0877
     50  N         25.0030   41.7230   49.6300 N.3    44  ALA44      -0.1245
     51  CA        25.1970   40.7560   48.5620 C.3    44  ALA44       0.1562
     52  C         23.9530   40.6770   47.7270 C.2    44  ALA44       0.2260
     53  O         22.8430   40.5780   48.2650 O.2    44  ALA44      -0.2867
     54  CB        25.5430   39.3900   49.1470 C.3    44  ALA44       0.0290
     55  N         30.8610   32.0090   50.7570 N.3    74  VAL74      -0.1245
     56  CA        30.2000   32.0440   52.0550 C.3    74  VAL74       0.1561
     57  C         29.3030   30.8250   52.2990 C.2    74  VAL74       0.2260
     58  O         28.1000   30.9070   52.0600 O.2    74  VAL74      -0.2867
     59  CB        29.4370   33.3870   52.2650 C.3    74  VAL74       0.0252
     60  CG1       28.7140   33.4150   53.6240 C.3    74  VAL74       0.0019
     61  CG2       30.3810   34.5720   52.1310 C.3    74  VAL74       0.0019
     62  N         27.2520   28.5520   54.7650 N.3    76  TYR76      -0.1241
     63  CA        26.6690   28.7940   56.0910 C.3    76  TYR76       0.1605
     64  C         25.8110   27.5560   56.4420 C.2    76  TYR76       0.2264
     65  O         25.7380   26.6220   55.6320 O.2    76  TYR76      -0.2867
     66  CB        25.9650   30.1930   56.1880 C.3    76  TYR76       0.0534
     67  CG        24.8560   30.4010   55.1790 C.ar   76  TYR76      -0.0201
     68  CD1       25.1250   30.9230   53.9090 C.ar   76  TYR76      -0.0009
     69  CD2       23.5470   30.0470   55.4740 C.ar   76  TYR76      -0.0009
     70  CE1       24.1170   31.0380   52.9460 C.ar   76  TYR76       0.0417
     71  CE2       22.5350   30.1480   54.5190 C.ar   76  TYR76       0.0417
     72  CZ        22.8240   30.6410   53.2580 C.ar   76  TYR76       0.1957
     73  OH        21.8120   30.7090   52.3370 O.3    76  TYR76      -0.2866
     74  N         22.5340   26.7840   56.7230 N.3    78  GLN78      -0.1245
     75  CA        21.4050   26.4710   55.8680 C.3    78  GLN78       0.1566
     76  C         21.6600   26.5130   54.3440 C.2    78  GLN78       0.2260
     77  O         20.7700   26.1380   53.5960 O.2    78  GLN78      -0.2867
     78  CB        20.2230   27.3750   56.2270 C.3    78  GLN78       0.0367
     79  CG        19.6360   27.1880   57.6240 C.3    78  GLN78       0.0905
     80  CD        19.1680   25.7770   57.8680 C.2    78  GLN78       0.2608
     81  OE1       18.3910   25.2470   57.0490 O.2    78  GLN78      -0.2717
     82  NE2       19.6890   25.1230   58.8570 N.am   78  GLN78      -0.0878
     83  N         26.5450   30.8720   49.3810 N.3    81  TRP81      -0.1241
     84  CA        26.5660   31.8520   48.3020 C.3    81  TRP81       0.1605
     85  C         27.9930   32.1840   47.9500 C.2    81  TRP81       0.2264
     86  O         28.8800   32.1650   48.8050 O.2    81  TRP81      -0.2867
     87  CB        25.6860   33.0860   48.5640 C.3    81  TRP81       0.0550
     88  CG        26.1570   34.0010   49.6450 C.ar   81  TRP81       0.0003
     89  CD1       25.6840   34.0600   50.9230 C.ar   81  TRP81       0.0946
     90  CD2       27.0640   35.1060   49.5020 C.ar   81  TRP81       0.0152
     91  NE1       26.2850   35.0920   51.6040 N.ar   81  TRP81      -0.2442
     92  CE2       27.1120   35.7710   50.7490 C.ar   81  TRP81       0.0810
     93  CE3       27.8400   35.6030   48.4380 C.ar   81  TRP81       0.0012
     94  CZ2       27.9550   36.8620   50.9820 C.ar   81  TRP81       0.0191
     95  CZ3       28.6390   36.7100   48.6570 C.ar   81  TRP81       0.0001
     96  CH2       28.7200   37.3110   49.9240 C.ar   81  TRP81       0.0015
     97  N         20.2760   27.3380   48.1540 N.3   112  LYS112     -0.1231
     98  CA        19.2520   27.6200   49.1890 C.3   112  LYS112      0.1693
     99  C         19.3560   29.0270   49.7700 C.2   112  LYS112      0.2592
    100  O         19.0180   29.2580   50.9420 O.2   112  LYS112     -0.2718
    101  CB        19.2660   26.5410   50.3010 C.3   112  LYS112      0.0285
    102  CG        18.8840   25.1500   49.7750 C.3   112  LYS112      0.0035
    103  CD        18.6960   24.1060   50.9110 C.3   112  LYS112      0.0206
    104  CE        19.9780   23.6400   51.5800 C.3   112  LYS112      0.1093
    105  NZ        20.9490   23.0630   50.6070 N.3   112  LYS112     -0.1314
    106  N         19.8330   29.9740   48.9500 N.am  113  PHE113     -0.1976
    107  CA        19.9760   31.3500   49.3800 C.3   113  PHE113      0.1639
    108  C         18.6970   32.1000   48.9900 C.2   113  PHE113      0.2290
    109  O         17.9830   32.6040   49.8650 O.2   113  PHE113     -0.2864
    110  CB        21.2390   31.9740   48.7570 C.3   113  PHE113      0.0560
    111  CG        21.4930   33.4120   49.1490 C.ar  113  PHE113     -0.0200
    112  CD1       22.1800   33.7200   50.3230 C.ar  113  PHE113     -0.0042
    113  CD2       21.1250   34.4550   48.3050 C.ar  113  PHE113     -0.0042
    114  CE1       22.4530   35.0480   50.6610 C.ar  113  PHE113     -0.0003
    115  CE2       21.3840   35.7900   48.6570 C.ar  113  PHE113     -0.0003
    116  CZ        22.0720   36.0730   49.8150 C.ar  113  PHE113     -0.0000
    117  N         14.8020   32.6160   47.7210 N.3   115  ILE115     -0.1245
    118  CA        13.5150   31.9900   48.0750 C.3   115  ILE115      0.1561
    119  C         12.5300   32.2490   46.9350 C.2   115  ILE115      0.2260
    120  O         12.3080   33.3990   46.5560 O.2   115  ILE115     -0.2867
    121  CB        12.9560   32.5000   49.4440 C.3   115  ILE115      0.0252
    122  CG1       13.9230   32.1840   50.6200 C.3   115  ILE115      0.0019
    123  CG2       11.5310   31.9170   49.7280 C.3   115  ILE115      0.0019
    124  CD1       13.5150   32.8500   51.9830 C.3   115  ILE115      0.0001
    125  N         12.5420   39.3690   46.7440 N.3   120  TRP120     -0.1241
    126  CA        13.8100   40.0620   46.9750 C.3   120  TRP120      0.1605
    127  C         14.9550   39.3940   46.1830 C.2   120  TRP120      0.2264
    128  O         14.9130   38.1970   45.9110 O.2   120  TRP120     -0.2867
    129  CB        14.1700   40.2380   48.4550 C.3   120  TRP120      0.0550
    130  CG        14.1470   38.9950   49.2810 C.ar  120  TRP120      0.0003
    131  CD1       13.1460   38.6030   50.1320 C.ar  120  TRP120      0.0946
    132  CD2       15.2190   38.0610   49.4620 C.ar  120  TRP120      0.0152
    133  NE1       13.5140   37.4570   50.7910 N.ar  120  TRP120     -0.2442
    134  CE2       14.7820   37.1000   50.4020 C.ar  120  TRP120      0.0810
    135  CE3       16.5010   37.9120   48.8850 C.ar  120  TRP120      0.0012
    136  CZ2       15.5730   36.0000   50.7770 C.ar  120  TRP120      0.0191
    137  CZ3       17.3030   36.8570   49.2950 C.ar  120  TRP120      0.0001
    138  CH2       16.8380   35.9040   50.2200 C.ar  120  TRP120      0.0015
    139  N         20.5990   40.7240   49.8690 N.3   123  ILE123     -0.1245
    140  CA        20.5370   40.8460   51.3220 C.3   123  ILE123      0.1561
    141  C         21.4180   41.9780   51.7640 C.2   123  ILE123      0.2260
    142  O         22.5690   42.0860   51.3170 O.2   123  ILE123     -0.2867
    143  CB        20.9660   39.5060   52.0050 C.3   123  ILE123      0.0252
    144  CG1       20.0440   38.3510   51.5620 C.3   123  ILE123      0.0019
    145  CG2       20.9910   39.6510   53.5320 C.3   123  ILE123      0.0019
    146  CD1       20.1400   36.9810   52.4020 C.3   123  ILE123      0.0001
    147  N         32.1890   40.3380   61.5100 N.3   131  ILE131     -0.1245
    148  CA        31.6670   39.1370   60.8530 C.3   131  ILE131      0.1561
    149  C         31.4910   39.3240   59.3280 C.2   131  ILE131      0.2260
    150  O         30.8770   38.4730   58.6730 O.2   131  ILE131     -0.2867
    151  CB        30.3820   38.6250   61.5410 C.3   131  ILE131      0.0252
    152  CG1       29.2640   39.7000   61.4800 C.3   131  ILE131      0.0019
    153  CG2       30.7040   38.1630   62.9990 C.3   131  ILE131      0.0019
    154  CD1       27.8250   39.1510   61.7010 C.3   131  ILE131      0.0001
    155  N         32.5050   39.1980   55.4150 N.3   133  ARG133     -0.1245
    156  CA        33.2740   38.2330   54.6270 C.3   133  ARG133      0.1563
    157  C         33.9010   38.9400   53.4310 C.2   133  ARG133      0.2260
    158  O         33.2790   39.8240   52.8590 O.2   133  ARG133     -0.2867
    159  CB        32.3980   37.0660   54.1420 C.3   133  ARG133      0.0307
    160  CG        31.6840   36.3190   55.2650 C.3   133  ARG133      0.0489
    161  CD        32.6660   35.6380   56.2160 C.3   133  ARG133      0.2205
    162  NE        31.9680   34.6750   57.0590 N.pl3 133  ARG133     -0.0865
    163  CZ        31.7950   33.3960   56.7490 C.cat 133  ARG133      0.5346
    164  NH1       32.2900   32.9060   55.6130 N.pl3 133  ARG133      0.1354
    165  NH2       31.1410   32.5910   57.5760 N.pl3 133  ARG133      0.1354
    166  N         18.2160   38.8390   65.3060 N.3   233  ASP233     -0.1239
    167  CA        18.4240   38.5640   63.8810 C.3   233  ASP233      0.1674
    168  C         17.1540   38.6220   63.0330 C.2   233  ASP233      0.2266
    169  O         16.4070   37.6410   62.9640 O.2   233  ASP233     -0.2867
    170  CB        19.1300   37.2060   63.7160 C.3   233  ASP233      0.1410
    171  CG        19.4310   36.8210   62.2640 C.2   233  ASP233      0.3668
    172  OD1       19.3190   37.7040   61.3760 O.co2 233  ASP233     -0.2456
    173  OD2       19.7930   35.6370   62.0180 O.co2 233  ASP233     -0.2456
    174  N         16.9730   38.3000   59.9480 N.3   235  GLY235     -0.1210
    175  CA        17.1520   37.3390   58.8610 C.3   235  GLY235      0.1956
    176  C         16.8040   35.9090   59.2120 C.2   235  GLY235      0.2612
    177  O         16.9120   35.0200   58.3570 O.2   235  GLY235     -0.2717
    178  N         16.4230   35.6680   60.4920 N.am  236  THR236     -0.1952
    179  CA        15.9650   34.3480   60.9540 C.3   236  THR236      0.1897
    180  C         14.4470   34.4650   61.1710 C.2   236  THR236      0.2313
    181  O         13.9610   35.4580   61.7290 O.2   236  THR236     -0.2863
    182  CB        16.6550   33.9950   62.2920 C.3   236  THR236      0.1794
    183  OG1       18.0030   33.6430   62.0210 O.3   236  THR236     -0.2208
    184  CG2       15.9960   32.8020   63.0180 C.3   236  THR236      0.0378
    185  N         14.8810   30.9610   68.0770 N.3   240  ARG240     -0.1245
    186  CA        15.6810   29.7110   68.1480 C.3   240  ARG240      0.1563
    187  C         16.3770   29.6820   69.4900 C.2   240  ARG240      0.2260
    188  O         16.8620   30.7150   69.9730 O.2   240  ARG240     -0.2867
    189  CB        16.6850   29.5940   66.9810 C.3   240  ARG240      0.0307
    190  CG        15.9890   29.7100   65.6150 C.3   240  ARG240      0.0489
    191  CD        16.9530   29.5530   64.4570 C.3   240  ARG240      0.2205
    192  NE        17.4560   28.1820   64.3630 N.pl3 240  ARG240     -0.0865
    193  CZ        18.7430   27.8610   64.2600 C.cat 240  ARG240      0.5346
    194  NH1       19.1090   26.5910   64.1970 N.pl3 240  ARG240      0.1354
    195  NH2       19.6760   28.8120   64.2480 N.pl3 240  ARG240      0.1354
@<TRIPOS>BOND
     1   128   127    2
     2   127   126    1
     3   120   119    2
     4   125   126    1
     5   119   118    1
     6   126   129    1
     7   117   118    1
     8    52    53    2
     9    52    51    1
    10    85    84    1
    11    85    86    2
    12   118   121    1
    13    97    98    1
    14    84    87    1
    15    84    83    1
    16   113   115   ar
    17   113   111   ar
    18    93    95   ar
    19    93    90   ar
    20   129   130    1
    21    51    54    1
    22    51    50    1
    23    87    88    1
    24   115   116   ar
    25    95    96   ar
    26   110   111    1
    27   110   107    1
    28   135   137   ar
    29   135   132   ar
    30   106   107    1
    31   106    99   am
    32   108   107    1
    33   108   109    2
    34   111   112   ar
    35    98    99    1
    36    98   101    1
    37   130   132   ar
    38   130   131   ar
    39   137   138   ar
    40   121   123    1
    41   121   122    1
    42   132   134   ar
    43    90    88   ar
    44    90    92   ar
    45    88    89   ar
    46    99   100    2
    47   102   101    1
    48   102   103    1
    49   116   114   ar
    50   139   140    1
    51    96    94   ar
    52     9     7   am
    53   131   133   ar
    54   138   136   ar
    55     8     7    2
    56   112   114   ar
    57   134   136   ar
    58   134   133   ar
    59   105   104    1
    60   122   124    1
    61     7     6    1
    62    92    94   ar
    63    92    91   ar
    64    55    56    1
    65   103   104    1
    66    89    91   ar
    67    10    11    1
    68   142   141    2
    69   140   141    1
    70   140   143    1
    71   144   143    1
    72   144   146    1
    73   143   145    1
    74    56    59    1
    75    56    57    1
    76     6     5    1
    77    58    57    2
    78    61    59    1
    79    59    60    1
    80    73    72    1
    81     5     2    1
    82    49    47   am
    83    11    14    1
    84    11    12    1
    85    14    15    1
    86     4     3    2
    87   158   157    2
    88    70    72   ar
    89    70    68   ar
    90    44    45    2
    91    44    43    1
    92    46    47    1
    93    46    43    1
    94    72    71   ar
    95   157   156    1
    96    47    48    2
    97    13    12    2
    98     2     3    1
    99     2     1    1
   100    77    76    2
   101    16    15    1
   102    43    42    1
   103    68    67   ar
   104    15    17    1
   105   159   156    1
   106   159   160    1
   107    76    75    1
   108    71    69   ar
   109   156   155    1
   110    62    63    1
   111    67    69   ar
   112    67    66    1
   113    42    38   am
   114   160   161    1
   115   164   163    1
   116    65    64    2
   117    75    78    1
   118    75    74    1
   119    39    38    2
   120    63    66    1
   121    63    64    1
   122    38    37    1
   123   161   162    1
   124    78    79    1
   125    35    34    1
   126   163   162    2
   127   163   165    1
   128    25    23   ar
   129    22    23    1
   130    22    19    1
   131    18    19    1
   132    81    80    2
   133    34    31    1
   134    23    24   ar
   135    37    36    1
   136    37    40    1
   137    79    80    1
   138    19    20    1
   139    36    32   am
   140    80    82   am
   141   177   176    2
   142    32    31    1
   143    32    33    2
   144    40    41    1
   145    21    20    2
   146   150   149    2
   147    31    30    1
   148   175   176    1
   149   175   174    1
   150   176   178   am
   151   149   148    1
   152    30    28   am
   153    28    29    2
   154    28    27    1
   155   178   179    1
   156   148   147    1
   157   148   151    1
   158   179   180    1
   159   179   182    1
   160    26    27    1
   161   180   181    2
   162   172   171   ar
   163   152   151    1
   164   152   154    1
   165   151   153    1
   166   173   171   ar
   167   183   182    1
   168   171   170    1
   169   182   184    1
   170   169   168    2
   171   168   167    1
   172   170   167    1
   173   167   166    1
   174   194   193    1
   175   195   193    1
   176   193   192    2
   177   192   191    1
   178   191   190    1
   179   190   189    1
   180   189   186    1
   181   185   186    1
   182   186   187    1
   183   187   188    2
