@<TRIPOS>MOLECULE
tmp/5he9A00.pdb
 85 83 0 0 0
SMALL
GASTEIGER

@<TRIPOS>ATOM
      1  N          0.6240   27.3340   87.6410 N.3     5  ARG5       -0.1245
      2  CA         0.1720   26.4920   88.7230 C.3     5  ARG5        0.1563
      3  C         -0.7510   25.4150   88.2010 C.2     5  ARG5        0.2260
      4  O         -0.6690   24.2500   88.6110 O.2     5  ARG5       -0.2867
      5  CB        -0.5240   27.3570   89.7820 C.3     5  ARG5        0.0307
      6  CG        -0.3950   26.8770   91.2220 C.3     5  ARG5        0.0489
      7  CD        -0.6060   28.0370   92.2300 C.3     5  ARG5        0.2205
      8  NE         0.5460   28.9310   92.2370 N.pl3   5  ARG5       -0.0865
      9  CZ         1.6360   28.7530   92.9880 C.cat   5  ARG5        0.5346
     10  NH1        1.7260   27.7180   93.8210 N.pl3   5  ARG5        0.1354
     11  NH2        2.6430   29.6190   92.9060 N.pl3   5  ARG5        0.1354
     12  N         12.1390   32.5050   94.3230 N.3    33  PHE33      -0.1227
     13  CA        12.0170   32.0170   95.6760 C.3    33  PHE33       0.1736
     14  C         10.5840   32.0990   96.1410 C.2    33  PHE33       0.2596
     15  O          9.8990   33.0890   95.8880 O.2    33  PHE33      -0.2718
     16  CB        12.9240   32.8270   96.6110 C.3    33  PHE33       0.0547
     17  CG        14.3680   32.7630   96.2420 C.ar   33  PHE33      -0.0202
     18  CD1       14.9240   33.7110   95.4140 C.ar   33  PHE33      -0.0042
     19  CD2       15.1670   31.7350   96.7110 C.ar   33  PHE33      -0.0042
     20  CE1       16.2470   33.6430   95.0560 C.ar   33  PHE33      -0.0003
     21  CE2       16.4800   31.6560   96.3670 C.ar   33  PHE33      -0.0003
     22  CZ        17.0300   32.6230   95.5260 C.ar   33  PHE33      -0.0000
     23  N         10.1420   31.0480   96.8240 N.am   34  GLY34      -0.1942
     24  CA         8.8610   31.0350   97.5080 C.3    34  GLY34       0.2014
     25  C          7.6170   30.8550   96.6560 C.2    34  GLY34       0.2640
     26  O          6.5340   31.2590   97.0620 O.2    34  GLY34      -0.2714
     27  N          7.7490   30.2540   95.4800 N.am   35  THR35      -0.1936
     28  CA         6.5850   30.0680   94.6260 C.3    35  THR35       0.2028
     29  C          5.8840   28.7380   94.8640 C.2    35  THR35       0.2643
     30  O          4.8540   28.4810   94.2600 O.2    35  THR35      -0.2714
     31  CB         6.9560   30.1730   93.1320 C.3    35  THR35       0.1808
     32  OG1        7.9990   29.2420   92.8160 O.3    35  THR35      -0.2208
     33  CG2        7.4190   31.5680   92.8220 C.3    35  THR35       0.0379
     34  N          6.4370   27.8950   95.7330 N.am   36  GLY36      -0.1939
     35  CA         5.7790   26.6540   96.1130 C.3    36  GLY36       0.2014
     36  C          6.3250   25.3970   95.4450 C.2    36  GLY36       0.2639
     37  O          5.6410   24.3780   95.3800 O.2    36  GLY36      -0.2714
     38  N          7.5650   25.4580   94.9760 N.am   37  LYS37      -0.1963
     39  CA         8.1940   24.3230   94.3160 C.3    37  LYS37       0.1728
     40  C          8.3990   23.1340   95.2960 C.2    37  LYS37       0.2617
     41  O          7.9620   21.9960   95.0410 O.2    37  LYS37      -0.2715
     42  CB         9.5200   24.7750   93.7040 C.3    37  LYS37       0.0311
     43  CG         9.3730   25.9090   92.6800 C.3    37  LYS37       0.0038
     44  CD        10.7070   26.2920   92.0620 C.3    37  LYS37       0.0206
     45  CE        11.7070   26.8630   93.0810 C.3    37  LYS37       0.1093
     46  NZ        11.2330   28.1100   93.7260 N.3    37  LYS37      -0.1314
     47  N          9.0270   23.4220   96.4400 N.am   38  SER38      -0.1936
     48  CA         9.2630   22.3880   97.4450 C.3    38  SER38       0.2055
     49  C          7.9360   21.8510   97.9820 C.2    38  SER38       0.2643
     50  O          7.7730   20.6450   98.2170 O.2    38  SER38      -0.2714
     51  CB        10.1250   22.9400   98.5790 C.3    38  SER38       0.2130
     52  OG        11.3950   23.3040   98.1070 O.3    38  SER38      -0.2179
     53  N          6.9820   22.7570   98.1370 N.am   39  PHE39      -0.1959
     54  CA         5.6520   22.3950   98.5980 C.3    39  PHE39       0.1771
     55  C          5.0140   21.3580   97.6770 C.2    39  PHE39       0.2619
     56  O          4.4630   20.3500   98.1190 O.2    39  PHE39      -0.2715
     57  CB         4.7700   23.6370   98.6820 C.3    39  PHE39       0.0574
     58  CG         3.4060   23.3630   99.2200 C.ar   39  PHE39      -0.0200
     59  CD1        3.1420   23.4850  100.5740 C.ar   39  PHE39      -0.0042
     60  CD2        2.3870   22.9570   98.3750 C.ar   39  PHE39      -0.0042
     61  CE1        1.8790   23.2120  101.0740 C.ar   39  PHE39      -0.0003
     62  CE2        1.1290   22.6880   98.8670 C.ar   39  PHE39      -0.0003
     63  CZ         0.8750   22.8150  100.2160 C.ar   39  PHE39      -0.0000
     64  N          5.1080   21.6090   96.3820 N.am   40  ILE40      -0.1977
     65  CA         4.5490   20.6840   95.4020 C.3    40  ILE40       0.1596
     66  C          5.3100   19.3600   95.3900 C.2    40  ILE40       0.2287
     67  O          4.7070   18.2940   95.2770 O.2    40  ILE40      -0.2864
     68  CB         4.5470   21.3210   93.9880 C.3    40  ILE40       0.0276
     69  CG1        3.4820   22.4210   93.9340 C.3    40  ILE40       0.0022
     70  CG2        4.2450   20.3180   92.9170 C.3    40  ILE40       0.0022
     71  CD1        3.7460   23.4640   92.8940 C.3    40  ILE40       0.0001
     72  N         13.8700   20.5000   92.2040 N.3   123  SER123     -0.1217
     73  CA        13.4690   21.9080   92.2430 C.3   123  SER123      0.1889
     74  C         14.7070   22.7810   92.2960 C.2   123  SER123      0.2288
     75  O         15.7280   22.3900   92.8430 O.2   123  SER123     -0.2866
     76  CB        12.5420   22.2380   93.4130 C.3   123  SER123      0.2089
     77  OG        13.2580   22.2440   94.6180 O.3   123  SER123     -0.2183
     78  N         16.1470   27.2500   91.8000 N.3   125  ASN125     -0.1240
     79  CA        15.9390   28.6250   91.3750 C.3   125  ASN125      0.1653
     80  C         16.5480   28.8860   90.0020 C.2   125  ASN125      0.2266
     81  O         16.3520   29.9630   89.4280 O.2   125  ASN125     -0.2867
     82  CB        16.5260   29.6160   92.3780 C.3   125  ASN125      0.1155
     83  CG        15.8840   29.5080   93.7260 C.2   125  ASN125      0.2627
     84  OD1       16.4660   28.9450   94.6570 O.2   125  ASN125     -0.2716
     85  ND2       14.6500   30.0220   93.8450 N.am  125  ASN125     -0.0877
@<TRIPOS>BOND
     1     1     2    1
     2     3     4    2
     3     3     2    1
     4     2     5    1
     5    81    80    2
     6     5     6    1
     7    80    79    1
     8     6     7    1
     9    79    78    1
    10    79    82    1
    11    44    43    1
    12    44    45    1
    13    72    73    1
    14     7     8    1
    15     8     9    2
    16    73    74    1
    17    73    76    1
    18    74    75    2
    19    82    83    1
    20    43    42    1
    21    32    31    1
    22    33    31    1
    23    71    69    1
    24    11     9    1
    25    70    68    1
    26     9    10    1
    27    45    46    1
    28    31    28    1
    29    76    77    1
    30    42    39    1
    31    83    85   am
    32    83    84    2
    33    69    68    1
    34    68    65    1
    35    30    29    2
    36    39    38    1
    37    39    40    1
    38    12    13    1
    39    28    29    1
    40    28    27    1
    41    29    34   am
    42    38    36   am
    43    41    40    2
    44    20    18   ar
    45    20    22   ar
    46    67    66    2
    47    40    47   am
    48    37    36    2
    49    66    65    1
    50    65    64    1
    51    18    17   ar
    52    36    35    1
    53    27    25   am
    54    22    21   ar
    55    13    14    1
    56    13    16    1
    57    34    35    1
    58    15    14    2
    59    14    23   am
    60    17    16    1
    61    17    19   ar
    62    21    19   ar
    63    64    55   am
    64    47    48    1
    65    25    26    2
    66    25    24    1
    67    23    24    1
    68    48    49    1
    69    48    51    1
    70    55    56    2
    71    55    54    1
    72    49    53   am
    73    49    50    2
    74    52    51    1
    75    53    54    1
    76    60    62   ar
    77    60    58   ar
    78    54    57    1
    79    57    58    1
    80    62    63   ar
    81    58    59   ar
    82    63    61   ar
    83    59    61   ar
