@<TRIPOS>MOLECULE
tmp/5heiA00.pdb
 148 142 0 0 0
SMALL
GASTEIGER

@<TRIPOS>ATOM
      1  N         18.5370  -22.3120  109.2930 N.3    11  HIS11      -0.1226
      2  CA        18.8040  -21.3780  108.2020 C.3    11  HIS11       0.1752
      3  C         20.1050  -20.5920  108.3380 C.2    11  HIS11       0.2596
      4  O         20.3930  -20.0000  109.3830 O.2    11  HIS11      -0.2718
      5  CB        17.6140  -20.4410  107.9260 C.3    11  HIS11       0.0759
      6  CG        17.9220  -19.3820  106.9070 C.ar   11  HIS11       0.0818
      7  ND1       18.0100  -19.6780  105.5540 N.ar   11  HIS11      -0.2268
      8  CD2       18.2140  -18.0730  107.0840 C.ar   11  HIS11       0.1154
      9  CE1       18.3320  -18.5420  104.9580 C.ar   11  HIS11       0.1986
     10  NE2       18.4620  -17.5480  105.8370 N.ar   11  HIS11      -0.2212
     11  N         20.8920  -20.6460  107.2640 N.am   12  ARG12      -0.1966
     12  CA        22.1500  -19.9400  107.0880 C.3    12  ARG12       0.1729
     13  C         22.2490  -19.5560  105.6110 C.2    12  ARG12       0.2616
     14  O         22.0990  -20.4140  104.7360 O.2    12  ARG12      -0.2715
     15  CB        23.3770  -20.7530  107.6080 C.3    12  ARG12       0.0348
     16  CG        23.5740  -22.1720  107.0420 C.3    12  ARG12       0.0492
     17  CD        23.5220  -23.2740  108.0960 C.3    12  ARG12       0.2205
     18  NE        24.6840  -23.2710  108.9890 N.pl3  12  ARG12      -0.0865
     19  CZ        25.1490  -24.3410  109.6310 C.cat  12  ARG12       0.5346
     20  NH1       24.5700  -25.5260  109.4710 N.pl3  12  ARG12       0.1354
     21  NH2       26.2060  -24.2380  110.4270 N.pl3  12  ARG12       0.1354
     22  N         22.3820  -18.2530  105.3350 N.am   13  SER13      -0.1950
     23  CA        22.5190  -17.7580  103.9690 C.3    13  SER13       0.1924
     24  C         23.9820  -17.8850  103.5830 C.2    13  SER13       0.2314
     25  O         24.8620  -17.5890  104.4000 O.2    13  SER13      -0.2863
     26  CB        22.0540  -16.3080  103.8550 C.3    13  SER13       0.2116
     27  OG        20.6430  -16.2060  103.7500 O.3    13  SER13      -0.2180
     28  N         27.2220  -17.1880  100.6480 N.3    15  ARG15      -0.1245
     29  CA        27.7650  -16.3260   99.5910 C.3    15  ARG15       0.1563
     30  C         28.9220  -17.0180   98.8500 C.2    15  ARG15       0.2260
     31  O         29.4430  -16.4850   97.8670 O.2    15  ARG15      -0.2867
     32  CB        28.1570  -14.9460  100.1530 C.3    15  ARG15       0.0307
     33  CG        26.9450  -14.0960  100.5390 C.3    15  ARG15       0.0489
     34  CD        27.3070  -12.9350  101.4440 C.3    15  ARG15       0.2205
     35  NE        26.1730  -12.5490  102.2810 N.pl3  15  ARG15      -0.0865
     36  CZ        25.9010  -13.0770  103.4710 C.cat  15  ARG15       0.5346
     37  NH1       26.6910  -14.0100  103.9890 N.pl3  15  ARG15       0.1354
     38  NH2       24.8330  -12.6800  104.1510 N.pl3  15  ARG15       0.1354
     39  N         28.0530   -7.5030   93.8790 N.3    67  GLN67      -0.1245
     40  CA        28.0450   -8.6560   94.7830 C.3    67  GLN67       0.1566
     41  C         28.5630   -9.8920   94.0560 C.2    67  GLN67       0.2260
     42  O         27.8870  -10.4240   93.1700 O.2    67  GLN67      -0.2867
     43  CB        26.6540   -8.8900   95.3930 C.3    67  GLN67       0.0367
     44  CG        26.1960   -7.7800   96.3340 C.3    67  GLN67       0.0905
     45  CD        24.7670   -7.9570   96.7770 C.2    67  GLN67       0.2608
     46  OE1       24.4280   -8.8910   97.5110 O.2    67  GLN67      -0.2717
     47  NE2       23.9020   -7.0400   96.3730 N.am   67  GLN67      -0.0878
     48  N         28.8540  -12.9820   94.8250 N.3    69  TRP69      -0.1241
     49  CA        28.0110  -14.1720   94.9540 C.3    69  TRP69       0.1605
     50  C         26.9550  -14.3350   93.8630 C.2    69  TRP69       0.2264
     51  O         26.5620  -15.4710   93.5870 O.2    69  TRP69      -0.2867
     52  CB        27.4160  -14.3210   96.3640 C.3    69  TRP69       0.0550
     53  CG        26.9870  -13.0470   97.0270 C.ar   69  TRP69       0.0003
     54  CD1       25.7140  -12.5810   97.1470 C.ar   69  TRP69       0.0946
     55  CD2       27.8200  -12.1290   97.7500 C.ar   69  TRP69       0.0152
     56  NE1       25.7020  -11.4140   97.8730 N.ar   69  TRP69      -0.2442
     57  CE2       26.9820  -11.1150   98.2590 C.ar   69  TRP69       0.0810
     58  CE3       29.2000  -12.0620   98.0150 C.ar   69  TRP69       0.0012
     59  CZ2       27.4760  -10.0330   98.9990 C.ar   69  TRP69       0.0191
     60  CZ3       29.6870  -10.9960   98.7540 C.ar   69  TRP69       0.0001
     61  CH2       28.8300   -9.9970   99.2380 C.ar   69  TRP69       0.0015
     62  N          9.3720  -15.8390   98.0310 N.3   117  LEU117     -0.1245
     63  CA        10.8160  -15.9430   98.2310 C.3   117  LEU117      0.1561
     64  C         11.1330  -16.9570   99.3320 C.2   117  LEU117      0.2260
     65  O         11.9770  -17.8290   99.1290 O.2   117  LEU117     -0.2867
     66  CB        11.3920  -14.5660   98.5720 C.3   117  LEU117      0.0270
     67  CG        12.8920  -14.3870   98.4320 C.3   117  LEU117      0.0019
     68  CD1       13.2140  -13.0750   97.7490 C.3   117  LEU117      0.0001
     69  CD2       13.5690  -14.4290   99.7860 C.3   117  LEU117      0.0001
     70  N         20.5040  -16.8850   99.2130 N.3   132  VAL132     -0.1231
     71  CA        20.7340  -15.5440   99.7390 C.3   132  VAL132      0.1678
     72  C         19.8690  -14.5530   98.9350 C.2   132  VAL132      0.2434
     73  O         20.0450  -14.4490   97.7180 O.2   132  VAL132     -0.2733
     74  CB        22.2220  -15.1110   99.9350 C.3   132  VAL132      0.0265
     75  CG1       22.9780  -14.9840   98.6140 C.3   132  VAL132      0.0020
     76  CG2       22.3230  -13.8250  100.7520 C.3   132  VAL132      0.0020
     77  N         18.8710  -13.8880   99.5680 N.am  133  PRO133     -0.2718
     78  CA        18.0540  -12.9210   98.8190 C.3   133  PRO133      0.1535
     79  C         18.8780  -11.6840   98.4690 C.2   133  PRO133      0.2598
     80  O         19.8320  -11.3740   99.1820 O.2   133  PRO133     -0.2715
     81  CB        16.9190  -12.5750   99.7940 C.3   133  PRO133      0.0310
     82  CG        17.0450  -13.5600  100.9330 C.3   133  PRO133      0.0237
     83  CD        18.4870  -13.9080  100.9910 C.3   133  PRO133      0.0939
     84  N         18.5570  -11.0100   97.3530 N.am  134  ILE134     -0.1964
     85  CA        19.2820   -9.8060   96.9390 C.3   134  ILE134      0.1727
     86  C         18.3230   -8.6210   96.8360 C.2   134  ILE134      0.2617
     87  O         17.7960   -8.3320   95.7560 O.2   134  ILE134     -0.2715
     88  CB        20.1900   -9.9960   95.6770 C.3   134  ILE134      0.0290
     89  CG1       21.0900  -11.2560   95.7590 C.3   134  ILE134      0.0022
     90  CG2       21.0030   -8.7310   95.3470 C.3   134  ILE134      0.0023
     91  CD1       22.2710  -11.3010   96.8390 C.3   134  ILE134      0.0001
     92  N         18.1190   -7.9480   97.9720 N.am  135  GLY135     -0.1940
     93  CA        17.2850   -6.7530   98.0880 C.3   135  GLY135      0.2014
     94  C         17.8990   -5.5650   97.3750 C.2   135  GLY135      0.2639
     95  O         17.2210   -4.5530   97.1520 O.2   135  GLY135     -0.2714
     96  N         19.1790   -5.7250   96.9970 N.am  136  GLY136     -0.1954
     97  CA        19.9930   -4.7650   96.2620 C.3   136  GLY136      0.1869
     98  C         19.5370   -4.4930   94.8400 C.2   136  GLY136      0.2309
     99  O         20.0620   -3.5870   94.1900 O.2   136  GLY136     -0.2863
    100  N         16.9910   -3.0440   94.0090 N.3   138  ARG138     -0.1245
    101  CA        16.3680   -1.7260   94.0930 C.3   138  ARG138      0.1563
    102  C         17.4130   -0.5890   94.1560 C.2   138  ARG138      0.2260
    103  O         17.0370    0.5700   94.3580 O.2   138  ARG138     -0.2867
    104  CB        15.3920   -1.6650   95.2800 C.3   138  ARG138      0.0307
    105  CG        14.0760   -2.4080   95.0370 C.3   138  ARG138      0.0489
    106  CD        13.3210   -2.6280   96.3290 C.3   138  ARG138      0.2205
    107  NE        13.9670   -3.6380   97.1670 N.pl3 138  ARG138     -0.0865
    108  CZ        13.8390   -3.7130   98.4860 C.cat 138  ARG138      0.5346
    109  NH1       13.0980   -2.8280   99.1400 N.pl3 138  ARG138      0.1354
    110  NH2       14.4600   -4.6680   99.1640 N.pl3 138  ARG138      0.1354
    111  N         12.8290   -8.3270   95.1450 N.3   158  SER158     -0.1217
    112  CA        14.0810   -8.9050   95.6410 C.3   158  SER158      0.1889
    113  C         14.5450  -10.0640   94.7660 C.2   158  SER158      0.2288
    114  O         13.7320  -10.7730   94.1680 O.2   158  SER158     -0.2866
    115  CB        13.9230   -9.3730   97.0890 C.3   158  SER158      0.2089
    116  OG        15.1210   -9.9080   97.6310 O.3   158  SER158     -0.2183
    117  N         23.5620  -16.8460  112.0420 N.3   172  LYS172     -0.1245
    118  CA        23.6390  -15.5070  112.6350 C.3   172  LYS172      0.1561
    119  C         22.6140  -15.4620  113.7840 C.2   172  LYS172      0.2260
    120  O         21.4380  -15.7580  113.5390 O.2   172  LYS172     -0.2867
    121  CB        23.2930  -14.4140  111.6000 C.3   172  LYS172      0.0271
    122  CG        24.4710  -13.7530  110.9140 C.3   172  LYS172      0.0035
    123  CD        23.9690  -12.6450  109.9980 C.3   172  LYS172      0.0206
    124  CE        25.0220  -12.1070  109.0610 C.3   172  LYS172      0.1093
    125  NZ        25.7350  -10.9440  109.6430 N.3   172  LYS172     -0.1314
    126  N         19.6950  -14.3480  116.3370 N.3   174  ARG174     -0.1245
    127  CA        18.5310  -13.4730  116.1630 C.3   174  ARG174      0.1563
    128  C         18.1350  -12.7980  117.4770 C.2   174  ARG174      0.2260
    129  O         18.5610  -13.2390  118.5490 O.2   174  ARG174     -0.2867
    130  CB        17.3350  -14.2440  115.5550 C.3   174  ARG174      0.0307
    131  CG        17.5800  -14.8610  114.1720 C.3   174  ARG174      0.0489
    132  CD        17.7220  -13.8360  113.0530 C.3   174  ARG174      0.2205
    133  NE        17.5770  -14.4550  111.7340 N.pl3 174  ARG174     -0.0865
    134  CZ        18.5830  -14.9380  111.0080 C.cat 174  ARG174      0.5346
    135  NH1       19.8300  -14.8740  111.4620 N.pl3 174  ARG174      0.1354
    136  NH2       18.3490  -15.4900  109.8250 N.pl3 174  ARG174      0.1354
    137  N         18.3650    3.9060   99.1020 N.3   230  TYR230     -0.1241
    138  CA        17.8200    3.6580   97.7650 C.3   230  TYR230      0.1605
    139  C         16.8200    4.7630   97.3800 C.2   230  TYR230      0.2264
    140  O         15.6390    4.6920   97.7420 O.2   230  TYR230     -0.2867
    141  CB        17.2390    2.2360   97.6220 C.3   230  TYR230      0.0534
    142  CG        18.2580    1.1120   97.6840 C.ar  230  TYR230     -0.0201
    143  CD1       19.6010    1.3390   97.3850 C.ar  230  TYR230     -0.0009
    144  CD2       17.8710   -0.1920   97.9820 C.ar  230  TYR230     -0.0009
    145  CE1       20.5420    0.3130   97.4520 C.ar  230  TYR230      0.0417
    146  CE2       18.7990   -1.2330   98.0260 C.ar  230  TYR230      0.0417
    147  CZ        20.1350   -0.9760   97.7540 C.ar  230  TYR230      0.1957
    148  OH        21.0610   -1.9940   97.7960 O.3   230  TYR230     -0.2866
@<TRIPOS>BOND
     1    42    41    2
     2    51    50    2
     3    50    49    1
     4    39    40    1
     5   100   101    1
     6    41    40    1
     7   101   102    1
     8   101   104    1
     9   102   103    2
    10   114   113    2
    11    99    98    2
    12   113   112    1
    13    40    43    1
    14    48    49    1
    15    98    97    1
    16    49    52    1
    17   105   104    1
    18   105   106    1
    19   111   112    1
    20    90    88    1
    21    43    44    1
    22   112   115    1
    23    88    89    1
    24    88    85    1
    25    87    86    2
    26    89    91    1
    27    97    96    1
    28   106   107    1
    29    44    45    1
    30    52    53    1
    31    47    45   am
    32    45    46    2
    33    86    85    1
    34    86    92   am
    35    85    84    1
    36    96    94   am
    37    53    54   ar
    38    53    55   ar
    39   115   116    1
    40    54    56   ar
    41    95    94    2
    42   107   108    2
    43    84    79   am
    44    94    93    1
    45   139   140    2
    46   139   138    1
    47   143   145   ar
    48   143   142   ar
    49   145   147   ar
    50   141   142    1
    51   141   138    1
    52   142   144   ar
    53    73    72    2
    54    68    67    1
    55    55    58   ar
    56    55    57   ar
    57   147   148    1
    58   147   146   ar
    59   138   137    1
    60    31    30    2
    61    56    57   ar
    62    92    93    1
    63   144   146   ar
    64    58    60   ar
    65    62    63    1
    66    63    66    1
    67    63    64    1
    68    57    59   ar
    69    67    66    1
    70    67    69    1
    71    79    78    1
    72    79    80    2
    73   108   109    1
    74   108   110    1
    75    75    74    1
    76    60    61   ar
    77    78    77    1
    78    78    81    1
    79    30    29    1
    80    72    77   am
    81    72    71    1
    82    59    61   ar
    83    65    64    2
    84    70    71    1
    85    77    83    1
    86    29    32    1
    87    29    28    1
    88    71    74    1
    89    81    82    1
    90    74    76    1
    91    32    33    1
    92    33    34    1
    93    82    83    1
    94    34    35    1
    95    35    36    2
    96    36    37    1
    97    36    38    1
    98    24    23    1
    99    24    25    2
   100    27    26    1
   101    26    23    1
   102    23    22    1
   103    14    13    2
   104     9     7   ar
   105     9    10   ar
   106    22    13   am
   107     7     6   ar
   108    13    12    1
   109    10     8   ar
   110     6     8   ar
   111     6     5    1
   112    16    15    1
   113    16    17    1
   114    12    11    1
   115    12    15    1
   116    11     3   am
   117     5     2    1
   118    17    18    1
   119     2     3    1
   120     2     1    1
   121     3     4    2
   122    18    19    2
   123   124   125    1
   124   124   123    1
   125    20    19    1
   126    19    21    1
   127   136   134    1
   128   123   122    1
   129   122   121    1
   130   134   135    1
   131   134   133    2
   132   121   118    1
   133   133   132    1
   134   117   118    1
   135   118   119    1
   136   132   131    1
   137   120   119    2
   138   131   130    1
   139   130   127    1
   140   127   126    1
   141   127   128    1
   142   128   129    2
