@<TRIPOS>MOLECULE
tmp/5heiA01.pdb
 67 64 0 0 0
SMALL
GASTEIGER

@<TRIPOS>ATOM
      1  N          2.8580  -22.6390   95.1210 N.3    36  SER36      -0.1202
      2  CA         2.0320  -23.3420   96.1050 C.3    36  SER36       0.2020
      3  C          1.6910  -22.5070   97.3460 C.2    36  SER36       0.2619
      4  O          0.7300  -22.8250   98.0440 O.2    36  SER36      -0.2717
      5  CB         2.6880  -24.6590   96.5060 C.3    36  SER36       0.2103
      6  OG         2.6950  -25.5730   95.4220 O.3    36  SER36      -0.2182
      7  N          2.4650  -21.4440   97.6120 N.am   37  ALA37      -0.1965
      8  CA         2.2710  -20.5340   98.7430 C.3    37  ALA37       0.1728
      9  C          1.0150  -19.6590   98.5870 C.2    37  ALA37       0.2616
     10  O          0.5090  -19.4840   97.4740 O.2    37  ALA37      -0.2715
     11  CB         3.5060  -19.6650   98.9210 C.3    37  ALA37       0.0334
     12  N          0.5220  -19.1140   99.7140 N.am   38  ALA38      -0.1963
     13  CA        -0.6560  -18.2480   99.7720 C.3    38  ALA38       0.1728
     14  C         -0.4140  -16.8950   99.0860 C.2    38  ALA38       0.2617
     15  O          0.7120  -16.3840   99.1090 O.2    38  ALA38      -0.2715
     16  CB        -1.0630  -18.0330  101.2210 C.3    38  ALA38       0.0334
     17  N         -1.4730  -16.3250   98.4730 N.am   39  SER39      -0.1936
     18  CA        -1.4390  -15.0310   97.7770 C.3    39  SER39       0.2055
     19  C         -2.7100  -14.2440   98.0690 C.2    39  SER39       0.2644
     20  O         -3.7770  -14.8510   98.1690 O.2    39  SER39      -0.2714
     21  CB        -1.2710  -15.2260   96.2710 C.3    39  SER39       0.2130
     22  OG        -2.1880  -16.1590   95.7240 O.3    39  SER39      -0.2179
     23  N         -2.6080  -12.9040   98.2170 N.am   40  SER40      -0.1935
     24  CA        -3.7630  -12.0390   98.4980 C.3    40  SER40       0.2055
     25  C         -4.8220  -12.1910   97.4030 C.2    40  SER40       0.2643
     26  O         -4.5000  -12.0270   96.2230 O.2    40  SER40      -0.2714
     27  CB        -3.3340  -10.5810   98.6280 C.3    40  SER40       0.2130
     28  OG        -4.3820   -9.7590   99.1170 O.3    40  SER40      -0.2179
     29  N         -6.0630  -12.5810   97.8050 N.am   41  ILE41      -0.1963
     30  CA        -7.2490  -12.8250   96.9580 C.3    41  ILE41       0.1727
     31  C         -7.0340  -13.8380   95.7990 C.2    41  ILE41       0.2616
     32  O         -7.8040  -13.8520   94.8310 O.2    41  ILE41      -0.2715
     33  CB        -8.0300  -11.5220   96.5580 C.3    41  ILE41       0.0290
     34  CG1       -7.2600  -10.6110   95.5610 C.3    41  ILE41       0.0022
     35  CG2       -8.4930  -10.7370   97.7900 C.3    41  ILE41       0.0023
     36  CD1       -7.7700  -10.6280   94.1300 C.3    41  ILE41       0.0001
     37  N         -6.0030  -14.7140   95.9360 N.am   42  ASN42      -0.1972
     38  CA        -5.5400  -15.7040   94.9470 C.3    42  ASN42       0.1688
     39  C         -5.1890  -15.0330   93.5970 C.2    42  ASN42       0.2292
     40  O         -5.3040  -15.6460   92.5300 O.2    42  ASN42      -0.2864
     41  CB        -6.4970  -16.9030   94.8000 C.3    42  ASN42       0.1181
     42  CG        -5.8660  -18.0950   94.1180 C.2    42  ASN42       0.2629
     43  OD1       -4.9840  -18.7600   94.6650 O.2    42  ASN42      -0.2716
     44  ND2       -6.2650  -18.3540   92.8820 N.am   42  ASN42      -0.0877
     45  N          4.4970   -7.8200   99.9690 N.3   111  THR111     -0.1203
     46  CA         4.2270   -8.8690  100.9520 C.3   111  THR111      0.1994
     47  C          4.1580  -10.2400  100.2790 C.2   111  THR111      0.2617
     48  O          4.7450  -11.1860  100.7970 O.2   111  THR111     -0.2717
     49  CB         3.0750   -8.4960  101.9160 C.3   111  THR111      0.1784
     50  OG1        3.3430   -9.0520  103.2010 O.3   111  THR111     -0.2211
     51  CG2        1.6990   -8.9380  101.4390 C.3   111  THR111      0.0376
     52  N          3.4950  -10.3210   99.0970 N.am  112  ASP112     -0.1973
     53  CA         3.3470  -11.5420   98.2980 C.3   112  ASP112      0.1709
     54  C          4.6980  -12.0570   97.7900 C.2   112  ASP112      0.2293
     55  O          4.9070  -13.2700   97.7640 O.2   112  ASP112     -0.2864
     56  CB         2.3720  -11.3270   97.1230 C.3   112  ASP112      0.1436
     57  CG         0.9010  -11.5900   97.4220 C.2   112  ASP112      0.3671
     58  OD1        0.4080  -11.1110   98.4740 O.co2 112  ASP112     -0.2456
     59  OD2        0.2250  -12.2060   96.5690 O.co2 112  ASP112     -0.2456
     60  N          6.5710  -13.7720  100.6200 N.3   115  ILE115     -0.1245
     61  CA         5.9660  -15.0890  100.8460 C.3   115  ILE115      0.1561
     62  C          6.5560  -16.0990   99.8380 C.2   115  ILE115      0.2260
     63  O          7.0180  -17.1720  100.2400 O.2   115  ILE115     -0.2867
     64  CB         4.4090  -14.9870  100.7760 C.3   115  ILE115      0.0252
     65  CG1        3.8410  -14.2650  102.0220 C.3   115  ILE115      0.0019
     66  CG2        3.7400  -16.3580  100.5860 C.3   115  ILE115      0.0019
     67  CD1        2.5330  -13.5290  101.8170 C.3   115  ILE115      0.0001
@<TRIPOS>BOND
     1    40    39    2
     2    44    42   am
     3    39    38    1
     4    42    43    2
     5    42    41    1
     6    36    34    1
     7    41    38    1
     8    32    31    2
     9    38    37    1
    10     1     2    1
    11     6     5    1
    12    34    33    1
    13    22    21    1
    14    31    37   am
    15    31    30    1
    16     2     5    1
    17     2     3    1
    18    26    25    2
    19    21    18    1
    20    33    30    1
    21    33    35    1
    22    59    57   ar
    23    30    29    1
    24    56    57    1
    25    56    53    1
    26     3     7   am
    27     3     4    2
    28    25    29   am
    29    25    24    1
    30    57    58   ar
    31    10     9    2
    32     7     8    1
    33    55    54    2
    34    18    19    1
    35    18    17    1
    36    54    53    1
    37    19    20    2
    38    19    23   am
    39    23    24    1
    40    53    52    1
    41    17    14   am
    42    24    27    1
    43     9     8    1
    44     9    12   am
    45    27    28    1
    46     8    11    1
    47    14    15    2
    48    14    13    1
    49    52    47   am
    50    12    13    1
    51    13    16    1
    52    62    63    2
    53    62    61    1
    54    45    46    1
    55    47    48    2
    56    47    46    1
    57    66    64    1
    58    60    61    1
    59    64    61    1
    60    64    65    1
    61    46    49    1
    62    51    49    1
    63    67    65    1
    64    49    50    1
