@<TRIPOS>MOLECULE
tmp/5hesA00.pdb
 169 159 0 0 0
SMALL
GASTEIGER

@<TRIPOS>ATOM
      1  N         22.5570   70.4530   -6.1780 N.3    17  CYS17      -0.1221
      2  CA        23.9450   70.7740   -6.3560 C.3    17  CYS17       0.1808
      3  C         24.6410   69.6720   -7.1320 C.2    17  CYS17       0.2601
      4  O         24.5370   68.4660   -6.8080 O.2    17  CYS17      -0.2717
      5  CB        24.5930   70.7730   -4.9560 C.3    17  CYS17       0.0970
      6  SG        24.0200   72.1160   -3.9530 S.3    17  CYS17      -0.0800
      7  N         25.3870   70.0780   -8.1360 N.am   18  GLY18      -0.1957
      8  CA        26.1860   69.0980   -8.8630 C.3    18  GLY18       0.1869
      9  C         25.3720   68.1560   -9.7100 C.2    18  GLY18       0.2309
     10  O         25.7960   67.0380   -9.8620 O.2    18  GLY18      -0.2863
     11  N         26.0780   64.7910   -5.6810 N.3    22  PHE22      -0.1241
     12  CA        26.3390   64.9170   -4.2190 C.3    22  PHE22       0.1605
     13  C         25.0430   64.5780   -3.4170 C.2    22  PHE22       0.2264
     14  O         24.9780   64.9480   -2.2900 O.2    22  PHE22      -0.2867
     15  CB        26.9020   66.3530   -3.8530 C.3    22  PHE22       0.0534
     16  CG        28.1200   66.7130   -4.6040 C.ar   22  PHE22      -0.0203
     17  CD1       29.3900   66.4610   -4.0960 C.ar   22  PHE22      -0.0042
     18  CD2       28.0450   67.2460   -5.8820 C.ar   22  PHE22      -0.0042
     19  CE1       30.5950   66.7650   -4.8510 C.ar   22  PHE22      -0.0003
     20  CE2       29.2530   67.5630   -6.6780 C.ar   22  PHE22      -0.0003
     21  CZ        30.5310   67.3090   -6.1370 C.ar   22  PHE22      -0.0000
     22  N         21.0610   67.3140   -1.9040 N.3    25  VAL25      -0.1245
     23  CA        21.5290   68.6210   -1.4750 C.3    25  VAL25       0.1561
     24  C         21.2280   69.6810   -2.4660 C.2    25  VAL25       0.2260
     25  O         21.4170   69.4400   -3.6910 O.2    25  VAL25      -0.2867
     26  CB        23.0390   68.5860   -1.2870 C.3    25  VAL25       0.0252
     27  CG1       23.5440   69.9470   -0.6950 C.3    25  VAL25       0.0019
     28  CG2       23.3310   67.4990   -0.2100 C.3    25  VAL25       0.0019
     29  N         22.6660   76.0110    2.1010 N.3    38  ALA38      -0.1245
     30  CA        22.5120   74.6650    1.5550 C.3    38  ALA38       0.1562
     31  C         21.4890   73.8920    2.3940 C.2    38  ALA38       0.2260
     32  O         21.4560   74.1240    3.6140 O.2    38  ALA38      -0.2867
     33  CB        23.8510   73.9700    1.6180 C.3    38  ALA38       0.0290
     34  N         20.2560   69.8910    2.7820 N.3    40  LYS40      -0.1245
     35  CA        20.1220   68.4670    2.5910 C.3    40  LYS40       0.1561
     36  C         18.8070   67.8790    3.0260 C.2    40  LYS40       0.2260
     37  O         18.4190   67.8720    4.2420 O.2    40  LYS40      -0.2867
     38  CB        21.1780   67.7790    3.3060 C.3    40  LYS40       0.0271
     39  CG        21.1190   66.2940    3.1470 C.3    40  LYS40       0.0035
     40  CD        22.4610   65.8470    3.7350 C.3    40  LYS40       0.0206
     41  CE        22.6010   64.3760    3.8260 C.3    40  LYS40       0.1093
     42  NZ        24.0030   64.1430    4.3620 N.3    40  LYS40      -0.1314
     43  N         24.9380   68.5830   16.1140 N.3    52  LEU52      -0.1245
     44  CA        25.3390   69.6310   15.1350 C.3    52  LEU52       0.1561
     45  C         25.3330   71.0230   15.7800 C.2    52  LEU52       0.2260
     46  O         26.1590   71.8410   15.4530 O.2    52  LEU52      -0.2867
     47  CB        24.3820   69.6030   13.9390 C.3    52  LEU52       0.0270
     48  CG        24.5140   68.2930   13.1170 C.3    52  LEU52       0.0019
     49  CD1       23.5390   68.2710   11.9840 C.3    52  LEU52       0.0001
     50  CD2       25.9410   67.9300   12.6840 C.3    52  LEU52       0.0001
     51  N         31.7600   73.2900    7.9130 N.3    61  ILE61      -0.1245
     52  CA        30.6230   74.0120    7.4380 C.3    61  ILE61       0.1561
     53  C         29.7300   74.4040    8.6390 C.2    61  ILE61       0.2260
     54  O         29.4790   73.5760    9.4870 O.2    61  ILE61      -0.2867
     55  CB        29.9310   73.1840    6.3350 C.3    61  ILE61       0.0252
     56  CG1       29.0820   74.0500    5.4660 C.3    61  ILE61       0.0019
     57  CG2       29.0980   72.0740    6.7670 C.3    61  ILE61       0.0019
     58  CD1       30.0040   74.8090    4.5340 C.3    61  ILE61       0.0001
     59  N         26.4670   74.8680   10.7300 N.3    63  PHE63      -0.1241
     60  CA        25.0510   74.3750   10.9840 C.3    63  PHE63       0.1605
     61  C         24.1750   75.4870   11.1920 C.2    63  PHE63       0.2264
     62  O         24.4960   76.3540   11.9690 O.2    63  PHE63      -0.2867
     63  CB        25.0660   73.4110   12.1650 C.3    63  PHE63       0.0534
     64  CG        23.7260   72.9360   12.5640 C.ar   63  PHE63      -0.0203
     65  CD1       22.9990   72.1460   11.7480 C.ar   63  PHE63      -0.0042
     66  CD2       23.1970   73.3570   13.7840 C.ar   63  PHE63      -0.0042
     67  CE1       21.6590   71.7830   12.0100 C.ar   63  PHE63      -0.0003
     68  CE2       21.8690   72.9920   14.0890 C.ar   63  PHE63      -0.0003
     69  CZ        21.0980   72.1930   13.2340 C.ar   63  PHE63      -0.0000
     70  N         18.6210   69.2530    6.7880 N.3    75  ILE75      -0.1301
     71  CA        19.5950   69.9940    7.5750 C.3    75  ILE75       0.1246
     72  C         20.0060   71.1710    6.7250 C.3    75  ILE75       0.2009
     73  O         20.2990   70.9490    5.4890 O.3    75  ILE75      -0.2188
     74  CB        20.8270   69.0850    7.9020 C.3    75  ILE75       0.0202
     75  CG1       20.3100   68.0220    8.8750 C.3    75  ILE75       0.0015
     76  CG2       21.9680   69.8520    8.5510 C.3    75  ILE75       0.0016
     77  CD1       21.2910   66.8710    8.9070 C.3    75  ILE75       0.0000
     78  N         22.4870   74.4890    6.2740 N.3    77  THR77      -0.1203
     79  CA        23.8030   75.0040    6.6450 C.3    77  THR77       0.1994
     80  C         24.2820   76.1830    5.8100 C.2    77  THR77       0.2618
     81  O         23.6300   76.6530    4.8230 O.2    77  THR77      -0.2717
     82  CB        24.8580   73.9150    6.4480 C.3    77  THR77       0.1784
     83  OG1       25.1300   73.6550    5.0590 O.3    77  THR77      -0.2211
     84  CG2       24.4630   72.5680    7.0280 C.3    77  THR77       0.0376
     85  N         25.4190   76.6650    6.1640 N.am   78  GLU78      -0.1965
     86  CA        26.2070   77.5470    5.2420 C.3    78  GLU78       0.1733
     87  C         26.3450   76.9360    3.7990 C.2    78  GLU78       0.2616
     88  O         26.6440   75.8130    3.6390 O.2    78  GLU78      -0.2715
     89  CB        27.6050   77.6340    5.8240 C.3    78  GLU78       0.0429
     90  CG        28.6320   78.5740    5.1800 C.3    78  GLU78       0.1163
     91  CD        29.9920   78.4610    5.9010 C.2    78  GLU78       0.3649
     92  OE1       30.8090   79.2490    5.4520 O.co2  78  GLU78      -0.2457
     93  OE2       30.2560   77.5900    6.8860 O.co2  78  GLU78      -0.2457
     94  N         26.1880   77.7750    2.7710 N.am   79  TYR79      -0.1960
     95  CA        26.4700   77.3830    1.3610 C.3    79  TYR79       0.1771
     96  C         27.8600   77.8990    0.9870 C.2    79  TYR79       0.2619
     97  O         28.1180   79.0510    1.0800 O.2    79  TYR79      -0.2715
     98  CB        25.4500   78.0030    0.4360 C.3    79  TYR79       0.0574
     99  CG        25.6610   77.5620   -1.0380 C.ar   79  TYR79      -0.0198
    100  CD1       25.3120   76.2660   -1.4420 C.ar   79  TYR79      -0.0009
    101  CD2       26.2330   78.3860   -1.9640 C.ar   79  TYR79      -0.0009
    102  CE1       25.5110   75.8440   -2.7240 C.ar   79  TYR79       0.0417
    103  CE2       26.4780   77.9200   -3.2780 C.ar   79  TYR79       0.0417
    104  CZ        26.0950   76.6540   -3.6290 C.ar   79  TYR79       0.1957
    105  OH        26.2550   76.0550   -4.8710 O.3    79  TYR79      -0.2866
    106  N         28.7590   77.0200    0.6260 N.am   80  ALA80      -0.1977
    107  CA        30.0850   77.4190    0.2770 C.3    80  ALA80       0.1597
    108  C         30.1260   77.7520   -1.2900 C.2    80  ALA80       0.2287
    109  O         29.9730   76.8530   -2.0980 O.2    80  ALA80      -0.2864
    110  CB        30.9920   76.2700    0.6010 C.3    80  ALA80       0.0319
    111  N         32.0610   75.8450   -4.1710 N.3    83  GLY83      -0.1210
    112  CA        31.7260   74.4430   -4.5150 C.3    83  GLY83       0.1956
    113  C         32.6620   73.4430   -3.8910 C.2    83  GLY83       0.2612
    114  O         33.3280   73.6830   -2.8660 O.2    83  GLY83      -0.2717
    115  N         32.6110   72.2420   -4.4150 N.am   84  SER84      -0.1952
    116  CA        33.3370   71.0670   -3.9560 C.3    84  SER84       0.1924
    117  C         34.7650   71.1530   -4.2700 C.2    84  SER84       0.2314
    118  O         35.1560   71.5150   -5.4090 O.2    84  SER84      -0.2863
    119  CB        32.8220   69.8620   -4.7930 C.3    84  SER84       0.2116
    120  OG        33.5440   68.6750   -4.6310 O.3    84  SER84      -0.2180
    121  N         35.5900   68.8970   -7.3420 N.3    87  ASP87      -0.1239
    122  CA        35.3510   69.5560   -8.6500 C.3    87  ASP87       0.1674
    123  C         36.4080   70.5660   -9.0190 C.2    87  ASP87       0.2266
    124  O         36.8190   70.6460  -10.1610 O.2    87  ASP87      -0.2867
    125  CB        34.0630   70.2830   -8.7310 C.3    87  ASP87       0.1410
    126  CG        32.8140   69.3690   -8.7330 C.2    87  ASP87       0.3668
    127  OD1       32.9260   68.1570   -8.8680 O.co2  87  ASP87      -0.2456
    128  OD2       31.6800   69.8760   -8.5280 O.co2  87  ASP87      -0.2456
    129  N         34.2850   71.4400    0.9870 N.3   135  VAL135     -0.1245
    130  CA        33.7810   72.4640    0.0780 C.3   135  VAL135      0.1561
    131  C         34.5950   73.6830    0.2950 C.2   135  VAL135      0.2260
    132  O         35.3330   73.7160    1.2950 O.2   135  VAL135     -0.2867
    133  CB        32.2760   72.7610    0.2570 C.3   135  VAL135      0.0252
    134  CG1       31.4600   71.5770   -0.1800 C.3   135  VAL135      0.0019
    135  CG2       31.9480   73.1600    1.7430 C.3   135  VAL135      0.0019
    136  N         32.4320   68.8170    5.6180 N.3   145  CYS145     -0.1221
    137  CA        31.0830   68.5480    5.8930 C.3   145  CYS145      0.1808
    138  C         30.6830   67.1200    5.8680 C.2   145  CYS145      0.2601
    139  O         31.5430   66.3370    5.7520 O.2   145  CYS145     -0.2717
    140  CB        30.2110   69.3860    5.0600 C.3   145  CYS145      0.0970
    141  SG        30.5400   69.7520    3.3970 S.3   145  CYS145     -0.0800
    142  N         29.4060   66.8040    6.0980 N.am  146  ASP146     -0.1959
    143  CA        28.9400   65.4550    6.0490 C.3   146  ASP146      0.1840
    144  C         29.3950   64.5860    7.2180 C.2   146  ASP146      0.2622
    145  O         29.4050   63.3930    7.2130 O.2   146  ASP146     -0.2715
    146  CB        29.4650   64.8660    4.7420 C.3   146  ASP146      0.1450
    147  CG        28.5520   63.9030    4.1870 C.2   146  ASP146      0.3671
    148  OD1       27.4820   64.3660    3.7420 O.co2 146  ASP146     -0.2456
    149  OD2       28.8840   62.7080    4.2510 O.co2 146  ASP146     -0.2456
    150  N         29.8020   65.2150    8.2450 N.am  147  PHE147     -0.1960
    151  CA        30.3010   64.5290    9.4160 C.3   147  PHE147      0.1771
    152  C         29.1190   64.0080   10.2660 C.2   147  PHE147      0.2620
    153  O         29.3180   63.1780   11.0460 O.2   147  PHE147     -0.2715
    154  CB        31.2780   65.3760   10.2400 C.3   147  PHE147      0.0574
    155  CG        30.9030   66.7590   10.4220 C.ar  147  PHE147     -0.0200
    156  CD1       30.0140   67.1460   11.3810 C.ar  147  PHE147     -0.0042
    157  CD2       31.4050   67.7230    9.6220 C.ar  147  PHE147     -0.0042
    158  CE1       29.7040   68.4500   11.5690 C.ar  147  PHE147     -0.0003
    159  CE2       30.9910   69.0360    9.7140 C.ar  147  PHE147     -0.0003
    160  CZ        30.1360   69.4120   10.7420 C.ar  147  PHE147     -0.0000
    161  N         27.9000   64.4420   10.0250 N.am  148  GLY148     -0.1940
    162  CA        26.6890   63.9010   10.6620 C.3   148  GLY148      0.2014
    163  C         25.8270   63.0180    9.7460 C.2   148  GLY148      0.2638
    164  O         24.6860   62.7010   10.1310 O.2   148  GLY148     -0.2714
    165  N         26.3110   62.6630    8.5180 N.am  149  ALA149     -0.1977
    166  CA        25.5950   61.6840    7.6700 C.3   149  ALA149      0.1597
    167  C         25.4420   60.2650    8.3320 C.2   149  ALA149      0.2287
    168  O         24.3570   59.6300    8.1600 O.2   149  ALA149     -0.2864
    169  CB        26.2430   61.5630    6.2430 C.3   149  ALA149      0.0319
@<TRIPOS>BOND
     1   124   123    2
     2    10     9    2
     3     9     8    1
     4   123   122    1
     5   127   126   ar
     6     8     7    1
     7   126   125    1
     8   126   128   ar
     9   125   122    1
    10   122   121    1
    11     7     3   am
    12     3     4    2
    13     3     2    1
    14    20    21   ar
    15    20    18   ar
    16     2     1    1
    17     2     5    1
    18    21    19   ar
    19    18    16   ar
    20    11    12    1
    21   118   117    2
    22     5     6    1
    23   105   104    1
    24    19    17   ar
    25   119   120    1
    26   119   116    1
    27    16    17   ar
    28    16    15    1
    29   112   111    1
    30   112   113    1
    31   115   116    1
    32   115   113   am
    33   117   116    1
    34    12    15    1
    35    12    13    1
    36   113   114    2
    37    25    24    2
    38   104   103   ar
    39   104   102   ar
    40    13    14    2
    41   103   101   ar
    42   102   100   ar
    43    24    23    1
    44   109   108    2
    45   101    99   ar
    46    22    23    1
    47    23    26    1
    48   100    99   ar
    49   108   107    1
    50    26    27    1
    51    26    28    1
    52    99    98    1
    53   134   133    1
    54   130   133    1
    55   130   131    1
    56   130   129    1
    57   133   135    1
    58   107   110    1
    59   107   106    1
    60   131   132    2
    61    98    95    1
    62   106    96   am
    63    96    97    2
    64    96    95    1
    65    95    94    1
    66    30    33    1
    67    30    29    1
    68    30    31    1
    69    31    32    2
    70    35    34    1
    71    35    36    1
    72    35    38    1
    73    94    87   am
    74    36    37    2
    75    39    38    1
    76    39    40    1
    77   141   140    1
    78    88    87    2
    79    40    41    1
    80   148   147   ar
    81    87    86    1
    82    41    42    1
    83   147   149   ar
    84   147   146    1
    85    58    56    1
    86   146   143    1
    87    81    80    2
    88    83    82    1
    89   140   137    1
    90    90    89    1
    91    90    91    1
    92    86    89    1
    93    86    85    1
    94    92    91   ar
    95    56    55    1
    96    73    72    1
    97   136   137    1
    98   139   138    2
    99    80    85   am
   100    80    79    1
   101   138   137    1
   102   138   142   am
   103    91    93   ar
   104   143   142    1
   105   143   144    1
   106   169   166    1
   107    78    79    1
   108    55    57    1
   109    55    52    1
   110    82    79    1
   111    82    84    1
   112    72    71    1
   113    70    71    1
   114   145   144    2
   115   144   150   am
   116    52    51    1
   117    52    53    1
   118    71    74    1
   119   166   167    1
   120   166   165    1
   121    74    76    1
   122    74    75    1
   123   168   167    2
   124   150   151    1
   125   165   163   am
   126    53    54    2
   127    75    77    1
   128   151   154    1
   129   151   152    1
   130   157   159   ar
   131   157   155   ar
   132   159   160   ar
   133   163   164    2
   134   163   162    1
   135   161   152   am
   136   161   162    1
   137   154   155    1
   138   152   153    2
   139   155   156   ar
   140    59    60    1
   141   160   158   ar
   142    60    61    1
   143    60    63    1
   144    61    62    2
   145   156   158   ar
   146    65    67   ar
   147    65    64   ar
   148    49    48    1
   149    67    69   ar
   150    63    64    1
   151    64    66   ar
   152    50    48    1
   153    48    47    1
   154    69    68   ar
   155    66    68   ar
   156    47    44    1
   157    44    45    1
   158    44    43    1
   159    46    45    2
