@<TRIPOS>MOLECULE
tmp/5hexB01.pdb
 143 133 0 0 0
SMALL
GASTEIGER

@<TRIPOS>ATOM
      1  N         16.9970  -36.5410  -84.0290 N.3   583  PRO583     -0.2116
      2  CA        17.4710  -37.1530  -85.2840 C.3   583  PRO583      0.1372
      3  C         16.3340  -37.2610  -86.2980 C.2   583  PRO583      0.2244
      4  O         15.2370  -37.7270  -85.9800 O.2   583  PRO583     -0.2868
      5  CB        17.9830  -38.5260  -84.8350 C.3   583  PRO583      0.0268
      6  CG        17.1660  -38.8290  -83.5930 C.3   583  PRO583      0.0207
      7  CD        16.9830  -37.5080  -82.9090 C.3   583  PRO583      0.0892
      8  N         19.6350  -27.1750  -89.4520 N.3   634  ASN634     -0.1225
      9  CA        20.6040  -27.6760  -88.4830 C.3   634  ASN634      0.1785
     10  C         21.4400  -26.5230  -87.9440 C.2   634  ASN634      0.2597
     11  O         21.7350  -25.5680  -88.6700 O.2   634  ASN634     -0.2718
     12  CB        21.5160  -28.7320  -89.1080 C.3   634  ASN634      0.1169
     13  CG        22.8350  -28.9120  -88.3350 C.2   634  ASN634      0.2627
     14  OD1       23.7860  -28.1450  -88.5060 O.2   634  ASN634     -0.2716
     15  ND2       22.8850  -29.9290  -87.4760 N.am  634  ASN634     -0.0877
     16  N         21.8260  -26.6130  -86.6580 N.am  635  ASP635     -0.1960
     17  CA        22.4250  -25.4540  -85.9900 C.3   635  ASP635      0.1840
     18  C         23.7350  -25.0060  -86.6310 C.2   635  ASP635      0.2622
     19  O         24.1030  -23.8380  -86.4820 O.2   635  ASP635     -0.2715
     20  CB        22.6110  -25.7040  -84.4800 C.3   635  ASP635      0.1450
     21  CG        23.5870  -26.8460  -84.1470 C.2   635  ASP635      0.3671
     22  OD1       23.9890  -27.6150  -85.0440 O.co2 635  ASP635     -0.2456
     23  OD2       23.9310  -26.9850  -82.9460 O.co2 635  ASP635     -0.2456
     24  N         24.4280  -25.8730  -87.3750 N.am  636  THR636     -0.1951
     25  CA        25.6400  -25.4040  -88.0350 C.3   636  THR636      0.1897
     26  C         25.3280  -24.6080  -89.2980 C.2   636  THR636      0.2313
     27  O         26.0720  -23.6820  -89.6410 O.2   636  THR636     -0.2863
     28  CB        26.5660  -26.5680  -88.3840 C.3   636  THR636      0.1794
     29  OG1       26.0010  -27.2980  -89.4770 O.3   636  THR636     -0.2208
     30  CG2       26.7690  -27.4950  -87.1800 C.3   636  THR636      0.0378
     31  N         31.0370  -25.8500  -85.8190 N.3   655  ILE655     -0.1245
     32  CA        30.8040  -25.7760  -84.3850 C.3   655  ILE655      0.1561
     33  C         31.8100  -26.6860  -83.7040 C.2   655  ILE655      0.2260
     34  O         31.9480  -27.8560  -84.0830 O.2   655  ILE655     -0.2867
     35  CB        29.3680  -26.1750  -84.0020 C.3   655  ILE655      0.0252
     36  CG1       28.3530  -25.1870  -84.5950 C.3   655  ILE655      0.0019
     37  CG2       29.2410  -26.3100  -82.4590 C.3   655  ILE655      0.0019
     38  CD1       26.8670  -25.4820  -84.2150 C.3   655  ILE655      0.0001
     39  N         32.6340  -27.4190  -79.5870 N.3   657  GLY657     -0.1210
     40  CA        31.8440  -27.1130  -78.4090 C.3   657  GLY657      0.1956
     41  C         31.5640  -28.4010  -77.6670 C.2   657  GLY657      0.2613
     42  O         32.4160  -29.3000  -77.6310 O.2   657  GLY657     -0.2717
     43  N         30.4150  -28.4820  -77.0000 N.am  658  THR658     -0.1938
     44  CA        30.0370  -29.7630  -76.4260 C.3   658  THR658      0.2028
     45  C         29.9000  -30.8530  -77.4840 C.2   658  THR658      0.2643
     46  O         29.8400  -32.0370  -77.1280 O.2   658  THR658     -0.2714
     47  CB        28.7420  -29.6030  -75.6370 C.3   658  THR658      0.1808
     48  OG1       27.6590  -29.3120  -76.5420 O.3   658  THR658     -0.2208
     49  CG2       28.8950  -28.4760  -74.6190 C.3   658  THR658      0.0379
     50  N         29.8460  -30.4770  -78.7670 N.am  659  GLY659     -0.1939
     51  CA        29.8340  -31.3920  -79.8940 C.3   659  GLY659      0.2014
     52  C         30.4200  -30.6630  -81.0820 C.2   659  GLY659      0.2640
     53  O         30.6830  -29.4580  -81.0190 O.2   659  GLY659     -0.2714
     54  N         30.6490  -31.3990  -82.1700 N.am  660  SER660     -0.1935
     55  CA        31.2560  -30.7840  -83.3450 C.3   660  SER660      0.2055
     56  C         30.6260  -31.2730  -84.6350 C.2   660  SER660      0.2643
     57  O         30.3690  -32.4680  -84.8130 O.2   660  SER660     -0.2714
     58  CB        32.7550  -31.0320  -83.4380 C.3   660  SER660      0.2130
     59  OG        33.2360  -30.5530  -84.6920 O.3   660  SER660     -0.2179
     60  N         30.4370  -30.3280  -85.5480 N.am  661  ASN661     -0.1971
     61  CA        29.8480  -30.5840  -86.8480 C.3   661  ASN661      0.1688
     62  C         30.2420  -29.4350  -87.7730 C.2   661  ASN661      0.2292
     63  O         30.6900  -28.3780  -87.3130 O.2   661  ASN661     -0.2864
     64  CB        28.3330  -30.7390  -86.7090 C.3   661  ASN661      0.1181
     65  CG        27.6600  -31.0420  -88.0090 C.2   661  ASN661      0.2629
     66  OD1       28.2480  -31.6290  -88.9230 O.2   661  ASN661     -0.2716
     67  ND2       26.4140  -30.6320  -88.1100 N.am  661  ASN661     -0.0877
     68  N         27.4500  -33.7580  -90.8050 N.3   686  GLU686     -0.1245
     69  CA        27.5330  -34.6190  -89.6410 C.3   686  GLU686      0.1567
     70  C         28.9150  -35.2780  -89.6010 C.2   686  GLU686      0.2260
     71  O         29.0610  -36.4930  -89.7300 O.2   686  GLU686     -0.2867
     72  CB        26.4050  -35.6460  -89.6480 C.3   686  GLU686      0.0388
     73  CG        25.0080  -35.0490  -89.4160 C.3   686  GLU686      0.1160
     74  CD        24.8240  -34.2930  -88.0830 C.2   686  GLU686      0.3649
     75  OE1       25.5540  -34.5480  -87.0970 O.co2 686  GLU686     -0.2457
     76  OE2       23.9080  -33.4420  -88.0180 O.co2 686  GLU686     -0.2457
     77  N         31.0650  -35.4620  -87.2130 N.3   688  GLY688     -0.1210
     78  CA        31.4090  -36.1770  -86.0090 C.3   688  GLY688      0.1956
     79  C         31.5230  -37.6730  -86.2020 C.2   688  GLY688      0.2611
     80  O         32.2460  -38.3300  -85.4440 O.2   688  GLY688     -0.2717
     81  N         30.8410  -38.2280  -87.2080 N.am  689  ALA689     -0.1979
     82  CA        30.8680  -39.6700  -87.4090 C.3   689  ALA689      0.1597
     83  C         32.0970  -40.1480  -88.1780 C.2   689  ALA689      0.2287
     84  O         32.3200  -41.3610  -88.2610 O.2   689  ALA689     -0.2864
     85  CB        29.5910  -40.1190  -88.1170 C.3   689  ALA689      0.0319
     86  N         27.1800  -44.0490  -76.5750 N.3   713  ASN713     -0.1240
     87  CA        27.0160  -44.5610  -77.9320 C.3   713  ASN713      0.1653
     88  C         28.3320  -45.1710  -78.4160 C.2   713  ASN713      0.2266
     89  O         29.0230  -44.5910  -79.2660 O.2   713  ASN713     -0.2867
     90  CB        26.5670  -43.4230  -78.8440 C.3   713  ASN713      0.1155
     91  CG        27.4600  -42.1780  -78.6950 C.2   713  ASN713      0.2627
     92  OD1       28.2200  -42.0330  -77.7010 O.2   713  ASN713     -0.2716
     93  ND2       27.3810  -41.2750  -79.6790 N.am  713  ASN713     -0.0877
     94  N         30.3160  -44.7490  -82.1320 N.3   716  LYS716     -0.1231
     95  CA        29.7390  -43.7010  -82.9610 C.3   716  LYS716      0.1693
     96  C         30.3310  -42.3470  -82.6000 C.2   716  LYS716      0.2591
     97  O         30.7970  -42.1340  -81.4800 O.2   716  LYS716     -0.2718
     98  CB        28.2240  -43.6600  -82.8150 C.3   716  LYS716      0.0285
     99  CG        27.6120  -44.9510  -83.2470 C.3   716  LYS716      0.0035
    100  CD        26.1090  -44.9050  -83.3340 C.3   716  LYS716      0.0206
    101  CE        25.6490  -46.2070  -83.9560 C.3   716  LYS716      0.1093
    102  NZ        26.5030  -46.4650  -85.1670 N.3   716  LYS716     -0.1314
    103  N         30.3120  -41.4390  -83.5720 N.am  717  GLN717     -0.1979
    104  CA        30.8000  -40.0770  -83.3840 C.3   717  GLN717      0.1601
    105  C         32.2500  -40.0770  -82.9200 C.2   717  GLN717      0.2287
    106  O         32.6250  -39.3090  -82.0360 O.2   717  GLN717     -0.2864
    107  CB        29.9380  -39.2950  -82.3890 C.3   717  GLN717      0.0394
    108  CG        28.4660  -39.0830  -82.7710 C.3   717  GLN717      0.0908
    109  CD        28.2700  -38.1220  -83.9290 C.2   717  GLN717      0.2608
    110  OE1       27.8850  -38.5320  -85.0310 O.2   717  GLN717     -0.2717
    111  NE2       28.5110  -36.8340  -83.6840 N.am  717  GLN717     -0.0878
    112  N         34.0420  -36.7500  -83.4230 N.3   720  GLU720     -0.1245
    113  CA        33.5880  -35.8210  -82.4040 C.3   720  GLU720      0.1567
    114  C         34.3170  -36.0610  -81.0970 C.2   720  GLU720      0.2260
    115  O         34.7630  -35.1130  -80.4410 O.2   720  GLU720     -0.2867
    116  CB        32.0880  -35.9700  -82.2080 C.3   720  GLU720      0.0388
    117  CG        31.4050  -34.7350  -81.6820 C.3   720  GLU720      0.1160
    118  CD        29.9180  -34.9380  -81.5560 C.2   720  GLU720      0.3649
    119  OE1       29.4990  -36.0620  -81.1930 O.co2 720  GLU720     -0.2457
    120  OE2       29.1690  -33.9890  -81.8680 O.co2 720  GLU720     -0.2457
    121  N         31.2780  -21.2810  -84.2800 N.3   839  ASP839     -0.1225
    122  CA        30.7020  -21.1090  -82.9540 C.3   839  ASP839      0.1805
    123  C         31.2440  -22.2010  -82.0380 C.2   839  ASP839      0.2598
    124  O         31.9560  -23.1160  -82.4650 O.2   839  ASP839     -0.2718
    125  CB        29.1630  -21.1450  -82.9960 C.3   839  ASP839      0.1424
    126  CG        28.5050  -20.4980  -81.7520 C.2   839  ASP839      0.3668
    127  OD1       29.2570  -20.0640  -80.8440 O.co2 839  ASP839     -0.2456
    128  OD2       27.2410  -20.4060  -81.6960 O.co2 839  ASP839     -0.2456
    129  N         30.8190  -22.1440  -80.7940 N.am  840  GLY840     -0.1942
    130  CA        31.0160  -23.1730  -79.8000 C.3   840  GLY840      0.2014
    131  C         31.9060  -22.7340  -78.6520 C.2   840  GLY840      0.2639
    132  O         32.8010  -21.8880  -78.7920 O.2   840  GLY840     -0.2714
    133  N         31.6710  -23.3580  -77.5030 N.am  841  THR841     -0.1950
    134  CA        32.2500  -22.9320  -76.2410 C.3   841  THR841      0.1897
    135  C         33.7460  -23.2160  -76.1940 C.2   841  THR841      0.2313
    136  O         34.5450  -22.3480  -75.8220 O.2   841  THR841     -0.2863
    137  CB        31.5190  -23.6590  -75.1320 C.3   841  THR841      0.1794
    138  OG1       31.4840  -25.0510  -75.4690 O.3   841  THR841     -0.2208
    139  CG2       30.0900  -23.1530  -75.0520 C.3   841  THR841      0.0378
    140  N         23.4330  -20.1720  -83.9070 N.3   874  GLY874     -0.1225
    141  CA        22.9310  -20.8520  -85.0950 C.3   874  GLY874      0.1811
    142  C         21.5290  -21.4110  -84.9040 C.2   874  GLY874      0.2280
    143  O         20.6550  -21.2370  -85.7560 O.2   874  GLY874     -0.2866
@<TRIPOS>BOND
     1    68    69    1
     2    71    70    2
     3    72    69    1
     4    72    73    1
     5    69    70    1
     6    27    26    2
     7    29    28    1
     8     8     9    1
     9    73    74    1
    10    26    25    1
    11    12     9    1
    12    12    13    1
    13    66    65    2
    14    11    10    2
    15    14    13    2
    16     9    10    1
    17    28    25    1
    18    28    30    1
    19    13    15   am
    20    84    83    2
    21    83    82    1
    22    85    82    1
    23    67    65   am
    24    74    76   ar
    25    74    75   ar
    26    25    24    1
    27    65    64    1
    28    10    16   am
    29    62    63    2
    30    62    61    1
    31    82    81    1
    32    24    18   am
    33    77    78    1
    34    81    79   am
    35    61    64    1
    36    61    60    1
    37    16    17    1
    38    18    19    2
    39    18    17    1
    40     3     4    2
    41     3     2    1
    42    79    78    1
    43    79    80    2
    44    17    20    1
    45    31    32    1
    46   143   142    2
    47    60    56   am
    48     2     5    1
    49     2     1    1
    50   102   101    1
    51   141   142    1
    52   141   140    1
    53    22    21   ar
    54   110   109    2
    55     5     6    1
    56    57    56    2
    57    59    58    1
    58    56    55    1
    59    36    38    1
    60    36    35    1
    61    20    21    1
    62    32    35    1
    63    32    33    1
    64   121   122    1
    65    21    23   ar
    66    34    33    2
    67     1     7    1
    68    35    37    1
    69   101   100    1
    70   109   111   am
    71   109   108    1
    72     6     7    1
    73   103   104    1
    74   103    96   am
    75    58    55    1
    76   112   113    1
    77   104   105    1
    78   104   107    1
    79    55    54    1
    80   100    99    1
    81    99    98    1
    82   125   122    1
    83   125   126    1
    84    95    98    1
    85    95    96    1
    86    95    94    1
    87   122   123    1
    88   105   106    2
    89   108   107    1
    90    96    97    2
    91   124   123    2
    92   113   116    1
    93   113   114    1
    94   116   117    1
    95    54    52   am
    96   123   129   am
    97   120   118   ar
    98   126   128   ar
    99   126   127   ar
   100   117   118    1
   101   118   119   ar
   102   114   115    2
   103    52    53    2
   104    52    51    1
   105   129   130    1
   106    51    50    1
   107   130   131    1
   108    93    91   am
   109    39    40    1
   110    89    88    2
   111    90    91    1
   112    90    87    1
   113   132   131    2
   114    50    45   am
   115    91    92    2
   116   131   133   am
   117    88    87    1
   118    40    41    1
   119    87    86    1
   120    41    42    2
   121    41    43   am
   122   133   134    1
   123    45    46    2
   124    45    44    1
   125    43    44    1
   126    48    47    1
   127    44    47    1
   128   134   135    1
   129   134   137    1
   130   135   136    2
   131    47    49    1
   132   138   137    1
   133   137   139    1
