@<TRIPOS>MOLECULE
tmp/5hexA00.pdb
 156 148 0 0 0
SMALL
GASTEIGER

@<TRIPOS>ATOM
      1  N         40.8210   -6.4620  -68.8500 N.3    46  LYS46      -0.1245
      2  CA        40.4600   -6.2280  -70.2370 C.3    46  LYS46       0.1561
      3  C         41.4740   -5.3260  -70.9400 C.2    46  LYS46       0.2260
      4  O         41.6790   -5.4500  -72.1530 O.2    46  LYS46      -0.2867
      5  CB        39.0410   -5.6390  -70.2980 C.3    46  LYS46       0.0271
      6  CG        37.8880   -6.6770  -70.1780 C.3    46  LYS46       0.0035
      7  CD        36.5440   -6.0040  -69.8210 C.3    46  LYS46       0.0206
      8  CE        35.3780   -6.6720  -70.5710 C.3    46  LYS46       0.1093
      9  NZ        34.8080   -5.7760  -71.6420 N.3    46  LYS46      -0.1314
     10  N         31.6780    6.1110  -65.5010 N.3   136  SER136     -0.1202
     11  CA        32.2070    5.3120  -64.4020 C.3   136  SER136      0.2020
     12  C         32.2630    3.8200  -64.7140 C.2   136  SER136      0.2619
     13  O         32.3220    3.0200  -63.7780 O.2   136  SER136     -0.2717
     14  CB        31.4110    5.5510  -63.1230 C.3   136  SER136      0.2103
     15  OG        31.8280    6.7720  -62.5340 O.3   136  SER136     -0.2182
     16  N         32.0560    3.4220  -65.9710 N.am  137  PHE137     -0.1962
     17  CA        32.2110    2.0260  -66.3480 C.3   137  PHE137      0.1756
     18  C         32.8550    1.9340  -67.7330 C.2   137  PHE137      0.2461
     19  O         32.9790    2.9600  -68.4200 O.2   137  PHE137     -0.2730
     20  CB        30.8280    1.3740  -66.3570 C.3   137  PHE137      0.0574
     21  CG        29.7950    2.2100  -67.0640 C.ar  137  PHE137     -0.0200
     22  CD1       29.1380    3.2360  -66.4060 C.ar  137  PHE137     -0.0042
     23  CD2       29.5290    2.0000  -68.4140 C.ar  137  PHE137     -0.0042
     24  CE1       28.2390    4.0140  -67.0570 C.ar  137  PHE137     -0.0003
     25  CE2       28.6150    2.7790  -69.0750 C.ar  137  PHE137     -0.0003
     26  CZ        27.9680    3.7870  -68.3980 C.ar  137  PHE137     -0.0000
     27  N         33.2180    0.7360  -68.2100 N.am  138  PRO138     -0.2727
     28  CA        33.6520    0.5960  -69.6040 C.3   138  PRO138      0.1402
     29  C         32.4830    0.5160  -70.5670 C.2   138  PRO138      0.2269
     30  O         31.3830    0.0740  -70.2200 O.2   138  PRO138     -0.2865
     31  CB        34.4340   -0.7230  -69.5960 C.3   138  PRO138      0.0296
     32  CG        33.7770   -1.5320  -68.5400 C.3   138  PRO138      0.0237
     33  CD        33.4040   -0.5290  -67.4590 C.3   138  PRO138      0.0939
     34  N         36.9320    6.9610  -69.8490 N.3   177  ASN177     -0.1225
     35  CA        36.6500    6.4430  -68.5210 C.3   177  ASN177      0.1785
     36  C         37.0490    7.4730  -67.4580 C.2   177  ASN177      0.2597
     37  O         37.7790    8.4350  -67.7240 O.2   177  ASN177     -0.2718
     38  CB        37.3660    5.1090  -68.3250 C.3   177  ASN177      0.1169
     39  CG        37.0900    4.4910  -66.9820 C.2   177  ASN177      0.2627
     40  OD1       37.8520    4.6900  -66.0380 O.2   177  ASN177     -0.2716
     41  ND2       35.9780    3.7580  -66.8700 N.am  177  ASN177     -0.0877
     42  N         36.5020    7.3060  -66.2550 N.am  178  ASP178     -0.1960
     43  CA        36.7760    8.2930  -65.2260 C.3   178  ASP178      0.1840
     44  C         38.2000    8.1830  -64.6620 C.2   178  ASP178      0.2622
     45  O         38.7620    9.2060  -64.2450 O.2   178  ASP178     -0.2715
     46  CB        35.7210    8.2230  -64.1250 C.3   178  ASP178      0.1450
     47  CG        35.6250    6.8620  -63.4640 C.2   178  ASP178      0.3671
     48  OD1       36.2830    5.9050  -63.9240 O.co2 178  ASP178     -0.2456
     49  OD2       34.8590    6.7490  -62.4790 O.co2 178  ASP178     -0.2456
     50  N         38.8220    6.9900  -64.6520 N.am  179  THR179     -0.1951
     51  CA        40.2660    6.9530  -64.3800 C.3   179  THR179      0.1897
     52  C         41.0300    7.8360  -65.3600 C.2   179  THR179      0.2313
     53  O         41.9150    8.5990  -64.9550 O.2   179  THR179     -0.2863
     54  CB        40.8380    5.5440  -64.4810 C.3   179  THR179      0.1794
     55  OG1       40.5490    5.0230  -65.7850 O.3   179  THR179     -0.2208
     56  CG2       40.2910    4.6410  -63.4070 C.3   179  THR179      0.0378
     57  N         41.7660    5.4510  -59.1630 N.3   198  ILE198     -0.1245
     58  CA        40.5800    5.7330  -58.3560 C.3   198  ILE198      0.1561
     59  C         40.4370    4.6200  -57.3270 C.2   198  ILE198      0.2260
     60  O         40.2620    3.4550  -57.7040 O.2   198  ILE198     -0.2867
     61  CB        39.3010    5.8200  -59.2070 C.3   198  ILE198      0.0252
     62  CG1       39.3250    7.0300  -60.1300 C.3   198  ILE198      0.0019
     63  CG2       38.0740    5.8710  -58.3180 C.3   198  ILE198      0.0019
     64  CD1       38.2100    6.9990  -61.2100 C.3   198  ILE198      0.0001
     65  N         37.6610    4.2430  -54.8650 N.3   200  GLY200     -0.1210
     66  CA        36.3490    4.7160  -54.4570 C.3   200  GLY200      0.1956
     67  C         35.4650    3.6770  -53.8070 C.2   200  GLY200      0.2613
     68  O         35.9320    2.6870  -53.2360 O.2   200  GLY200     -0.2717
     69  N         34.1550    3.9060  -53.9290 N.am  201  THR201     -0.1938
     70  CA        33.2090    2.8000  -53.8490 C.3   201  THR201      0.2028
     71  C         33.6010    1.6970  -54.8290 C.2   201  THR201      0.2643
     72  O         33.4680    0.5060  -54.5230 O.2   201  THR201     -0.2714
     73  CB        31.7770    3.2890  -54.1290 C.3   201  THR201      0.1808
     74  OG1       31.6810    3.7810  -55.4700 O.3   201  THR201     -0.2208
     75  CG2       31.3890    4.4060  -53.1870 C.3   201  THR201      0.0379
     76  N         34.0500    2.0760  -56.0300 N.am  202  GLY202     -0.1939
     77  CA        34.7180    1.1730  -56.9420 C.3   202  GLY202      0.2014
     78  C         36.2080    1.4780  -57.0130 C.2   202  GLY202      0.2640
     79  O         36.6920    2.4430  -56.4350 O.2   202  GLY202     -0.2714
     80  N         36.9430    0.6470  -57.7510 N.am  203  SER203     -0.1935
     81  CA        38.3580    0.9550  -57.9500 C.3   203  SER203      0.2055
     82  C         38.8340    0.5320  -59.3270 C.2   203  SER203      0.2643
     83  O         38.4900   -0.5590  -59.7950 O.2   203  SER203     -0.2714
     84  CB        39.2340    0.2840  -56.9030 C.3   203  SER203      0.2130
     85  OG        40.5760    0.6560  -57.1280 O.3   203  SER203     -0.2179
     86  N         39.6300    1.3980  -59.9640 N.am  204  ASN204     -0.1971
     87  CA        40.1350    1.1440  -61.3110 C.3   204  ASN204      0.1688
     88  C         41.3650    2.0230  -61.5230 C.2   204  ASN204      0.2292
     89  O         41.6180    2.9680  -60.7600 O.2   204  ASN204     -0.2864
     90  CB        39.0650    1.4330  -62.3800 C.3   204  ASN204      0.1181
     91  CG        39.4950    1.0140  -63.7940 C.2   204  ASN204      0.2629
     92  OD1       40.3520    0.1330  -63.9740 O.2   204  ASN204     -0.2716
     93  ND2       38.8890    1.6430  -64.8010 N.am  204  ASN204     -0.0877
     94  N         40.5650   -1.5960  -66.2290 N.3   229  GLU229     -0.1245
     95  CA        39.4240   -2.2200  -65.5650 C.3   229  GLU229      0.1567
     96  C         39.9020   -3.2750  -64.5760 C.2   229  GLU229      0.2260
     97  O         39.5020   -4.4400  -64.6440 O.2   229  GLU229     -0.2867
     98  CB        38.4460   -2.8160  -66.5850 C.3   229  GLU229      0.0388
     99  CG        37.6540   -1.7900  -67.3790 C.3   229  GLU229      0.1160
    100  CD        36.7820   -0.8850  -66.5110 C.2   229  GLU229      0.3649
    101  OE1       36.4140   -1.3080  -65.3820 O.co2 229  GLU229     -0.2457
    102  OE2       36.4350    0.2350  -66.9770 O.co2 229  GLU229     -0.2457
    103  N         39.3220   -3.8400  -61.5760 N.3   231  GLY231     -0.1210
    104  CA        38.3630   -4.4030  -60.6410 C.3   231  GLY231      0.1956
    105  C         38.1020   -5.8710  -60.9030 C.2   231  GLY231      0.2611
    106  O         37.8460   -6.6320  -59.9700 O.2   231  GLY231     -0.2717
    107  N         38.2080   -6.2990  -62.1700 N.am  232  ALA232     -0.1979
    108  CA        37.9500   -7.6760  -62.5890 C.3   232  ALA232      0.1597
    109  C         39.1460   -8.6100  -62.3950 C.2   232  ALA232      0.2287
    110  O         39.0370   -9.8070  -62.6980 O.2   232  ALA232     -0.2864
    111  CB        37.5190   -7.6960  -64.0550 C.3   232  ALA232      0.0319
    112  N         32.0840  -11.5040  -60.2570 N.3   259  LYS259     -0.1231
    113  CA        32.6010  -10.3960  -61.0490 C.3   259  LYS259      0.1693
    114  C         33.2020   -9.3440  -60.1200 C.2   259  LYS259      0.2591
    115  O         32.8550   -9.2620  -58.9380 O.2   259  LYS259     -0.2718
    116  CB        31.5020   -9.7490  -61.9360 C.3   259  LYS259      0.0285
    117  CG        30.6840  -10.6930  -62.8270 C.3   259  LYS259      0.0035
    118  CD        31.5400  -11.7830  -63.4810 C.3   259  LYS259      0.0206
    119  CE        32.4710  -11.2470  -64.5830 C.3   259  LYS259      0.1093
    120  NZ        33.3840  -12.3170  -65.1330 N.3   259  LYS259     -0.1314
    121  N         34.1220   -8.5470  -60.6680 N.am  260  GLN260     -0.1979
    122  CA        34.7690   -7.4540  -59.9320 C.3   260  GLN260      0.1601
    123  C         35.3970   -7.9180  -58.6190 C.2   260  GLN260      0.2287
    124  O         35.3330   -7.2150  -57.6080 O.2   260  GLN260     -0.2864
    125  CB        33.7790   -6.3250  -59.6740 C.3   260  GLN260      0.0394
    126  CG        33.2030   -5.7290  -60.9260 C.3   260  GLN260      0.0908
    127  CD        34.2510   -5.0660  -61.7700 C.2   260  GLN260      0.2608
    128  OE1       34.7100   -5.6230  -62.7680 O.2   260  GLN260     -0.2717
    129  NE2       34.6500   -3.8690  -61.3710 N.am  260  GLN260     -0.0878
    130  N         38.1710   -5.6380  -56.9460 N.3   263  GLU263     -0.1245
    131  CA        37.4430   -4.4990  -56.4170 C.3   263  GLU263      0.1567
    132  C         36.8050   -4.8360  -55.0880 C.2   263  GLU263      0.2260
    133  O         36.9680   -4.1040  -54.1080 O.2   263  GLU263     -0.2867
    134  CB        36.3800   -4.0960  -57.4300 C.3   263  GLU263      0.0388
    135  CG        35.8210   -2.7390  -57.2450 C.3   263  GLU263      0.1160
    136  CD        34.9920   -2.3530  -58.4330 C.2   263  GLU263      0.3649
    137  OE1       34.4810   -3.2610  -59.1340 O.co2 263  GLU263     -0.2457
    138  OE2       34.9340   -1.1420  -58.7190 O.co2 263  GLU263     -0.2457
    139  N         42.1500    9.6950  -57.1290 N.3   382  ASP382     -0.1225
    140  CA        40.8370   10.1680  -56.7200 C.3   382  ASP382      0.1805
    141  C         40.1390    9.0550  -55.9430 C.2   382  ASP382      0.2598
    142  O         40.6430    7.9340  -55.8250 O.2   382  ASP382     -0.2718
    143  CB        40.0400   10.6080  -57.9480 C.3   382  ASP382      0.1424
    144  CG        38.7930   11.4000  -57.6020 C.2   382  ASP382      0.3668
    145  OD1       38.5690   11.6890  -56.4030 O.co2 382  ASP382     -0.2456
    146  OD2       38.0420   11.7420  -58.5510 O.co2 382  ASP382     -0.2456
    147  N         38.9500    9.3550  -55.4580 N.am  383  GLY383     -0.1942
    148  CA        38.0690    8.3830  -54.8420 C.3   383  GLY383      0.2014
    149  C         37.9240    8.5740  -53.3410 C.2   383  GLY383      0.2639
    150  O         38.8240    9.0800  -52.6470 O.2   383  GLY383     -0.2714
    151  N         36.7740    8.1180  -52.8280 N.am  384  SER384     -0.1949
    152  CA        36.3580    8.4140  -51.4610 C.3   384  SER384      0.1924
    153  C         37.1810    7.6620  -50.4280 C.2   384  SER384      0.2314
    154  O         37.3690    8.1540  -49.3090 O.2   384  SER384     -0.2863
    155  CB        34.9010    8.0480  -51.2950 C.3   384  SER384      0.2116
    156  OG        34.7480    6.6690  -51.5850 O.3   384  SER384     -0.2180
@<TRIPOS>BOND
     1     4     3    2
     2     9     8    1
     3     3     2    1
     4     8     7    1
     5    29    30    2
     6    29    28    1
     7     5     2    1
     8     5     6    1
     9     2     1    1
    10     6     7    1
    11    34    35    1
    12    28    31    1
    13    28    27    1
    14    31    32    1
    15    25    23   ar
    16    25    26   ar
    17    32    33    1
    18    35    38    1
    19    35    36    1
    20    19    18    2
    21    23    21   ar
    22    26    24   ar
    23    38    39    1
    24    27    18   am
    25    27    33    1
    26    18    17    1
    27    37    36    2
    28    36    42   am
    29    99    98    1
    30    99   100    1
    31    21    22   ar
    32    21    20    1
    33    24    22   ar
    34    39    41   am
    35    39    40    2
    36   102   100   ar
    37    98    95    1
    38   100   101   ar
    39    20    17    1
    40    17    16    1
    41    42    43    1
    42    94    95    1
    43    16    12   am
    44    55    54    1
    45    95    96    1
    46    10    11    1
    47    52    53    2
    48    52    51    1
    49    43    44    1
    50    43    46    1
    51   120   119    1
    52    93    91   am
    53    12    11    1
    54    12    13    2
    55    44    50   am
    56    44    45    2
    57    50    51    1
    58    97    96    2
    59   119   118    1
    60    54    51    1
    61    54    56    1
    62    11    14    1
    63    46    47    1
    64   111   108    1
    65    92    91    2
    66    48    47   ar
    67    91    90    1
    68   118   117    1
    69    47    49   ar
    70    14    15    1
    71   117   116    1
    72   128   127    2
    73   110   109    2
    74   108   109    1
    75   108   107    1
    76    90    87    1
    77   107   105   am
    78   116   113    1
    79   127   129   am
    80   127   126    1
    81   103   104    1
    82    88    87    1
    83    88    89    2
    84    87    86    1
    85    64    62    1
    86   113   112    1
    87   113   114    1
    88   126   125    1
    89   105   104    1
    90   105   106    2
    91   121   114   am
    92   121   122    1
    93    62    61    1
    94   114   115    2
    95    86    82   am
    96   122   125    1
    97   122   123    1
    98    83    82    2
    99    82    81    1
   100    61    58    1
   101    61    63    1
   102    57    58    1
   103   137   136   ar
   104   138   136   ar
   105   123   124    2
   106   146   144   ar
   107   136   135    1
   108    58    59    1
   109    81    80    1
   110    81    84    1
   111   143   144    1
   112   143   140    1
   113    80    78   am
   114    60    59    2
   115   144   145   ar
   116   134   135    1
   117   134   131    1
   118   139   140    1
   119    85    84    1
   120    78    77    1
   121    78    79    2
   122   130   131    1
   123    77    76    1
   124   140   141    1
   125   131   132    1
   126    76    71   am
   127   141   142    2
   128   141   147   am
   129    74    73    1
   130   147   148    1
   131   132   133    2
   132    65    66    1
   133   148   149    1
   134    71    72    2
   135    71    70    1
   136    66    67    1
   137    73    70    1
   138    73    75    1
   139    69    70    1
   140    69    67   am
   141    67    68    2
   142   149   151   am
   143   149   150    2
   144   151   152    1
   145   156   155    1
   146   152   155    1
   147   152   153    1
   148   153   154    2
