@<TRIPOS>MOLECULE
tmp/5hexB00.pdb
 153 144 0 0 0
SMALL
GASTEIGER

@<TRIPOS>ATOM
      1  N         70.9870  -17.0050  -45.5940 N.3    46  LYS46      -0.1245
      2  CA        71.2610  -16.8430  -47.0130 C.3    46  LYS46       0.1561
      3  C         70.2450  -17.5450  -47.8920 C.2    46  LYS46       0.2260
      4  O         70.0070  -17.0930  -49.0160 O.2    46  LYS46      -0.2867
      5  CB        72.6770  -17.3320  -47.3370 C.3    46  LYS46       0.0271
      6  CG        73.7640  -16.3600  -46.9140 C.3    46  LYS46       0.0035
      7  CD        75.1860  -16.9030  -47.2140 C.3    46  LYS46       0.0206
      8  CE        76.2380  -15.7860  -47.0380 C.3    46  LYS46       0.1093
      9  NZ        77.5860  -16.0510  -47.6180 N.3    46  LYS46      -0.1314
     10  N         80.1480  -30.0470  -45.5430 N.3   139  SER139     -0.1202
     11  CA        79.7030  -29.5400  -44.2490 C.3   139  SER139      0.2020
     12  C         79.6530  -28.0190  -44.1750 C.2   139  SER139      0.2619
     13  O         79.7600  -27.4650  -43.0760 O.2   139  SER139     -0.2717
     14  CB        80.5480  -30.1080  -43.1200 C.3   139  SER139      0.2103
     15  OG        79.9820  -31.3400  -42.7060 O.3   139  SER139     -0.2182
     16  N         79.5600  -27.3300  -45.3150 N.am  140  PHE140     -0.1962
     17  CA        79.6650  -25.8760  -45.3680 C.3   140  PHE140      0.1756
     18  C         79.1910  -25.3950  -46.7360 C.2   140  PHE140      0.2461
     19  O         79.2430  -26.1580  -47.7130 O.2   140  PHE140     -0.2730
     20  CB        81.1160  -25.4370  -45.1250 C.3   140  PHE140      0.0574
     21  CG        82.1120  -26.0880  -46.0580 C.ar  140  PHE140     -0.0200
     22  CD1       82.2870  -25.6190  -47.3570 C.ar  140  PHE140     -0.0042
     23  CD2       82.8590  -27.1780  -45.6440 C.ar  140  PHE140     -0.0042
     24  CE1       83.1820  -26.2310  -48.2120 C.ar  140  PHE140     -0.0003
     25  CE2       83.7700  -27.7820  -46.4960 C.ar  140  PHE140     -0.0003
     26  CZ        83.9300  -27.3160  -47.7740 C.ar  140  PHE140     -0.0000
     27  N         78.6910  -24.1640  -46.8500 N.am  141  PRO141     -0.2727
     28  CA        78.2170  -23.6940  -48.1600 C.3   141  PRO141      0.1402
     29  C         79.3710  -23.3550  -49.1110 C.2   141  PRO141      0.2269
     30  O         80.4960  -23.0460  -48.7000 O.2   141  PRO141     -0.2865
     31  CB        77.3870  -22.4540  -47.8110 C.3   141  PRO141      0.0296
     32  CG        77.9650  -21.9370  -46.5060 C.3   141  PRO141      0.0237
     33  CD        78.4990  -23.1630  -45.7780 C.3   141  PRO141      0.0939
     34  N         75.0420  -29.8490  -49.6360 N.3   186  ASN186     -0.1225
     35  CA        75.2790  -29.6130  -48.2170 C.3   186  ASN186      0.1785
     36  C         74.8620  -30.8450  -47.4190 C.2   186  ASN186      0.2597
     37  O         74.1330  -31.7040  -47.9060 O.2   186  ASN186     -0.2718
     38  CB        74.5040  -28.3720  -47.7630 C.3   186  ASN186      0.1169
     39  CG        74.7760  -27.9880  -46.3230 C.2   186  ASN186      0.2627
     40  OD1       74.0190  -28.3370  -45.4140 O.2   186  ASN186     -0.2716
     41  ND2       75.8950  -27.2920  -46.0980 N.am  186  ASN186     -0.0877
     42  N         75.4040  -30.9740  -46.2040 N.am  187  ASP187     -0.1960
     43  CA        75.1370  -32.1870  -45.4350 C.3   187  ASP187      0.1840
     44  C         73.6930  -32.2600  -44.9270 C.2   187  ASP187      0.2622
     45  O         73.1680  -33.3710  -44.7790 O.2   187  ASP187     -0.2715
     46  CB        76.1300  -32.3280  -44.2820 C.3   187  ASP187      0.1450
     47  CG        76.3350  -31.0390  -43.5100 C.2   187  ASP187      0.3671
     48  OD1       75.5640  -30.0750  -43.7350 O.co2 187  ASP187     -0.2456
     49  OD2       77.2760  -30.9870  -42.6780 O.co2 187  ASP187     -0.2456
     50  N         73.0250  -31.1240  -44.6590 N.am  188  THR188     -0.1951
     51  CA        71.5980  -31.2010  -44.3180 C.3   188  THR188      0.1897
     52  C         70.7910  -31.7570  -45.4860 C.2   188  THR188      0.2313
     53  O         69.8910  -32.5780  -45.2960 O.2   188  THR188     -0.2863
     54  CB        71.0210  -29.8390  -43.9400 C.3   188  THR188      0.1794
     55  OG1       71.1010  -28.9820  -45.0770 O.3   188  THR188     -0.2208
     56  CG2       71.7310  -29.2000  -42.7710 C.3   188  THR188      0.0378
     57  N         70.3450  -30.6930  -38.8500 N.3   207  ILE207     -0.1245
     58  CA        71.5140  -31.1630  -38.1310 C.3   207  ILE207      0.1561
     59  C         71.6440  -30.3480  -36.8570 C.2   207  ILE207      0.2260
     60  O         71.7920  -29.1200  -36.9170 O.2   207  ILE207     -0.2867
     61  CB        72.7930  -31.0810  -38.9770 C.3   207  ILE207      0.0252
     62  CG1       72.7170  -32.0910  -40.1180 C.3   207  ILE207      0.0019
     63  CG2       74.0000  -31.4080  -38.1380 C.3   207  ILE207      0.0019
     64  CD1       73.9480  -32.0990  -41.0440 C.3   207  ILE207      0.0001
     65  N         74.4710  -30.8500  -34.5470 N.3   209  GLY209     -0.1210
     66  CA        75.7450  -31.5140  -34.3020 C.3   209  GLY209      0.1956
     67  C         76.7060  -30.6050  -33.5820 C.2   209  GLY209      0.2613
     68  O         76.2840  -29.7180  -32.8350 O.2   209  GLY209     -0.2717
     69  N         78.0070  -30.7910  -33.8280 N.am  210  THR210     -0.1938
     70  CA        78.9560  -29.7490  -33.4490 C.3   210  THR210      0.2028
     71  C         78.5770  -28.4170  -34.0850 C.2   210  THR210      0.2643
     72  O         78.6490  -27.3700  -33.4290 O.2   210  THR210     -0.2714
     73  CB        80.3740  -30.1510  -33.8320 C.3   210  THR210      0.1808
     74  OG1       80.4960  -30.2150  -35.2580 O.3   210  THR210     -0.2208
     75  CG2       80.6930  -31.5050  -33.2420 C.3   210  THR210      0.0379
     76  N         78.1720  -28.4360  -35.3720 N.am  211  GLY211     -0.1939
     77  CA        77.4740  -27.3270  -35.9820 C.3   211  GLY211      0.2014
     78  C         75.9800  -27.6170  -36.1310 C.2   211  GLY211      0.2640
     79  O         75.5110  -28.7360  -35.9380 O.2   211  GLY211     -0.2714
     80  N         75.2270  -26.5810  -36.4990 N.am  212  SER212     -0.1935
     81  CA        73.7980  -26.7500  -36.7170 C.3   212  SER212      0.2055
     82  C         73.3630  -25.9600  -37.9310 C.2   212  SER212      0.2643
     83  O         73.6720  -24.7700  -38.0320 O.2   212  SER212     -0.2714
     84  CB        72.9710  -26.2990  -35.5120 C.3   212  SER212      0.2130
     85  OG        71.5910  -26.4890  -35.7870 O.3   212  SER212     -0.2179
     86  N         72.6200  -26.6220  -38.8220 N.am  213  ASN213     -0.1971
     87  CA        72.0840  -26.0420  -40.0450 C.3   213  ASN213      0.1688
     88  C         70.7920  -26.7890  -40.3700 C.2   213  ASN213      0.2292
     89  O         70.4590  -27.7870  -39.7140 O.2   213  ASN213     -0.2864
     90  CB        73.1020  -26.1480  -41.1950 C.3   213  ASN213      0.1181
     91  CG        72.6230  -25.4710  -42.4740 C.2   213  ASN213      0.2629
     92  OD1       71.8540  -24.5150  -42.4270 O.2   213  ASN213     -0.2716
     93  ND2       73.0650  -25.9770  -43.6160 N.am  213  ASN213     -0.0877
     94  N         71.3470  -22.2900  -44.1500 N.3   238  GLU238     -0.1245
     95  CA        72.4710  -21.8230  -43.3380 C.3   238  GLU238      0.1567
     96  C         71.9780  -20.9360  -42.1810 C.2   238  GLU238      0.2260
     97  O         72.2790  -19.7420  -42.0980 O.2   238  GLU238     -0.2867
     98  CB        73.5050  -21.1060  -44.2180 C.3   238  GLU238      0.0388
     99  CG        74.1970  -22.0080  -45.2590 C.3   238  GLU238      0.1160
    100  CD        75.1140  -23.0640  -44.6420 C.2   238  GLU238      0.3649
    101  OE1       75.5330  -22.8930  -43.4760 O.co2 238  GLU238     -0.2457
    102  OE2       75.4390  -24.0580  -45.3340 O.co2 238  GLU238     -0.2457
    103  N         72.7300  -20.8500  -39.0600 N.3   240  GLY240     -0.1210
    104  CA        73.6640  -20.4420  -38.0160 C.3   240  GLY240      0.1956
    105  C         73.9400  -18.9460  -37.9970 C.2   240  GLY240      0.2611
    106  O         74.1790  -18.3640  -36.9280 O.2   240  GLY240     -0.2717
    107  N         73.8790  -18.2950  -39.1670 N.am  241  ALA241     -0.1979
    108  CA        74.1390  -16.8660  -39.2820 C.3   241  ALA241      0.1597
    109  C         72.9350  -16.0250  -38.8910 C.2   241  ALA241      0.2287
    110  O         73.0250  -14.7890  -38.8970 O.2   241  ALA241     -0.2864
    111  CB        74.5730  -16.5300  -40.7020 C.3   241  ALA241      0.0319
    112  N         77.9470  -16.5030  -37.0340 N.3   269  GLN269     -0.1245
    113  CA        77.2750  -17.7060  -36.5380 C.3   269  GLN269      0.1566
    114  C         76.7380  -17.5380  -35.1060 C.2   269  GLN269      0.2260
    115  O         76.8350  -18.4430  -34.2760 O.2   269  GLN269     -0.2867
    116  CB        78.2160  -18.9060  -36.6240 C.3   269  GLN269      0.0367
    117  CG        78.8380  -19.1250  -37.9910 C.3   269  GLN269      0.0905
    118  CD        77.8090  -19.3810  -39.1050 C.2   269  GLN269      0.2608
    119  OE1       77.3890  -18.4530  -39.7980 O.2   269  GLN269     -0.2717
    120  NE2       77.4280  -20.6420  -39.2940 N.am  269  GLN269     -0.0878
    121  N         74.2340  -20.2440  -34.3240 N.3   272  GLU272     -0.1245
    122  CA        74.9100  -21.5230  -34.1460 C.3   272  GLU272      0.1567
    123  C         75.5730  -21.5870  -32.7860 C.2   272  GLU272      0.2260
    124  O         75.5860  -22.6410  -32.1390 O.2   272  GLU272     -0.2867
    125  CB        75.9480  -21.7470  -35.2440 C.3   272  GLU272      0.0388
    126  CG        76.3500  -23.2080  -35.4040 C.3   272  GLU272      0.1160
    127  CD        77.1430  -23.4810  -36.6820 C.2   272  GLU272      0.3649
    128  OE1       77.9800  -22.6380  -37.0610 O.co2 272  GLU272     -0.2457
    129  OE2       76.9120  -24.5330  -37.3270 O.co2 272  GLU272     -0.2457
    130  N         70.0060  -35.4110  -37.9790 N.3   391  ASP391     -0.1225
    131  CA        71.3240  -35.9660  -37.7370 C.3   391  ASP391      0.1805
    132  C         72.0740  -35.0140  -36.8140 C.2   391  ASP391      0.2598
    133  O         71.6520  -33.8780  -36.5750 O.2   391  ASP391     -0.2718
    134  CB        72.0880  -36.2180  -39.0510 C.3   391  ASP391      0.1424
    135  CG        73.3060  -37.1420  -38.8600 C.2   391  ASP391      0.3668
    136  OD1       73.4250  -37.7570  -37.7790 O.co2 391  ASP391     -0.2456
    137  OD2       74.1610  -37.2620  -39.7680 O.co2 391  ASP391     -0.2456
    138  N         73.1920  -35.4900  -36.2960 N.am  392  GLY392     -0.1942
    139  CA        74.1320  -34.7360  -35.4970 C.3   392  GLY392      0.2014
    140  C         74.2120  -35.2010  -34.0490 C.2   392  GLY392      0.2639
    141  O         73.2350  -35.6770  -33.4480 O.2   392  GLY392     -0.2714
    142  N         75.3880  -34.9710  -33.4580 N.am  393  SER393     -0.1949
    143  CA        75.7760  -35.5630  -32.1850 C.3   393  SER393      0.1924
    144  C         74.9480  -35.0430  -31.0130 C.2   393  SER393      0.2314
    145  O         74.6740  -35.7910  -30.0660 O.2   393  SER393     -0.2863
    146  CB        77.2560  -35.2840  -31.9550 C.3   393  SER393      0.2116
    147  OG        77.5310  -33.9100  -32.1970 O.3   393  SER393     -0.2180
    148  N         75.4370  -38.7460  -44.5080 N.3   427  SER427     -0.1217
    149  CA        75.2100  -37.7790  -45.5850 C.3   427  SER427      0.1889
    150  C         75.5470  -38.3510  -46.9520 C.2   427  SER427      0.2288
    151  O         74.8020  -38.1340  -47.9150 O.2   427  SER427     -0.2866
    152  CB        76.0210  -36.5010  -45.3470 C.3   427  SER427      0.2089
    153  OG        75.3200  -35.5780  -44.5350 O.3   427  SER427     -0.2183
@<TRIPOS>BOND
     1    34    35    1
     2    29    30    2
     3    29    28    1
     4     4     3    2
     5    35    38    1
     6    35    36    1
     7    24    26   ar
     8    24    22   ar
     9    28    31    1
    10    28    27    1
    11   151   150    2
    12    37    36    2
    13     3     2    1
    14    31    32    1
    15    26    25   ar
    16    38    39    1
    17    19    18    2
    18     9     8    1
    19    36    42   am
    20    22    21   ar
    21     5     2    1
    22     5     6    1
    23     7     8    1
    24     7     6    1
    25     2     1    1
    26   150   149    1
    27    27    18   am
    28    27    33    1
    29    18    17    1
    30    32    33    1
    31    25    23   ar
    32    39    41   am
    33    39    40    2
    34    42    43    1
    35    21    23   ar
    36    21    20    1
    37   149   152    1
    38   149   148    1
    39    10    11    1
    40    52    53    2
    41    52    51    1
    42    43    44    1
    43    43    46    1
    44    17    16    1
    45    17    20    1
    46   152   153    1
    47   102   100   ar
    48    16    12   am
    49    99   100    1
    50    99    98    1
    51    55    54    1
    52    44    45    2
    53    44    50   am
    54    50    51    1
    55   100   101   ar
    56    51    54    1
    57    46    47    1
    58    11    12    1
    59    11    14    1
    60    98    95    1
    61    12    13    2
    62    94    95    1
    63    54    56    1
    64    48    47   ar
    65    93    91   am
    66    47    49   ar
    67    95    96    1
    68    14    15    1
    69    91    92    2
    70    91    90    1
    71    96    97    2
    72    90    87    1
    73    64    62    1
    74   111   108    1
    75    88    87    1
    76    88    89    2
    77    62    61    1
    78    87    86    1
    79   119   118    2
    80   137   135   ar
    81   120   118   am
    82   108   107    1
    83   108   109    1
    84   107   105   am
    85   118   117    1
    86   103   104    1
    87   134   135    1
    88   134   131    1
    89    61    63    1
    90    61    58    1
    91   110   109    2
    92   135   136   ar
    93    57    58    1
    94    86    82   am
    95    58    59    1
    96    83    82    2
    97   104   105    1
    98   105   106    2
    99   117   116    1
   100   130   131    1
   101    82    81    1
   102   131   132    1
   103   129   127   ar
   104   128   127   ar
   105   112   113    1
   106    60    59    2
   107   132   133    2
   108   132   138   am
   109    81    80    1
   110    81    84    1
   111   127   126    1
   112   116   113    1
   113   113   114    1
   114    80    78   am
   115   138   139    1
   116    78    77    1
   117    78    79    2
   118    77    76    1
   119    85    84    1
   120   139   140    1
   121   126   125    1
   122    76    71   am
   123    74    73    1
   124   125   122    1
   125   114   115    2
   126    65    66    1
   127   121   122    1
   128    66    67    1
   129   122   123    1
   130    71    70    1
   131    71    72    2
   132   140   142   am
   133   140   141    2
   134    73    70    1
   135    73    75    1
   136    69    67   am
   137    69    70    1
   138    67    68    2
   139   142   143    1
   140   123   124    2
   141   147   146    1
   142   143   146    1
   143   143   144    1
   144   144   145    2
