@<TRIPOS>MOLECULE
tmp/5hezD00.pdb
 128 127 0 0 0
SMALL
GASTEIGER

@<TRIPOS>ATOM
      1  N        -75.6100  -24.3630   12.5900 N.3   175  ILE175     -0.1231
      2  CA       -75.9100  -22.9950   12.1570 C.3   175  ILE175      0.1692
      3  C        -75.3310  -22.0030   13.1700 C.2   175  ILE175      0.2592
      4  O        -75.5700  -22.1230   14.3740 O.2   175  ILE175     -0.2718
      5  CB       -77.4290  -22.7280   11.8930 C.3   175  ILE175      0.0266
      6  CG1      -78.0530  -23.7880   10.9700 C.3   175  ILE175      0.0019
      7  CG2      -77.6620  -21.3040   11.3330 C.3   175  ILE175      0.0020
      8  CD1      -79.5620  -23.9570   11.1570 C.3   175  ILE175      0.0001
      9  N        -74.5510  -21.0480   12.6740 N.am  176  PHE176     -0.1962
     10  CA       -73.9850  -20.0050   13.5140 C.3   176  PHE176      0.1771
     11  C        -74.4710  -18.6310   13.0840 C.2   176  PHE176      0.2620
     12  O        -74.9030  -17.8590   13.9360 O.2   176  PHE176     -0.2715
     13  CB       -72.4490  -20.0730   13.5810 C.3   176  PHE176      0.0574
     14  CG       -71.8770  -19.0220   14.5040 C.ar  176  PHE176     -0.0200
     15  CD1      -71.7830  -19.2510   15.8750 C.ar  176  PHE176     -0.0042
     16  CD2      -71.4730  -17.7880   14.0080 C.ar  176  PHE176     -0.0042
     17  CE1      -71.2740  -18.2680   16.7280 C.ar  176  PHE176     -0.0003
     18  CE2      -70.9710  -16.8080   14.8580 C.ar  176  PHE176     -0.0003
     19  CZ       -70.8670  -17.0540   16.2140 C.ar  176  PHE176     -0.0000
     20  N        -74.3770  -18.3240   11.7780 N.am  177  TRP177     -0.1960
     21  CA       -74.7840  -17.0340   11.2340 C.3   177  TRP177      0.1771
     22  C        -76.2800  -16.9730   10.9700 C.2   177  TRP177      0.2619
     23  O        -76.7300  -17.0190    9.8130 O.2   177  TRP177     -0.2715
     24  CB       -73.9490  -16.6540   10.0080 C.3   177  TRP177      0.0590
     25  CG       -72.4830  -16.7170   10.2760 C.ar  177  TRP177      0.0006
     26  CD1      -71.6340  -17.7150    9.9150 C.ar  177  TRP177      0.0946
     27  CD2      -71.7160  -15.8000   11.0680 C.ar  177  TRP177      0.0152
     28  NE1      -70.3830  -17.4720   10.4140 N.ar  177  TRP177     -0.2442
     29  CE2      -70.4000  -16.2940   11.1150 C.ar  177  TRP177      0.0810
     30  CE3      -72.0060  -14.5890   11.7190 C.ar  177  TRP177      0.0012
     31  CZ2      -69.3820  -15.6380   11.8090 C.ar  177  TRP177      0.0191
     32  CZ3      -70.9880  -13.9310   12.3930 C.ar  177  TRP177      0.0001
     33  CH2      -69.6970  -14.4540   12.4340 C.ar  177  TRP177      0.0015
     34  N        -77.0520  -16.9020   12.0700 N.am  178  TYR178     -0.1974
     35  CA       -78.5020  -16.8310   12.0290 C.3   178  TYR178      0.1639
     36  C        -78.9410  -15.4730   11.5180 C.2   178  TYR178      0.2290
     37  O        -78.3220  -14.4560   11.8510 O.2   178  TYR178     -0.2864
     38  CB       -79.0910  -17.0270   13.4390 C.3   178  TYR178      0.0560
     39  CG       -79.0750  -18.4490   13.9480 C.ar  178  TYR178     -0.0198
     40  CD1      -80.0440  -19.3630   13.5490 C.ar  178  TYR178     -0.0009
     41  CD2      -78.1380  -18.8630   14.8870 C.ar  178  TYR178     -0.0009
     42  CE1      -80.0420  -20.6750   14.0220 C.ar  178  TYR178      0.0417
     43  CE2      -78.1300  -20.1690   15.3750 C.ar  178  TYR178      0.0417
     44  CZ       -79.0790  -21.0770   14.9330 C.ar  178  TYR178      0.1957
     45  OH       -79.0690  -22.3750   15.3920 O.3   178  TYR178     -0.2866
     46  N        -81.6640  -12.3380   11.7020 N.3   180  PRO180     -0.2116
     47  CA       -82.2920  -11.8580   12.9470 C.3   180  PRO180      0.1372
     48  C        -83.5750  -12.5950   13.3270 C.2   180  PRO180      0.2244
     49  O        -83.7020  -13.0260   14.4740 O.2   180  PRO180     -0.2868
     50  CB       -82.5250  -10.3630   12.6930 C.3   180  PRO180      0.0268
     51  CG       -81.5970  -10.0000   11.6190 C.3   180  PRO180      0.0207
     52  CD       -81.3920  -11.2190   10.7760 C.3   180  PRO180      0.0892
     53  N        -83.0510  -16.2500   14.7060 N.3   183  LEU183     -0.1245
     54  CA       -82.6080  -16.3130   16.0970 C.3   183  LEU183      0.1561
     55  C        -83.7320  -15.9080   17.0570 C.2   183  LEU183      0.2260
     56  O        -84.0240  -16.6440   18.0010 O.2   183  LEU183     -0.2867
     57  CB       -81.3580  -15.4280   16.2990 C.3   183  LEU183      0.0270
     58  CG       -80.6170  -15.5710   17.6340 C.3   183  LEU183      0.0019
     59  CD1      -79.6610  -16.7730   17.6180 C.3   183  LEU183      0.0001
     60  CD2      -79.8720  -14.2950   17.9780 C.3   183  LEU183      0.0001
     61  N        -79.5200  -14.1570    3.6740 N.3   195  TRP195     -0.1241
     62  CA       -78.7080  -13.6570    4.7880 C.3   195  TRP195      0.1605
     63  C        -77.4460  -14.5330    4.8690 C.2   195  TRP195      0.2264
     64  O        -76.3400  -13.9900    4.8700 O.2   195  TRP195     -0.2867
     65  CB       -79.4910  -13.6870    6.1190 C.3   195  TRP195      0.0550
     66  CG       -78.6790  -13.2880    7.3180 C.ar  195  TRP195      0.0003
     67  CD1      -77.7950  -14.0660    8.0120 C.ar  195  TRP195      0.0946
     68  CD2      -78.6710  -12.0060    7.9580 C.ar  195  TRP195      0.0152
     69  NE1      -77.2000  -13.3330    9.0130 N.ar  195  TRP195     -0.2442
     70  CE2      -77.7330  -12.0700    9.0150 C.ar  195  TRP195      0.0810
     71  CE3      -79.3780  -10.8090    7.7510 C.ar  195  TRP195      0.0012
     72  CZ2      -77.4680  -10.9740    9.8500 C.ar  195  TRP195      0.0191
     73  CZ3      -79.1270   -9.7320    8.5860 C.ar  195  TRP195      0.0001
     74  CH2      -78.1740   -9.8150    9.6120 C.ar  195  TRP195      0.0015
     75  N        -72.9110  -13.8590    4.1650 N.3   199  VAL199     -0.1245
     76  CA       -71.8020  -14.2950    5.0180 C.3   199  VAL199      0.1561
     77  C        -70.8590  -15.1680    4.1890 C.2   199  VAL199      0.2260
     78  O        -69.6440  -15.0290    4.3200 O.2   199  VAL199     -0.2867
     79  CB       -72.2750  -14.9940    6.3230 C.3   199  VAL199      0.0252
     80  CG1      -71.0890  -15.3730    7.2170 C.3   199  VAL199      0.0019
     81  CG2      -73.2550  -14.1110    7.0950 C.3   199  VAL199      0.0019
     82  N        -65.8580  -13.0050   14.3440 N.3   235  LEU235     -0.1245
     83  CA       -66.4250  -12.3530   15.5240 C.3   235  LEU235      0.1561
     84  C        -65.5560  -11.1640   15.9620 C.2   235  LEU235      0.2260
     85  O        -66.1100  -10.1380   16.3600 O.2   235  LEU235     -0.2867
     86  CB       -66.6370  -13.3400   16.6870 C.3   235  LEU235      0.0270
     87  CG       -67.8030  -14.3480   16.5670 C.3   235  LEU235      0.0019
     88  CD1      -67.7660  -15.3540   17.7060 C.3   235  LEU235      0.0001
     89  CD2      -69.1710  -13.6620   16.5390 C.3   235  LEU235      0.0001
     90  N        -66.0260   -8.3210   13.3780 N.3   238  LEU238     -0.1245
     91  CA       -67.3700   -7.8150   13.6660 C.3   238  LEU238      0.1561
     92  C        -67.2950   -6.8620   14.8570 C.2   238  LEU238      0.2260
     93  O        -67.8810   -5.7770   14.8220 O.2   238  LEU238     -0.2867
     94  CB       -68.2540   -9.0260   14.0030 C.3   238  LEU238      0.0270
     95  CG       -69.7570   -8.9970   13.7430 C.3   238  LEU238      0.0019
     96  CD1      -70.0850   -8.5030   12.3710 C.3   238  LEU238      0.0001
     97  CD2      -70.3320  -10.3990   13.8710 C.3   238  LEU238      0.0001
     98  N        -67.8880   -2.2260   14.7180 N.3   242  ASN242     -0.1225
     99  CA       -69.1310   -1.8320   15.4020 C.3   242  ASN242      0.1785
    100  C        -70.3710   -2.7320   15.1390 C.2   242  ASN242      0.2598
    101  O        -71.4890   -2.2290   15.0260 O.2   242  ASN242     -0.2718
    102  CB       -69.4590   -0.3590   15.1040 C.3   242  ASN242      0.1169
    103  CG       -68.4060    0.5760   15.6300 C.2   242  ASN242      0.2627
    104  OD1      -68.4310    0.9740   16.7980 O.2   242  ASN242     -0.2716
    105  ND2      -67.4270    0.9070   14.7980 N.am  242  ASN242     -0.0877
    106  N        -70.1640   -4.0450   15.1150 N.am  243  GLY243     -0.1942
    107  CA       -71.2450   -5.0150   14.9680 C.3   243  GLY243      0.2014
    108  C        -71.6330   -5.4030   13.5600 C.2   243  GLY243      0.2639
    109  O        -72.4650   -6.3000   13.3830 O.2   243  GLY243     -0.2714
    110  N        -71.0300   -4.7380   12.5570 N.am  244  ARG244     -0.1963
    111  CA       -71.2620   -4.9980   11.1330 C.3   244  ARG244      0.1729
    112  C        -70.0430   -5.6910   10.5060 C.2   244  ARG244      0.2616
    113  O        -68.9130   -5.4140   10.9110 O.2   244  ARG244     -0.2715
    114  CB       -71.5540   -3.6870   10.3910 C.3   244  ARG244      0.0348
    115  CG       -72.9380   -3.0880   10.7010 C.3   244  ARG244      0.0492
    116  CD       -73.1290   -1.6860   10.1250 C.3   244  ARG244      0.2205
    117  NE       -72.6990   -1.6000    8.7250 N.pl3 244  ARG244     -0.0865
    118  CZ       -73.4420   -1.9510    7.6800 C.cat 244  ARG244      0.5346
    119  NH1      -74.6840   -2.3880    7.8540 N.pl3 244  ARG244      0.1354
    120  NH2      -72.9520   -1.8620    6.4510 N.pl3 244  ARG244      0.1354
    121  N        -70.2610   -6.6140    9.5500 N.am  245  LEU245     -0.1977
    122  CA       -69.1310   -7.2760    8.8890 C.3   245  LEU245      0.1596
    123  C        -68.4060   -6.3040    7.9680 C.2   245  LEU245      0.2287
    124  O        -69.0640   -5.5820    7.2180 O.2   245  LEU245     -0.2864
    125  CB       -69.5190   -8.5720    8.1530 C.3   245  LEU245      0.0297
    126  CG       -69.6300   -9.8280    9.0110 C.3   245  LEU245      0.0022
    127  CD1      -70.3840  -10.9090    8.2960 C.3   245  LEU245      0.0001
    128  CD2      -68.2670  -10.3280    9.4540 C.3   245  LEU245      0.0001
@<TRIPOS>BOND
     1    61    62    1
     2    75    76    1
     3    77    78    2
     4    77    76    1
     5    62    63    1
     6    62    65    1
     7    63    64    2
     8    76    79    1
     9    65    66    1
    10    79    81    1
    11    79    80    1
    12   120   118    1
    13   124   123    2
    14    66    68   ar
    15    66    67   ar
    16   118   119    1
    17   118   117    2
    18    71    68   ar
    19    71    73   ar
    20    68    70   ar
    21   123   122    1
    22    67    69   ar
    23   125   122    1
    24   125   126    1
    25   127   126    1
    26    73    74   ar
    27   117   116    1
    28   122   121    1
    29   126   128    1
    30    69    70   ar
    31    70    72   ar
    32   121   112   am
    33    74    72   ar
    34    23    22    2
    35    26    25   ar
    36    26    28   ar
    37    24    25    1
    38    24    21    1
    39   116   115    1
    40    25    27   ar
    41   114   115    1
    42   114   111    1
    43    28    29   ar
    44   112   113    2
    45   112   111    1
    46    52    51    1
    47    52    46    1
    48     6     8    1
    49     6     5    1
    50    22    21    1
    51    22    34   am
    52    27    29   ar
    53    27    30   ar
    54    29    31   ar
    55   111   110    1
    56    21    20    1
    57     7     5    1
    58    36    37    2
    59    36    35    1
    60    51    50    1
    61    46    47    1
    62    30    32   ar
    63    20    11   am
    64    31    33   ar
    65     5     2    1
    66    35    34    1
    67    35    38    1
    68     2     1    1
    69     2     3    1
    70    96    95    1
    71    32    33   ar
    72   110   108   am
    73     9     3   am
    74     9    10    1
    75    50    47    1
    76    47    48    1
    77    11    10    1
    78    11    12    2
    79     3     4    2
    80    48    49    2
    81    90    91    1
    82   109   108    2
    83    38    39    1
    84    10    13    1
    85    40    39   ar
    86    40    42   ar
    87   108   107    1
    88    13    14    1
    89    91    94    1
    90    91    92    1
    91    95    97    1
    92    95    94    1
    93    39    41   ar
    94    16    14   ar
    95    16    18   ar
    96    42    44   ar
    97    82    83    1
    98    14    15   ar
    99    53    54    1
   100    98    99    1
   101   105   103   am
   102    93    92    2
   103    18    19   ar
   104    41    43   ar
   105    44    43   ar
   106    44    45    1
   107   107   106    1
   108   101   100    2
   109   102    99    1
   110   102   103    1
   111   106   100   am
   112   100    99    1
   113    83    84    1
   114    83    86    1
   115   103   104    2
   116    15    17   ar
   117    84    85    2
   118    54    57    1
   119    54    55    1
   120    19    17   ar
   121    57    58    1
   122    89    87    1
   123    87    86    1
   124    87    88    1
   125    55    56    2
   126    59    58    1
   127    58    60    1
