@<TRIPOS>MOLECULE
tmp/5hf2A00.pdb
 219 212 0 0 0
SMALL
GASTEIGER

@<TRIPOS>ATOM
      1  N          4.9250   24.7920    5.9370 N.3     7  ALA7       -0.1245
      2  CA         5.8060   24.2870    6.9770 C.3     7  ALA7        0.1562
      3  C          4.9220   23.7510    8.0980 C.2     7  ALA7        0.2260
      4  O          4.0840   24.4970    8.6080 O.2     7  ALA7       -0.2867
      5  CB         6.7240   25.3930    7.5090 C.3     7  ALA7        0.0290
      6  N          0.6180   24.3280   12.0420 N.3    14  ILE14      -0.1231
      7  CA         1.2460   25.3510   11.2050 C.3    14  ILE14       0.1692
      8  C          1.1900   26.7450   11.8440 C.2    14  ILE14       0.2592
      9  O          1.8570   27.6730   11.3830 O.2    14  ILE14      -0.2718
     10  CB         0.6130   25.4100    9.7750 C.3    14  ILE14       0.0266
     11  CG1       -0.8700   25.7850    9.8520 C.3    14  ILE14       0.0019
     12  CG2        0.7490   24.0670    9.0700 C.3    14  ILE14       0.0020
     13  CD1       -1.4940   26.0550    8.4740 C.3    14  ILE14       0.0001
     14  N          0.4210   26.9070   12.9110 N.am   15  GLY15      -0.1957
     15  CA         0.2670   28.2420   13.4720 C.3    15  GLY15       0.1869
     16  C         -0.2260   28.2420   14.9010 C.2    15  GLY15       0.2309
     17  O         -0.7970   27.2530   15.3640 O.2    15  GLY15      -0.2863
     18  N         -1.9070   31.3990   17.5390 N.3    17  GLU17      -0.1231
     19  CA        -2.2150   32.7930   17.8590 C.3    17  GLU17       0.1699
     20  C         -1.6060   33.7720   16.8620 C.2    17  GLU17       0.2592
     21  O         -0.8810   34.6950   17.2370 O.2    17  GLU17      -0.2718
     22  CB        -1.7650   33.1120   19.2810 C.3    17  GLU17       0.0402
     23  CG        -2.7350   32.5280   20.2950 C.3    17  GLU17       0.1161
     24  CD        -2.3210   32.7710   21.7240 C.2    17  GLU17       0.3649
     25  OE1       -1.2510   33.3670   21.9460 O.co2  17  GLU17      -0.2457
     26  OE2       -3.0700   32.3450   22.6230 O.co2  17  GLU17      -0.2457
     27  N         -1.9280   33.5320   15.5980 N.am   18  ASN18      -0.1960
     28  CA        -1.5520   34.3720   14.4560 C.3    18  ASN18       0.1819
     29  C         -0.0700   34.4390   14.1820 C.2    18  ASN18       0.2621
     30  O          0.4030   35.3870   13.5520 O.2    18  ASN18      -0.2715
     31  CB        -2.0790   35.8030   14.6430 C.3    18  ASN18       0.1195
     32  CG        -3.5750   35.9050   14.4460 C.2    18  ASN18       0.2630
     33  OD1       -4.2120   34.9840   13.9220 O.2    18  ASN18      -0.2716
     34  ND2       -4.1490   37.0360   14.8590 N.am   18  ASN18      -0.0877
     35  N          0.6720   33.4480   14.6620 N.am   19  GLN19      -0.1963
     36  CA         2.1210   33.4450   14.4910 C.3    19  GLN19       0.1733
     37  C          2.6010   32.0890   14.0090 C.2    19  GLN19       0.2616
     38  O          1.9310   31.0860   14.2260 O.2    19  GLN19      -0.2715
     39  CB         2.8320   33.7740   15.8050 C.3    19  GLN19       0.0408
     40  CG         2.3930   35.0490   16.4670 C.3    19  GLN19       0.0908
     41  CD         3.2220   36.2170   16.0340 C.2    19  GLN19       0.2608
     42  OE1        3.6040   36.3260   14.8640 O.2    19  GLN19      -0.2717
     43  NE2        3.5270   37.1020   16.9780 N.am   19  GLN19      -0.0878
     44  N          3.7630   32.0650   13.3690 N.am   20  LEU20      -0.1977
     45  CA         4.4880   30.8180   13.1950 C.3    20  LEU20       0.1596
     46  C          5.0330   30.4340   14.5590 C.2    20  LEU20       0.2287
     47  O          5.6350   31.2670   15.2190 O.2    20  LEU20      -0.2864
     48  CB         5.6360   30.9860   12.1960 C.3    20  LEU20       0.0297
     49  CG         5.2720   31.5740   10.8360 C.3    20  LEU20       0.0022
     50  CD1        6.5510   31.7930   10.0150 C.3    20  LEU20       0.0001
     51  CD2        4.2920   30.6440   10.1070 C.3    20  LEU20       0.0001
     52  N         -5.5210   32.6800    2.2130 N.3    43  GLY43      -0.1210
     53  CA        -6.7880   33.1160    2.7740 C.3    43  GLY43       0.1956
     54  C         -6.5830   34.4220    3.5070 C.2    43  GLY43       0.2612
     55  O         -5.4460   34.8160    3.8040 O.2    43  GLY43      -0.2717
     56  N         -7.6870   35.0950    3.8160 N.am   44  ARG44      -0.1965
     57  CA        -7.6220   36.4170    4.4190 C.3    44  ARG44       0.1729
     58  C         -6.8770   36.4240    5.7570 C.2    44  ARG44       0.2616
     59  O         -6.1160   37.3470    6.0450 O.2    44  ARG44      -0.2715
     60  CB        -9.0390   36.9730    4.6060 C.3    44  ARG44       0.0348
     61  CG        -9.0860   38.3920    5.1790 C.3    44  ARG44       0.0492
     62  CD        -9.3250   38.3810    6.6880 C.3    44  ARG44       0.2205
     63  NE       -10.5660   37.6800    7.0230 N.pl3  44  ARG44      -0.0865
     64  CZ       -10.9760   37.4300    8.2630 C.cat  44  ARG44       0.5346
     65  NH1      -10.2450   37.8220    9.2940 N.pl3  44  ARG44       0.1354
     66  NH2      -12.1200   36.7880    8.4670 N.pl3  44  ARG44       0.1354
     67  N         -7.0890   35.4020    6.5840 N.am   45  LYS45      -0.1963
     68  CA        -6.4730   35.4170    7.9140 C.3    45  LYS45       0.1728
     69  C         -4.9540   35.2730    7.8320 C.2    45  LYS45       0.2616
     70  O         -4.2100   35.9290    8.5760 O.2    45  LYS45      -0.2715
     71  CB        -7.0740   34.3090    8.7950 C.3    45  LYS45       0.0311
     72  CG        -8.5420   34.5160    9.0950 C.3    45  LYS45       0.0038
     73  CD        -9.0160   33.5220   10.1310 C.3    45  LYS45       0.0206
     74  CE       -10.4520   33.7780   10.5570 C.3    45  LYS45       0.1093
     75  NZ       -10.8970   32.7490   11.5540 N.3    45  LYS45      -0.1314
     76  N         -4.4910   34.4110    6.9300 N.am   46  THR46      -0.1951
     77  CA        -3.0680   34.2700    6.7180 C.3    46  THR46       0.1897
     78  C         -2.4850   35.5760    6.2570 C.2    46  THR46       0.2313
     79  O         -1.4520   36.0060    6.7720 O.2    46  THR46      -0.2863
     80  CB        -2.7450   33.1780    5.6980 C.3    46  THR46       0.1794
     81  OG1       -3.1900   31.9260    6.2190 O.3    46  THR46      -0.2208
     82  CG2       -1.2460   33.0720    5.4780 C.3    46  THR46       0.0378
     83  N         -2.1340   37.9250    9.0820 N.3    49  SER49      -0.1217
     84  CA        -1.0970   37.4730   10.0030 C.3    49  SER49       0.1889
     85  C          0.2390   37.9790    9.5180 C.2    49  SER49       0.2288
     86  O          1.0780   38.4280   10.3180 O.2    49  SER49      -0.2866
     87  CB        -1.0650   35.9440   10.1200 C.3    49  SER49       0.2089
     88  OG        -2.2460   35.4650   10.7610 O.3    49  SER49      -0.2183
     89  N         -7.6410   35.4350   -0.9020 N.3    62  LEU62      -0.1231
     90  CA        -9.0020   34.9480   -1.0440 C.3    62  LEU62       0.1693
     91  C         -9.8490   35.4020    0.1440 C.2    62  LEU62       0.2593
     92  O         -9.5260   35.1070    1.3020 O.2    62  LEU62      -0.2718
     93  CB        -8.9990   33.4110   -1.1540 C.3    62  LEU62       0.0284
     94  CG       -10.3560   32.7030   -1.2090 C.3    62  LEU62       0.0019
     95  CD1      -11.1790   33.1250   -2.3980 C.3    62  LEU62       0.0001
     96  CD2      -10.1570   31.1780   -1.2180 C.3    62  LEU62       0.0001
     97  N        -10.9180   36.1480   -0.1430 N.am   63  THR63      -0.1939
     98  CA       -11.8110   36.6450    0.9020 C.3    63  THR63       0.2028
     99  C        -13.2310   36.8460    0.3510 C.2    63  THR63       0.2643
    100  O        -13.4160   36.9730   -0.8620 O.2    63  THR63      -0.2714
    101  CB       -11.2890   37.9710    1.5090 C.3    63  THR63       0.1808
    102  OG1      -12.2420   38.4780    2.4470 O.3    63  THR63      -0.2208
    103  CG2      -11.0380   39.0090    0.4300 C.3    63  THR63       0.0379
    104  N        -14.2230   36.8490    1.2400 N.am   64  SER64      -0.1935
    105  CA       -15.6020   37.1390    0.8460 C.3    64  SER64       0.2055
    106  C        -15.8670   38.6360    0.9580 C.2    64  SER64       0.2643
    107  O        -16.9100   39.1180    0.5420 O.2    64  SER64      -0.2714
    108  CB       -16.5990   36.3580    1.7070 C.3    64  SER64       0.2130
    109  OG       -16.5860   36.8020    3.0590 O.3    64  SER64      -0.2179
    110  N        -14.9010   39.3580    1.5220 N.am   65  ASP65      -0.1971
    111  CA       -15.0240   40.7990    1.7850 C.3    65  ASP65       0.1709
    112  C        -14.8950   41.6130    0.4920 C.2    65  ASP65       0.2293
    113  O        -13.8160   41.7310   -0.0810 O.2    65  ASP65      -0.2864
    114  CB       -13.9560   41.2120    2.8140 C.3    65  ASP65       0.1436
    115  CG       -14.0900   42.6660    3.2940 C.2    65  ASP65       0.3671
    116  OD1      -14.8850   43.4340    2.7240 O.co2  65  ASP65      -0.2456
    117  OD2      -13.3820   43.0320    4.2630 O.co2  65  ASP65      -0.2456
    118  N        -12.4220   36.0520   -4.9330 N.3    77  HIS77      -0.1226
    119  CA       -13.5730   35.8320   -4.0530 C.3    77  HIS77       0.1752
    120  C        -14.1230   34.4130   -4.0940 C.2    77  HIS77       0.2597
    121  O        -15.1030   34.0860   -3.4110 O.2    77  HIS77      -0.2718
    122  CB       -14.7010   36.8220   -4.3890 C.3    77  HIS77       0.0759
    123  CG       -14.3350   38.2490   -4.1410 C.ar   77  HIS77       0.0818
    124  ND1      -14.0200   38.7280   -2.8870 N.ar   77  HIS77      -0.2268
    125  CD2      -14.2160   39.2980   -4.9870 C.ar   77  HIS77       0.1154
    126  CE1      -13.7190   40.0130   -2.9710 C.ar   77  HIS77       0.1986
    127  NE2      -13.8270   40.3820   -4.2370 N.ar   77  HIS77      -0.2212
    128  N        -13.4900   33.5520   -4.8730 N.am   78  SER78      -0.1938
    129  CA       -13.9330   32.1730   -4.9620 C.3    78  SER78       0.2055
    130  C        -12.7570   31.2470   -5.2500 C.2    78  SER78       0.2642
    131  O        -11.7810   31.6570   -5.8610 O.2    78  SER78      -0.2714
    132  CB       -15.0100   32.0470   -6.0400 C.3    78  SER78       0.2130
    133  OG       -15.0550   30.7440   -6.5760 O.3    78  SER78      -0.2179
    134  N        -12.8620   30.0000   -4.7900 N.am   79  ILE79      -0.1977
    135  CA       -11.8300   29.0010   -5.0380 C.3    79  ILE79       0.1596
    136  C        -11.6100   28.8330   -6.5380 C.2    79  ILE79       0.2287
    137  O        -10.4710   28.7270   -6.9950 O.2    79  ILE79      -0.2864
    138  CB       -12.1990   27.6460   -4.4120 C.3    79  ILE79       0.0276
    139  CG1      -11.9680   27.6820   -2.9080 C.3    79  ILE79       0.0022
    140  CG2      -11.3520   26.5330   -5.0000 C.3    79  ILE79       0.0022
    141  CD1      -10.5090   27.6910   -2.5290 C.3    79  ILE79       0.0001
    142  N         -0.5740   28.9920   -0.0850 N.3    92  PHE92      -0.1227
    143  CA         0.3570   29.4140    0.9600 C.3    92  PHE92       0.1736
    144  C         -0.2020   29.2650    2.3750 C.2    92  PHE92       0.2596
    145  O          0.5740   29.2750    3.3360 O.2    92  PHE92      -0.2718
    146  CB         0.7630   30.8740    0.7220 C.3    92  PHE92       0.0547
    147  CG         2.0340   31.3150    1.4470 C.ar   92  PHE92      -0.0202
    148  CD1        3.2520   30.6760    1.2180 C.ar   92  PHE92      -0.0042
    149  CD2        2.0170   32.4280    2.2820 C.ar   92  PHE92      -0.0042
    150  CE1        4.4230   31.1030    1.8610 C.ar   92  PHE92      -0.0003
    151  CE2        3.1830   32.8670    2.9220 C.ar   92  PHE92      -0.0003
    152  CZ         4.3880   32.1950    2.7080 C.ar   92  PHE92      -0.0000
    153  N         -1.5260   29.1460    2.5130 N.am   93  GLY93      -0.1942
    154  CA        -2.1460   29.0670    3.8400 C.3    93  GLY93       0.2014
    155  C         -3.5270   29.7130    3.8500 C.2    93  GLY93       0.2639
    156  O         -3.8730   30.3840    2.8680 O.2    93  GLY93      -0.2714
    157  N         -4.3310   29.5260    4.9090 N.am   94  GLY94      -0.1939
    158  CA        -3.9540   28.7860    6.1110 C.3    94  GLY94       0.2014
    159  C         -4.6170   27.4250    6.1740 C.2    94  GLY94       0.2639
    160  O         -4.7040   26.7250    5.1650 O.2    94  GLY94      -0.2714
    161  N         -5.0540   27.0200    7.3640 N.am   95  GLN95      -0.1963
    162  CA        -5.7110   25.7140    7.5070 C.3    95  GLN95       0.1733
    163  C         -6.9140   25.5800    6.5720 C.2    95  GLN95       0.2617
    164  O         -7.0760   24.5750    5.8690 O.2    95  GLN95      -0.2715
    165  CB        -6.1470   25.4900    8.9580 C.3    95  GLN95       0.0408
    166  CG        -6.9980   24.2240    9.1410 C.3    95  GLN95       0.0908
    167  CD        -7.2910   23.8730   10.5990 C.2    95  GLN95       0.2608
    168  OE1       -6.6070   24.3210   11.5240 O.2    95  GLN95      -0.2717
    169  NE2       -8.3350   23.0670   10.8070 N.am   95  GLN95      -0.0878
    170  N         -7.7560   26.6060    6.5390 N.am   96  THR96      -0.1937
    171  CA        -8.9690   26.5310    5.7420 C.3    96  THR96       0.2028
    172  C         -8.6500   26.3420    4.2650 C.2    96  THR96       0.2642
    173  O         -9.1720   25.4270    3.6290 O.2    96  THR96      -0.2714
    174  CB        -9.8370   27.7790    5.9380 C.3    96  THR96       0.1808
    175  OG1      -10.2170   27.8620    7.3230 O.3    96  THR96      -0.2208
    176  CG2      -11.1020   27.6590    5.1000 C.3    96  THR96       0.0379
    177  N         -7.7590   27.1690    3.7290 N.am   97  LEU97      -0.1963
    178  CA        -7.4230   27.0700    2.3100 C.3    97  LEU97       0.1728
    179  C         -6.7590   25.7270    1.9820 C.2    97  LEU97       0.2616
    180  O         -7.0770   25.1030    0.9550 O.2    97  LEU97      -0.2715
    181  CB        -6.5170   28.2270    1.8860 C.3    97  LEU97       0.0311
    182  CG        -6.3850   28.3700    0.3730 C.3    97  LEU97       0.0022
    183  CD1       -7.7670   28.3960   -0.2710 C.3    97  LEU97       0.0001
    184  CD2       -5.6350   29.6310    0.0540 C.3    97  LEU97       0.0001
    185  N         -5.8620   25.2730    2.8570 N.am   98  PHE98      -0.1974
    186  CA        -5.2240   23.9710    2.6670 C.3    98  PHE98       0.1639
    187  C         -6.2940   22.8710    2.6420 C.2    98  PHE98       0.2290
    188  O         -6.2450   21.9700    1.8060 O.2    98  PHE98      -0.2864
    189  CB        -4.1800   23.6900    3.7650 C.3    98  PHE98       0.0560
    190  CG        -2.8920   24.4760    3.6100 C.ar   98  PHE98      -0.0200
    191  CD1       -2.3650   24.7460    2.3540 C.ar   98  PHE98      -0.0042
    192  CD2       -2.2140   24.9320    4.7250 C.ar   98  PHE98      -0.0042
    193  CE1       -1.1860   25.4690    2.2220 C.ar   98  PHE98      -0.0003
    194  CE2       -1.0420   25.6460    4.6140 C.ar   98  PHE98      -0.0003
    195  CZ        -0.5110   25.9150    3.3680 C.ar   98  PHE98      -0.0000
    196  N         -9.2700   23.1570    1.6660 N.3   100  GLU100     -0.1245
    197  CA       -10.0070   23.3000    0.4240 C.3   100  GLU100      0.1567
    198  C         -9.2070   22.8490   -0.7860 C.2   100  GLU100      0.2260
    199  O         -9.7930   22.4480   -1.7920 O.2   100  GLU100     -0.2867
    200  CB       -10.4620   24.7450    0.2410 C.3   100  GLU100      0.0388
    201  CG       -11.5080   25.1720    1.2730 C.3   100  GLU100      0.1160
    202  CD       -11.9030   26.6270    1.1030 C.2   100  GLU100      0.3649
    203  OE1      -11.1340   27.5100    1.5300 O.co2 100  GLU100     -0.2457
    204  OE2      -12.9680   26.8810    0.5190 O.co2 100  GLU100     -0.2457
    205  N         -2.8510   26.1080   17.1350 N.3   120  ASP120     -0.1225
    206  CA        -4.3020   26.2140   17.0010 C.3   120  ASP120      0.1805
    207  C         -4.7260   26.1160   15.5500 C.2   120  ASP120      0.2598
    208  O         -5.9070   26.2880   15.2200 O.2   120  ASP120     -0.2718
    209  CB        -4.8460   27.5170   17.6300 C.3   120  ASP120      0.1424
    210  CG        -4.1500   28.7660   17.1200 C.2   120  ASP120      0.3668
    211  OD1       -3.6710   28.7740   15.9610 O.co2 120  ASP120     -0.2456
    212  OD2       -4.0900   29.7470   17.8910 O.co2 120  ASP120     -0.2456
    213  N         -3.7540   25.8140   14.6930 N.am  121  THR121     -0.1953
    214  CA        -3.9380   25.8130   13.2490 C.3   121  THR121      0.1897
    215  C         -3.1580   24.6570   12.6400 C.2   121  THR121      0.2313
    216  O         -1.9670   24.5000   12.9310 O.2   121  THR121     -0.2863
    217  CB        -3.4510   27.1330   12.6300 C.3   121  THR121      0.1794
    218  OG1       -3.9760   28.2400   13.3740 O.3   121  THR121     -0.2208
    219  CG2       -3.8810   27.2420   11.1660 C.3   121  THR121      0.0378
@<TRIPOS>BOND
     1   137   136    2
     2   133   132    1
     3   136   135    1
     4   132   129    1
     5   131   130    2
     6   130   129    1
     7   130   134   am
     8   135   134    1
     9   135   138    1
    10   140   138    1
    11   125   127   ar
    12   125   123   ar
    13   129   128    1
    14   118   119    1
    15   128   120   am
    16   138   139    1
    17   122   123    1
    18   122   119    1
    19   127   126   ar
    20   123   124   ar
    21   120   119    1
    22   120   121    2
    23   126   124   ar
    24   139   141    1
    25    95    94    1
    26   199   198    2
    27    96    94    1
    28    94    93    1
    29    93    90    1
    30    90    89    1
    31    90    91    1
    32   100    99    2
    33   198   197    1
    34   183   182    1
    35    97    91   am
    36    97    98    1
    37   142   143    1
    38   113   112    2
    39   184   182    1
    40    91    92    2
    41   200   197    1
    42   200   201    1
    43    99    98    1
    44    99   104   am
    45   182   181    1
    46   197   196    1
    47   103   101    1
    48   112   111    1
    49   204   202   ar
    50   107   106    2
    51   146   143    1
    52   146   147    1
    53   105   106    1
    54   105   104    1
    55   105   108    1
    56    98   101    1
    57   180   179    2
    58   106   110   am
    59   143   144    1
    60   202   201    1
    61   202   203   ar
    62   148   147   ar
    63   148   150   ar
    64   147   149   ar
    65   101   102    1
    66   110   111    1
    67   108   109    1
    68   111   114    1
    69   188   187    2
    70   150   152   ar
    71   181   178    1
    72   179   178    1
    73   179   185   am
    74    52    53    1
    75   193   191   ar
    76   193   195   ar
    77   149   151   ar
    78   178   177    1
    79   191   190   ar
    80   144   153   am
    81   144   145    2
    82   153   154    1
    83   187   186    1
    84   186   185    1
    85   186   189    1
    86   152   151   ar
    87   116   115   ar
    88    53    54    1
    89   114   115    1
    90   156   155    2
    91   115   117   ar
    92   195   194   ar
    93    54    55    2
    94    54    56   am
    95   190   189    1
    96   190   192   ar
    97   173   172    2
    98   177   172   am
    99    56    57    1
   100   154   155    1
   101   155   157   am
   102   172   171    1
   103    57    60    1
   104    57    58    1
   105    60    61    1
   106   194   192   ar
   107   157   158    1
   108   176   174    1
   109   160   159    2
   110    61    62    1
   111    82    80    1
   112    80    81    1
   113    80    77    1
   114   171   174    1
   115   171   170    1
   116    58    59    2
   117    58    67   am
   118   164   163    2
   119     1     2    1
   120   174   175    1
   121   158   159    1
   122   159   161   am
   123    78    77    1
   124    78    79    2
   125   170   163   am
   126   163   162    1
   127    67    68    1
   128    62    63    1
   129    77    76    1
   130    76    69   am
   131     2     5    1
   132     2     3    1
   133    63    64    2
   134   161   162    1
   135   162   165    1
   136    69    68    1
   137    69    70    2
   138    68    71    1
   139     3     4    2
   140    64    66    1
   141    64    65    1
   142    13    11    1
   143    71    72    1
   144   165   166    1
   145    12    10    1
   146    83    84    1
   147    72    73    1
   148   166   167    1
   149    85    84    1
   150    85    86    2
   151    10    11    1
   152    10     7    1
   153    84    87    1
   154    50    49    1
   155    51    49    1
   156    87    88    1
   157    73    74    1
   158    74    75    1
   159   167   169   am
   160   167   168    2
   161    49    48    1
   162   219   217    1
   163     7     8    1
   164     7     6    1
   165     9     8    2
   166     8    14   am
   167    48    45    1
   168   217   214    1
   169   217   218    1
   170   215   216    2
   171   215   214    1
   172    14    15    1
   173    45    44    1
   174    45    46    1
   175   214   213    1
   176    44    37   am
   177    15    16    1
   178    30    29    2
   179    33    32    2
   180    37    38    2
   181    37    36    1
   182    29    28    1
   183    29    35   am
   184    32    31    1
   185    32    34   am
   186    28    31    1
   187    28    27    1
   188    36    35    1
   189    36    39    1
   190    46    47    2
   191   213   207   am
   192    42    41    2
   193    16    17    2
   194   208   207    2
   195   207   206    1
   196    27    20   am
   197    39    40    1
   198   211   210   ar
   199    41    40    1
   200    41    43   am
   201    20    21    2
   202    20    19    1
   203   206   205    1
   204   206   209    1
   205   210   209    1
   206   210   212   ar
   207    18    19    1
   208    19    22    1
   209    22    23    1
   210    23    24    1
   211    24    25   ar
   212    24    26   ar
