@<TRIPOS>MOLECULE
tmp/5hf2A01.pdb
 163 157 0 0 0
SMALL
GASTEIGER

@<TRIPOS>ATOM
      1  N          2.5130   25.0000   -0.5870 N.3     5  LEU5       -0.1231
      2  CA         3.7510   25.3730    0.1010 C.3     5  LEU5        0.1693
      3  C          3.4550   25.5360    1.5830 C.2     5  LEU5        0.2592
      4  O          2.6650   26.3870    1.9570 O.2     5  LEU5       -0.2718
      5  CB         4.3090   26.6700   -0.4820 C.3     5  LEU5        0.0284
      6  CG         5.5640   27.3190    0.1030 C.3     5  LEU5        0.0019
      7  CD1        6.7420   26.3420    0.0740 C.3     5  LEU5        0.0001
      8  CD2        5.8990   28.6090   -0.6700 C.3     5  LEU5        0.0001
      9  N          4.0790   24.7310    2.4360 N.am    6  VAL6       -0.1966
     10  CA         3.7010   24.7280    3.8530 C.3     6  VAL6        0.1727
     11  C          4.8650   24.2560    4.7220 C.2     6  VAL6        0.2616
     12  O          5.6910   23.4340    4.3000 O.2     6  VAL6       -0.2715
     13  CB         2.4470   23.8300    4.1090 C.3     6  VAL6        0.0290
     14  CG1        2.7390   22.3490    3.7600 C.3     6  VAL6        0.0023
     15  CG2        1.9580   23.9260    5.5600 C.3     6  VAL6        0.0023
     16  N          4.9250   24.7920    5.9370 N.am    7  ALA7       -0.1977
     17  CA         5.8060   24.2870    6.9770 C.3     7  ALA7        0.1597
     18  C          4.9220   23.7510    8.0980 C.2     7  ALA7        0.2287
     19  O          4.0840   24.4970    8.6080 O.2     7  ALA7       -0.2864
     20  CB         6.7240   25.3930    7.5090 C.3     7  ALA7        0.0319
     21  N         -1.9280   33.5320   15.5980 N.3    18  ASN18      -0.1225
     22  CA        -1.5520   34.3720   14.4560 C.3    18  ASN18       0.1785
     23  C         -0.0700   34.4390   14.1820 C.2    18  ASN18       0.2597
     24  O          0.4030   35.3870   13.5520 O.2    18  ASN18      -0.2718
     25  CB        -2.0790   35.8030   14.6430 C.3    18  ASN18       0.1169
     26  CG        -3.5750   35.9050   14.4460 C.2    18  ASN18       0.2627
     27  OD1       -4.2120   34.9840   13.9220 O.2    18  ASN18      -0.2716
     28  ND2       -4.1490   37.0360   14.8590 N.am   18  ASN18      -0.0877
     29  N          0.6720   33.4480   14.6620 N.am   19  GLN19      -0.1965
     30  CA         2.1210   33.4450   14.4910 C.3    19  GLN19       0.1733
     31  C          2.6010   32.0890   14.0090 C.2    19  GLN19       0.2616
     32  O          1.9310   31.0860   14.2260 O.2    19  GLN19      -0.2715
     33  CB         2.8320   33.7740   15.8050 C.3    19  GLN19       0.0408
     34  CG         2.3930   35.0490   16.4670 C.3    19  GLN19       0.0908
     35  CD         3.2220   36.2170   16.0340 C.2    19  GLN19       0.2608
     36  OE1        3.6040   36.3260   14.8640 O.2    19  GLN19      -0.2717
     37  NE2        3.5270   37.1020   16.9780 N.am   19  GLN19      -0.0878
     38  N          3.7630   32.0650   13.3690 N.am   20  LEU20      -0.1977
     39  CA         4.4880   30.8180   13.1950 C.3    20  LEU20       0.1596
     40  C          5.0330   30.4340   14.5590 C.2    20  LEU20       0.2287
     41  O          5.6350   31.2670   15.2190 O.2    20  LEU20      -0.2864
     42  CB         5.6360   30.9860   12.1960 C.3    20  LEU20       0.0297
     43  CG         5.2720   31.5740   10.8360 C.3    20  LEU20       0.0022
     44  CD1        6.5510   31.7930   10.0150 C.3    20  LEU20       0.0001
     45  CD2        4.2920   30.6440   10.1070 C.3    20  LEU20       0.0001
     46  N          7.5280   28.5880   15.4340 N.3    22  TRP22      -0.1241
     47  CA         8.9720   28.3970   15.4520 C.3    22  TRP22       0.1605
     48  C          9.6690   29.5270   14.7060 C.2    22  TRP22       0.2264
     49  O          9.0400   30.2500   13.9390 O.2    22  TRP22      -0.2867
     50  CB         9.3410   27.0710   14.8010 C.3    22  TRP22       0.0550
     51  CG         8.6290   26.9350   13.4990 C.ar   22  TRP22       0.0003
     52  CD1        8.9570   27.5470   12.3090 C.ar   22  TRP22       0.0946
     53  CD2        7.4420   26.1800   13.2470 C.ar   22  TRP22       0.0152
     54  NE1        8.0420   27.2160   11.3410 N.ar   22  TRP22      -0.2442
     55  CE2        7.1010   26.3780   11.8890 C.ar   22  TRP22       0.0810
     56  CE3        6.6300   25.3520   14.0380 C.ar   22  TRP22       0.0012
     57  CZ2        5.9890   25.7700   11.3020 C.ar   22  TRP22       0.0191
     58  CZ3        5.5300   24.7570   13.4540 C.ar   22  TRP22       0.0001
     59  CH2        5.2170   24.9680   12.1010 C.ar   22  TRP22       0.0015
     60  N         13.9120   28.2650    6.5430 N.3    27  ASP27      -0.1225
     61  CA        12.6420   28.0010    5.8790 C.3    27  ASP27       0.1805
     62  C         12.1390   29.2800    5.2200 C.2    27  ASP27       0.2597
     63  O         11.5730   29.2300    4.1430 O.2    27  ASP27      -0.2718
     64  CB        11.6050   27.4400    6.8610 C.3    27  ASP27       0.1424
     65  CG        10.2510   27.2550    6.2160 C.2    27  ASP27       0.3668
     66  OD1       10.1240   26.4210    5.2880 O.co2  27  ASP27      -0.2456
     67  OD2        9.3170   27.9690    6.6270 O.co2  27  ASP27      -0.2456
     68  N         12.3560   30.4290    5.8490 N.am   28  LEU28      -0.1979
     69  CA        11.9680   31.6680    5.1830 C.3    28  LEU28       0.1596
     70  C         12.7280   31.8040    3.8550 C.2    28  LEU28       0.2287
     71  O         12.1630   32.2490    2.8530 O.2    28  LEU28      -0.2864
     72  CB        12.2320   32.8860    6.0740 C.3    28  LEU28       0.0297
     73  CG        11.6870   32.8870    7.5090 C.3    28  LEU28       0.0022
     74  CD1       11.8880   34.2630    8.1500 C.3    28  LEU28       0.0001
     75  CD2       10.2190   32.4520    7.5860 C.3    28  LEU28       0.0001
     76  N         13.8630   29.3460    1.9840 N.3    30  HIS30      -0.1226
     77  CA        13.2230   28.3320    1.1570 C.3    30  HIS30       0.1752
     78  C         11.9780   28.8950    0.4540 C.2    30  HIS30       0.2596
     79  O         11.7850   28.7290   -0.7580 O.2    30  HIS30      -0.2718
     80  CB        12.8760   27.1490    2.0620 C.3    30  HIS30       0.0759
     81  CG        12.2180   26.0000    1.3640 C.ar   30  HIS30       0.0818
     82  ND1       12.8700   25.2210    0.4340 N.ar   30  HIS30      -0.2268
     83  CD2       10.9800   25.4760    1.4960 C.ar   30  HIS30       0.1154
     84  CE1       12.0540   24.2750    0.0070 C.ar   30  HIS30       0.1986
     85  NE2       10.8970   24.4090    0.6380 N.ar   30  HIS30      -0.2212
     86  N         11.1400   29.5810    1.2190 N.am   31  VAL31      -0.1966
     87  CA         9.9330   30.1940    0.6710 C.3    31  VAL31       0.1727
     88  C         10.2860   31.2820   -0.3300 C.2    31  VAL31       0.2616
     89  O          9.6860   31.3450   -1.3990 O.2    31  VAL31      -0.2715
     90  CB         9.0570   30.7820    1.7750 C.3    31  VAL31       0.0290
     91  CG1        7.9890   31.7030    1.1940 C.3    31  VAL31       0.0023
     92  CG2        8.4080   29.6460    2.5430 C.3    31  VAL31       0.0023
     93  N         11.2710   32.1090    0.0140 N.am   32  LYS32      -0.1977
     94  CA        11.7490   33.1650   -0.8860 C.3    32  LYS32       0.1596
     95  C         12.2470   32.5910   -2.2150 C.2    32  LYS32       0.2287
     96  O         11.8840   33.0810   -3.2840 O.2    32  LYS32      -0.2864
     97  CB        12.8650   33.9770   -0.2180 C.3    32  LYS32       0.0298
     98  CG        13.3810   35.1530   -1.0650 C.3    32  LYS32       0.0038
     99  CD        14.4320   35.9360   -0.3080 C.3    32  LYS32       0.0206
    100  CE        14.9490   37.1050   -1.1420 C.3    32  LYS32       0.1093
    101  NZ        16.0220   37.8490   -0.4250 N.3    32  LYS32      -0.1314
    102  N         -4.4910   34.4110    6.9300 N.3    46  THR46      -0.1218
    103  CA        -3.0680   34.2700    6.7180 C.3    46  THR46       0.1862
    104  C         -2.4850   35.5760    6.2570 C.2    46  THR46       0.2287
    105  O         -1.4520   36.0060    6.7720 O.2    46  THR46      -0.2866
    106  CB        -2.7450   33.1780    5.6980 C.3    46  THR46       0.1770
    107  OG1       -3.1900   31.9260    6.2190 O.3    46  THR46      -0.2211
    108  CG2       -1.2460   33.0720    5.4780 C.3    46  THR46       0.0375
    109  N         -2.1340   37.9250    9.0820 N.3    49  SER49      -0.1202
    110  CA        -1.0970   37.4730   10.0030 C.3    49  SER49       0.2020
    111  C          0.2390   37.9790    9.5180 C.2    49  SER49       0.2618
    112  O          1.0780   38.4280   10.3180 O.2    49  SER49      -0.2717
    113  CB        -1.0650   35.9440   10.1200 C.3    49  SER49       0.2103
    114  OG        -2.2460   35.4650   10.7610 O.3    49  SER49      -0.2182
    115  N          0.4490   37.9070    8.2020 N.am   50  ILE50      -0.1979
    116  CA         1.6950   38.4130    7.6260 C.3    50  ILE50       0.1595
    117  C          1.7290   39.9340    7.7370 C.2    50  ILE50       0.2287
    118  O          2.7050   40.5010    8.2160 O.2    50  ILE50      -0.2864
    119  CB         1.8750   37.9950    6.1600 C.3    50  ILE50       0.0276
    120  CG1        1.9150   36.4700    6.0490 C.3    50  ILE50       0.0022
    121  CG2        3.1440   38.5940    5.6040 C.3    50  ILE50       0.0022
    122  CD1        1.9410   35.9650    4.6120 C.3    50  ILE50       0.0001
    123  N          4.2770   39.9090    0.2710 N.3    54  LEU54      -0.1245
    124  CA         5.6850   39.5580    0.2020 C.3    54  LEU54       0.1561
    125  C          6.2590   40.0770   -1.1180 C.2    54  LEU54       0.2260
    126  O          5.6140   39.9800   -2.1630 O.2    54  LEU54      -0.2867
    127  CB         5.8670   38.0510    0.3410 C.3    54  LEU54       0.0270
    128  CG         5.4160   37.4980    1.6990 C.3    54  LEU54       0.0019
    129  CD1        5.8970   36.0690    1.9030 C.3    54  LEU54       0.0001
    130  CD2        5.9260   38.3830    2.8170 C.3    54  LEU54       0.0001
    131  N         -0.5740   28.9920   -0.0850 N.3    92  PHE92      -0.1227
    132  CA         0.3570   29.4140    0.9600 C.3    92  PHE92       0.1736
    133  C         -0.2020   29.2650    2.3750 C.2    92  PHE92       0.2596
    134  O          0.5740   29.2750    3.3360 O.2    92  PHE92      -0.2718
    135  CB         0.7630   30.8740    0.7220 C.3    92  PHE92       0.0547
    136  CG         2.0340   31.3150    1.4470 C.ar   92  PHE92      -0.0202
    137  CD1        3.2520   30.6760    1.2180 C.ar   92  PHE92      -0.0042
    138  CD2        2.0170   32.4280    2.2820 C.ar   92  PHE92      -0.0042
    139  CE1        4.4230   31.1030    1.8610 C.ar   92  PHE92      -0.0003
    140  CE2        3.1830   32.8670    2.9220 C.ar   92  PHE92      -0.0003
    141  CZ         4.3880   32.1950    2.7080 C.ar   92  PHE92      -0.0000
    142  N         -1.5260   29.1460    2.5130 N.am   93  GLY93      -0.1957
    143  CA        -2.1460   29.0670    3.8400 C.3    93  GLY93       0.1869
    144  C         -3.5270   29.7130    3.8500 C.2    93  GLY93       0.2309
    145  O         -3.8730   30.3840    2.8680 O.2    93  GLY93      -0.2863
    146  N         -5.8620   25.2730    2.8570 N.3    98  PHE98      -0.1241
    147  CA        -5.2240   23.9710    2.6670 C.3    98  PHE98       0.1605
    148  C         -6.2940   22.8710    2.6420 C.2    98  PHE98       0.2264
    149  O         -6.2450   21.9700    1.8060 O.2    98  PHE98      -0.2867
    150  CB        -4.1800   23.6900    3.7650 C.3    98  PHE98       0.0534
    151  CG        -2.8920   24.4760    3.6100 C.ar   98  PHE98      -0.0203
    152  CD1       -2.3650   24.7460    2.3540 C.ar   98  PHE98      -0.0042
    153  CD2       -2.2140   24.9320    4.7250 C.ar   98  PHE98      -0.0042
    154  CE1       -1.1860   25.4690    2.2220 C.ar   98  PHE98      -0.0003
    155  CE2       -1.0420   25.6460    4.6140 C.ar   98  PHE98      -0.0003
    156  CZ        -0.5110   25.9150    3.3680 C.ar   98  PHE98      -0.0000
    157  N          7.8970   21.7100    4.4490 N.3   111  THR111     -0.1218
    158  CA         8.9860   21.7130    5.4160 C.3   111  THR111      0.1862
    159  C          8.4830   21.0210    6.6720 C.2   111  THR111      0.2287
    160  O          7.5980   21.5340    7.3440 O.2   111  THR111     -0.2866
    161  CB         9.4590   23.1230    5.7780 C.3   111  THR111      0.1770
    162  OG1        9.8330   23.8400    4.5890 O.3   111  THR111     -0.2211
    163  CG2       10.6580   23.0340    6.7250 C.3   111  THR111      0.0375
@<TRIPOS>BOND
     1    96    95    2
     2    95    94    1
     3   126   125    2
     4    89    88    2
     5   100   101    1
     6   100    99    1
     7   125   124    1
     8    98    99    1
     9    98    97    1
    10    94    97    1
    11    94    93    1
    12    79    78    2
    13     8     6    1
    14     1     2    1
    15     5     2    1
    16     5     6    1
    17    88    93   am
    18    88    87    1
    19   131   132    1
    20    84    82   ar
    21    84    85   ar
    22     7     6    1
    23     2     3    1
    24   124   123    1
    25   124   127    1
    26   127   128    1
    27    82    81   ar
    28    78    77    1
    29    78    86   am
    30    85    83   ar
    31    87    86    1
    32    87    90    1
    33   135   132    1
    34   135   136    1
    35   132   133    1
    36    77    76    1
    37    77    80    1
    38    91    90    1
    39   137   136   ar
    40   137   139   ar
    41    81    83   ar
    42    81    80    1
    43   136   138   ar
    44     3     4    2
    45     3     9   am
    46   128   129    1
    47   128   130    1
    48    90    92    1
    49   149   148    2
    50   139   141   ar
    51   154   152   ar
    52   154   156   ar
    53   138   140   ar
    54   152   151   ar
    55   133   142   am
    56   133   134    2
    57     9    10    1
    58   142   143    1
    59   148   147    1
    60   147   146    1
    61   147   150    1
    62   141   140   ar
    63    71    70    2
    64   145   144    2
    65   156   155   ar
    66   151   150    1
    67   151   153   ar
    68    14    13    1
    69   143   144    1
    70    10    13    1
    71    10    11    1
    72    70    69    1
    73    13    15    1
    74    63    62    2
    75    12    11    2
    76   157   158    1
    77   162   161    1
    78   122   120    1
    79   155   153   ar
    80    11    16   am
    81    69    68    1
    82    69    72    1
    83    62    68   am
    84    62    61    1
    85    66    65   ar
    86   158   161    1
    87   158   159    1
    88   108   106    1
    89   121   119    1
    90   106   107    1
    91   106   103    1
    92   161   163    1
    93    61    60    1
    94    61    64    1
    95    16    17    1
    96   120   119    1
    97    72    73    1
    98   119   116    1
    99    65    67   ar
   100    65    64    1
   101   104   103    1
   102   104   105    2
   103   159   160    2
   104   103   102    1
   105    17    20    1
   106    17    18    1
   107    73    75    1
   108    73    74    1
   109   116   117    1
   110   116   115    1
   111   117   118    2
   112    18    19    2
   113   115   111   am
   114   109   110    1
   115   111   110    1
   116   111   112    2
   117   110   113    1
   118    44    43    1
   119    45    43    1
   120   113   114    1
   121    43    42    1
   122    57    55   ar
   123    57    59   ar
   124    54    55   ar
   125    54    52   ar
   126    55    53   ar
   127    59    58   ar
   128    42    39    1
   129    52    51   ar
   130    39    38    1
   131    39    40    1
   132    53    51   ar
   133    53    56   ar
   134    38    31   am
   135    58    56   ar
   136    51    50    1
   137    24    23    2
   138    27    26    2
   139    49    48    2
   140    31    32    2
   141    31    30    1
   142    23    22    1
   143    23    29   am
   144    26    25    1
   145    26    28   am
   146    22    25    1
   147    22    21    1
   148    30    29    1
   149    30    33    1
   150    40    41    2
   151    48    47    1
   152    50    47    1
   153    36    35    2
   154    46    47    1
   155    33    34    1
   156    35    34    1
   157    35    37   am
