@<TRIPOS>MOLECULE
tmp/5hfaA04.pdb
 134 133 0 0 0
SMALL
GASTEIGER

@<TRIPOS>ATOM
      1  N        -17.8830  -35.7690   33.8270 N.3    69  TYR69      -0.1241
      2  CA       -18.8690  -36.7780   33.5060 C.3    69  TYR69       0.1605
      3  C        -18.5460  -38.0590   34.2480 C.2    69  TYR69       0.2264
      4  O        -17.3750  -38.4070   34.3680 O.2    69  TYR69      -0.2867
      5  CB       -18.8860  -37.0160   31.9790 C.3    69  TYR69       0.0534
      6  CG       -19.6340  -38.2540   31.5480 C.ar   69  TYR69      -0.0201
      7  CD1      -21.0170  -38.2240   31.3520 C.ar   69  TYR69      -0.0009
      8  CD2      -18.9690  -39.4540   31.3370 C.ar   69  TYR69      -0.0009
      9  CE1      -21.7180  -39.3630   30.9620 C.ar   69  TYR69       0.0417
     10  CE2      -19.6600  -40.5980   30.9370 C.ar   69  TYR69       0.0417
     11  CZ       -21.0340  -40.5440   30.7550 C.ar   69  TYR69       0.1957
     12  OH       -21.7280  -41.6710   30.3750 O.3    69  TYR69      -0.2866
     13  N        -18.9680  -42.1580   34.2720 N.3    71  ASP71      -0.1239
     14  CA       -19.2420  -43.3150   33.4010 C.3    71  ASP71       0.1674
     15  C        -20.3450  -44.2190   33.9560 C.2    71  ASP71       0.2266
     16  O        -20.1860  -44.7960   35.0230 O.2    71  ASP71      -0.2867
     17  CB       -17.9600  -44.1380   33.2000 C.3    71  ASP71       0.1410
     18  CG       -18.0960  -45.2260   32.1090 C.2    71  ASP71       0.3668
     19  OD1      -19.1320  -45.3020   31.4220 O.co2  71  ASP71      -0.2456
     20  OD2      -17.1470  -46.0190   31.9400 O.co2  71  ASP71      -0.2456
     21  N        -11.3020  -35.1590   29.9300 N.3   121  TYR121     -0.1241
     22  CA       -12.6770  -34.8740   30.3650 C.3   121  TYR121      0.1605
     23  C        -12.9460  -35.4970   31.7510 C.2   121  TYR121      0.2264
     24  O        -14.0170  -35.2980   32.3220 O.2   121  TYR121     -0.2867
     25  CB       -13.7480  -35.3750   29.3510 C.3   121  TYR121      0.0534
     26  CG       -13.8500  -36.8870   29.2490 C.ar  121  TYR121     -0.0201
     27  CD1      -14.6380  -37.6210   30.1400 C.ar  121  TYR121     -0.0009
     28  CD2      -13.1610  -37.5890   28.2570 C.ar  121  TYR121     -0.0009
     29  CE1      -14.7100  -39.0020   30.0750 C.ar  121  TYR121      0.0417
     30  CE2      -13.2370  -38.9830   28.1790 C.ar  121  TYR121      0.0417
     31  CZ       -14.0140  -39.6770   29.1000 C.ar  121  TYR121      0.1957
     32  OH       -14.1030  -41.0490   29.0370 O.3   121  TYR121     -0.2866
     33  N        -21.3030  -30.1550   32.1490 N.3   273  VAL273     -0.1245
     34  CA       -21.0140  -31.5800   32.0620 C.3   273  VAL273      0.1561
     35  C        -22.0770  -32.3530   31.2680 C.2   273  VAL273      0.2260
     36  O        -21.7200  -33.1930   30.4480 O.2   273  VAL273     -0.2867
     37  CB       -20.8900  -32.2280   33.4460 C.3   273  VAL273      0.0252
     38  CG1      -20.6980  -33.7280   33.3140 C.3   273  VAL273      0.0019
     39  CG2      -19.7320  -31.6010   34.2300 C.3   273  VAL273      0.0019
     40  N        -21.5870  -31.9250   27.3350 N.3   276  GLU276     -0.1231
     41  CA       -20.2700  -31.8410   26.7190 C.3   276  GLU276      0.1699
     42  C        -20.0620  -32.9120   25.6490 C.2   276  GLU276      0.2592
     43  O        -19.3850  -32.6530   24.6660 O.2   276  GLU276     -0.2718
     44  CB       -19.1470  -31.9220   27.7620 C.3   276  GLU276      0.0402
     45  CG       -18.8940  -33.2920   28.3320 C.3   276  GLU276      0.1161
     46  CD       -17.4980  -33.4400   28.9490 C.2   276  GLU276      0.3649
     47  OE1      -16.6220  -32.5720   28.7170 O.co2 276  GLU276     -0.2457
     48  OE2      -17.2760  -34.4430   29.6640 O.co2 276  GLU276     -0.2457
     49  N        -20.6500  -34.0910   25.8350 N.am  277  TRP277     -0.1976
     50  CA       -20.4290  -35.1840   24.9150 C.3   277  TRP277      0.1640
     51  C        -21.1010  -34.8620   23.5630 C.2   277  TRP277      0.2290
     52  O        -20.6650  -35.3280   22.5090 O.2   277  TRP277     -0.2864
     53  CB       -20.9450  -36.4990   25.5130 C.3   277  TRP277      0.0576
     54  CG       -20.2730  -37.7840   24.9690 C.ar  277  TRP277      0.0006
     55  CD1      -19.5670  -37.9250   23.7920 C.ar  277  TRP277      0.0946
     56  CD2      -20.2690  -39.0930   25.5890 C.ar  277  TRP277      0.0152
     57  NE1      -19.1340  -39.2320   23.6480 N.ar  277  TRP277     -0.2442
     58  CE2      -19.5480  -39.9640   24.7330 C.ar  277  TRP277      0.0810
     59  CE3      -20.8040  -39.6100   26.7820 C.ar  277  TRP277      0.0012
     60  CZ2      -19.3500  -41.3230   25.0390 C.ar  277  TRP277      0.0191
     61  CZ3      -20.6070  -40.9620   27.0780 C.ar  277  TRP277      0.0001
     62  CH2      -19.8850  -41.7970   26.2130 C.ar  277  TRP277      0.0015
     63  N        -19.4400  -32.8590   19.9480 N.3   280  LEU280     -0.1245
     64  CA       -18.5200  -33.4910   19.0010 C.3   280  LEU280      0.1561
     65  C        -19.2050  -33.6090   17.6480 C.2   280  LEU280      0.2260
     66  O        -20.4060  -33.9140   17.5910 O.2   280  LEU280     -0.2867
     67  CB       -18.0720  -34.8770   19.4890 C.3   280  LEU280      0.0270
     68  CG       -17.0100  -35.0180   20.5900 C.3   280  LEU280      0.0019
     69  CD1      -17.0180  -36.4420   21.2010 C.3   280  LEU280      0.0001
     70  CD2      -15.6130  -34.6240   20.0960 C.3   280  LEU280      0.0001
     71  N        -18.5150  -41.0500   17.6960 N.3   284  SER284     -0.1202
     72  CA       -17.1410  -41.5220   17.7820 C.3   284  SER284      0.2020
     73  C        -16.8280  -42.1440   19.1230 C.2   284  SER284      0.2619
     74  O        -17.3320  -41.7100   20.1680 O.2   284  SER284     -0.2717
     75  CB       -16.1560  -40.3710   17.5270 C.3   284  SER284      0.2103
     76  OG       -16.3040  -39.3430   18.5010 O.3   284  SER284     -0.2182
     77  N        -15.9940  -43.1740   19.0810 N.am  285  VAL285     -0.1965
     78  CA       -15.2140  -43.5320   20.2480 C.3   285  VAL285      0.1727
     79  C        -13.9240  -42.7110   20.1560 C.2   285  VAL285      0.2616
     80  O        -13.5350  -42.2690   19.0590 O.2   285  VAL285     -0.2715
     81  CB       -14.9040  -45.0460   20.3230 C.3   285  VAL285      0.0290
     82  CG1      -16.1840  -45.8460   20.1890 C.3   285  VAL285      0.0023
     83  CG2      -13.9020  -45.4600   19.2600 C.3   285  VAL285      0.0023
     84  N        -13.3130  -42.4420   21.3050 N.am  286  PHE286     -0.1960
     85  CA       -11.9470  -41.9400   21.3190 C.3   286  PHE286      0.1771
     86  C        -11.7580  -40.4810   20.9160 C.2   286  PHE286      0.2619
     87  O        -10.6520  -40.0920   20.5170 O.2   286  PHE286     -0.2715
     88  CB       -11.0980  -42.8070   20.3970 C.3   286  PHE286      0.0574
     89  CG        -9.9460  -43.3960   21.0670 C.ar  286  PHE286     -0.0200
     90  CD1       -9.1690  -42.6230   21.8970 C.ar  286  PHE286     -0.0042
     91  CD2       -9.6470  -44.7290   20.9060 C.ar  286  PHE286     -0.0042
     92  CE1       -8.1030  -43.1690   22.5270 C.ar  286  PHE286     -0.0003
     93  CE2       -8.5570  -45.2850   21.5460 C.ar  286  PHE286     -0.0003
     94  CZ        -7.7840  -44.5000   22.3680 C.ar  286  PHE286     -0.0000
     95  N        -12.8290  -39.6940   20.9870 N.am  287  ARG287     -0.1963
     96  CA       -12.7340  -38.2560   20.7340 C.3   287  ARG287      0.1729
     97  C        -13.3710  -37.5490   21.9110 C.2   287  ARG287      0.2616
     98  O        -14.3800  -38.0080   22.4610 O.2   287  ARG287     -0.2715
     99  CB       -13.4030  -37.8270   19.4320 C.3   287  ARG287      0.0348
    100  CG       -12.5670  -38.1020   18.1780 C.3   287  ARG287      0.0492
    101  CD       -11.0850  -37.6900   18.3060 C.3   287  ARG287      0.2205
    102  NE       -10.3720  -37.9700   17.0560 N.pl3 287  ARG287     -0.0865
    103  CZ        -9.6670  -39.0790   16.8120 C.cat 287  ARG287      0.5346
    104  NH1       -9.5470  -40.0260   17.7470 N.pl3 287  ARG287      0.1354
    105  NH2       -9.0830  -39.2450   15.6260 N.pl3 287  ARG287      0.1354
    106  N        -12.7590  -36.4410   22.3060 N.am  288  PHE288     -0.1960
    107  CA       -13.1800  -35.7140   23.4860 C.3   288  PHE288      0.1771
    108  C        -13.3770  -34.2540   23.1310 C.2   288  PHE288      0.2620
    109  O        -12.5810  -33.6530   22.3970 O.2   288  PHE288     -0.2715
    110  CB       -12.1480  -35.9000   24.5850 C.3   288  PHE288      0.0574
    111  CG       -11.5580  -37.2840   24.6150 C.ar  288  PHE288     -0.0200
    112  CD1      -12.3330  -38.3740   24.9910 C.ar  288  PHE288     -0.0042
    113  CD2      -10.2390  -37.4970   24.2610 C.ar  288  PHE288     -0.0042
    114  CE1      -11.7990  -39.6650   25.0100 C.ar  288  PHE288     -0.0003
    115  CE2       -9.6910  -38.7810   24.2780 C.ar  288  PHE288     -0.0003
    116  CZ       -10.4730  -39.8650   24.6550 C.ar  288  PHE288     -0.0000
    117  N        -14.4530  -33.6850   23.6430 N.am  289  SER289     -0.1950
    118  CA       -14.8900  -32.3690   23.2030 C.3   289  SER289      0.1924
    119  C        -13.9100  -31.2460   23.5330 C.2   289  SER289      0.2314
    120  O        -13.6030  -30.4200   22.6660 O.2   289  SER289     -0.2863
    121  CB       -16.2630  -32.0800   23.8060 C.3   289  SER289      0.2116
    122  OG       -17.2040  -33.0560   23.3670 O.3   289  SER289     -0.2180
    123  N        -17.5750  -48.5410   23.8020 N.3   332  TYR332     -0.1241
    124  CA       -18.1920  -47.2240   23.9450 C.3   332  TYR332      0.1605
    125  C        -18.6510  -46.6310   22.6280 C.2   332  TYR332      0.2264
    126  O        -18.6500  -45.4080   22.4630 O.2   332  TYR332     -0.2867
    127  CB       -17.2210  -46.2520   24.6210 C.3   332  TYR332      0.0534
    128  CG       -17.0130  -46.5690   26.0800 C.ar  332  TYR332     -0.0201
    129  CD1      -16.0900  -47.5260   26.4740 C.ar  332  TYR332     -0.0009
    130  CD2      -17.7690  -45.9270   27.0660 C.ar  332  TYR332     -0.0009
    131  CE1      -15.9050  -47.8340   27.8130 C.ar  332  TYR332      0.0417
    132  CE2      -17.5960  -46.2220   28.4100 C.ar  332  TYR332      0.0417
    133  CZ       -16.6670  -47.1740   28.7700 C.ar  332  TYR332      0.1957
    134  OH       -16.5020  -47.4830   30.0680 O.3   332  TYR332     -0.2866
@<TRIPOS>BOND
     1   105   103    1
     2   103   102    2
     3   103   104    1
     4   102   101    1
     5    75    72    1
     6    75    76    1
     7    66    65    2
     8    65    64    1
     9    71    72    1
    10    72    73    1
    11   100   101    1
    12   100    99    1
    13    64    67    1
    14    64    63    1
    15    80    79    2
    16    77    73   am
    17    77    78    1
    18    73    74    2
    19    83    81    1
    20    99    96    1
    21    67    68    1
    22    70    68    1
    23    79    78    1
    24    79    84   am
    25    82    81    1
    26    78    81    1
    27    88    89    1
    28    88    85    1
    29    87    86    2
    30    68    69    1
    31    96    95    1
    32    96    97    1
    33    91    89   ar
    34    91    93   ar
    35    86    95   am
    36    86    85    1
    37    89    90   ar
    38    84    85    1
    39    93    94   ar
    40    90    92   ar
    41    97   106   am
    42    97    98    2
    43   106   107    1
    44    94    92   ar
    45   109   108    2
    46   126   125    2
    47    52    51    2
    48   125   124    1
    49   120   119    2
    50   108   107    1
    51   108   117   am
    52   118   119    1
    53   118   117    1
    54   118   121    1
    55   122   121    1
    56   107   110    1
    57    51    50    1
    58    57    55   ar
    59    57    58   ar
    60    55    54   ar
    61   123   124    1
    62   124   127    1
    63   113   115   ar
    64   113   111   ar
    65   115   116   ar
    66   110   111    1
    67   111   112   ar
    68   127   128    1
    69   116   114   ar
    70    43    42    2
    71    58    60   ar
    72    58    56   ar
    73    50    53    1
    74    50    49    1
    75    54    53    1
    76    54    56   ar
    77   112   114   ar
    78    60    62   ar
    79    56    59   ar
    80    42    49   am
    81    42    41    1
    82   128   129   ar
    83   128   130   ar
    84    62    61   ar
    85   129   131   ar
    86    41    40    1
    87    41    44    1
    88    59    61   ar
    89   130   132   ar
    90    44    45    1
    91   131   133   ar
    92    30    28   ar
    93    30    31   ar
    94    28    26   ar
    95    45    46    1
    96   132   133   ar
    97    47    46   ar
    98   133   134    1
    99    46    48   ar
   100    32    31    1
   101    31    29   ar
   102    26    25    1
   103    26    27   ar
   104    25    22    1
   105    21    22    1
   106    29    27   ar
   107    22    23    1
   108    12    11    1
   109    36    35    2
   110    11    10   ar
   111    11     9   ar
   112    10     8   ar
   113     9     7   ar
   114    35    34    1
   115     8     6   ar
   116     7     6   ar
   117    19    18   ar
   118     6     5    1
   119    23    24    2
   120    20    18   ar
   121     5     2    1
   122    34    33    1
   123    34    37    1
   124    18    17    1
   125    17    14    1
   126    38    37    1
   127    14    15    1
   128    14    13    1
   129    37    39    1
   130     2     1    1
   131     2     3    1
   132    15    16    2
   133     3     4    2
