@<TRIPOS>MOLECULE
tmp/5hfaA02.pdb
 126 124 0 0 0
SMALL
GASTEIGER

@<TRIPOS>ATOM
      1  N         -4.7320  -39.4590   33.4700 N.3   117  GLY117     -0.1210
      2  CA        -5.4660  -39.4160   32.2120 C.3   117  GLY117      0.1956
      3  C         -6.9750  -39.4650   32.4330 C.2   117  GLY117      0.2612
      4  O         -7.4690  -39.3750   33.5730 O.2   117  GLY117     -0.2717
      5  N         -7.7060  -39.6040   31.3360 N.am  118  GLY118     -0.1942
      6  CA        -9.1500  -39.5440   31.3390 C.3   118  GLY118      0.2014
      7  C         -9.6650  -38.6830   30.2060 C.2   118  GLY118      0.2639
      8  O        -10.7050  -38.0390   30.3550 O.2   118  GLY118     -0.2714
      9  N         -8.9290  -38.6600   29.0810 N.am  119  GLY119     -0.1954
     10  CA        -9.3750  -38.0170   27.8500 C.3   119  GLY119      0.1869
     11  C         -9.4810  -36.5100   27.9530 C.2   119  GLY119      0.2309
     12  O        -10.1200  -35.8710   27.1210 O.2   119  GLY119     -0.2863
     13  N        -11.3020  -35.1590   29.9300 N.3   121  TYR121     -0.1241
     14  CA       -12.6770  -34.8740   30.3650 C.3   121  TYR121      0.1605
     15  C        -12.9460  -35.4970   31.7510 C.2   121  TYR121      0.2264
     16  O        -14.0170  -35.2980   32.3220 O.2   121  TYR121     -0.2867
     17  CB       -13.7480  -35.3750   29.3510 C.3   121  TYR121      0.0534
     18  CG       -13.8500  -36.8870   29.2490 C.ar  121  TYR121     -0.0201
     19  CD1      -14.6380  -37.6210   30.1400 C.ar  121  TYR121     -0.0009
     20  CD2      -13.1610  -37.5890   28.2570 C.ar  121  TYR121     -0.0009
     21  CE1      -14.7100  -39.0020   30.0750 C.ar  121  TYR121      0.0417
     22  CE2      -13.2370  -38.9830   28.1790 C.ar  121  TYR121      0.0417
     23  CZ       -14.0140  -39.6770   29.1000 C.ar  121  TYR121      0.1957
     24  OH       -14.1030  -41.0490   29.0370 O.3   121  TYR121     -0.2866
     25  N         -0.3800  -41.2490   32.1730 N.3   199  GLU199     -0.1231
     26  CA        -0.9200  -42.2910   31.3270 C.3   199  GLU199      0.1699
     27  C         -2.0590  -41.7010   30.4910 C.2   199  GLU199      0.2593
     28  O         -2.8340  -40.8710   30.9750 O.2   199  GLU199     -0.2718
     29  CB        -1.3650  -43.4760   32.1870 C.3   199  GLU199      0.0402
     30  CG        -1.8180  -44.7220   31.4490 C.3   199  GLU199      0.1161
     31  CD        -3.2890  -44.6880   31.0720 C.2   199  GLU199      0.3649
     32  OE1       -4.0330  -43.7940   31.5450 O.co2 199  GLU199     -0.2457
     33  OE2       -3.6980  -45.5480   30.2640 O.co2 199  GLU199     -0.2457
     34  N         -2.1190  -42.1000   29.2150 N.am  200  SER200     -0.1938
     35  CA        -3.1370  -41.6060   28.3010 C.3   200  SER200      0.2055
     36  C         -3.0980  -40.0610   28.2250 C.2   200  SER200      0.2642
     37  O         -2.0500  -39.5090   27.8860 O.2   200  SER200     -0.2714
     38  CB        -4.5200  -42.1330   28.7020 C.3   200  SER200      0.2130
     39  OG        -5.4020  -42.1220   27.5790 O.3   200  SER200     -0.2179
     40  N         -4.2010  -39.3590   28.4940 N.am  201  ALA201     -0.1977
     41  CA        -4.1810  -37.8830   28.4460 C.3   201  ALA201      0.1597
     42  C         -3.1420  -37.2790   29.4000 C.2   201  ALA201      0.2287
     43  O         -2.6650  -36.1590   29.1840 O.2   201  ALA201     -0.2864
     44  CB        -5.5550  -37.3070   28.7630 C.3   201  ALA201      0.0319
     45  N          1.1380  -45.0150   27.2480 N.3   226  SER226     -0.1217
     46  CA        -0.0860  -45.1510   26.4390 C.3   226  SER226      0.1889
     47  C         -0.6680  -43.8080   26.0560 C.2   226  SER226      0.2288
     48  O         -1.8830  -43.5950   26.1250 O.2   226  SER226     -0.2866
     49  CB        -1.1640  -45.9700   27.1790 C.3   226  SER226      0.2089
     50  OG        -0.7070  -47.2930   27.4560 O.3   226  SER226     -0.2183
     51  N         -6.3240  -37.2920   19.0650 N.3   233  TRP233     -0.1241
     52  CA        -7.3730  -36.8860   20.0000 C.3   233  TRP233      0.1605
     53  C         -6.8910  -35.8290   21.0130 C.2   233  TRP233      0.2264
     54  O         -7.6990  -35.2550   21.7490 O.2   233  TRP233     -0.2867
     55  CB        -7.8760  -38.1180   20.7530 C.3   233  TRP233      0.0550
     56  CG        -6.7210  -38.9080   21.3350 C.ar  233  TRP233      0.0003
     57  CD1       -6.0890  -39.9680   20.7580 C.ar  233  TRP233      0.0946
     58  CD2       -6.0380  -38.6610   22.5720 C.ar  233  TRP233      0.0152
     59  NE1       -5.0750  -40.4160   21.5590 N.ar  233  TRP233     -0.2442
     60  CE2       -5.0180  -39.6300   22.6810 C.ar  233  TRP233      0.0810
     61  CE3       -6.2050  -37.7310   23.6080 C.ar  233  TRP233      0.0012
     62  CZ2       -4.1630  -39.6980   23.7820 C.ar  233  TRP233      0.0191
     63  CZ3       -5.3560  -37.7910   24.7000 C.ar  233  TRP233      0.0001
     64  CH2       -4.3490  -38.7750   24.7850 C.ar  233  TRP233      0.0015
     65  N        -13.3130  -42.4420   21.3050 N.3   286  PHE286     -0.1241
     66  CA       -11.9470  -41.9400   21.3190 C.3   286  PHE286      0.1605
     67  C        -11.7580  -40.4810   20.9160 C.2   286  PHE286      0.2264
     68  O        -10.6520  -40.0920   20.5170 O.2   286  PHE286     -0.2867
     69  CB       -11.0980  -42.8070   20.3970 C.3   286  PHE286      0.0534
     70  CG        -9.9460  -43.3960   21.0670 C.ar  286  PHE286     -0.0203
     71  CD1       -9.1690  -42.6230   21.8970 C.ar  286  PHE286     -0.0042
     72  CD2       -9.6470  -44.7290   20.9060 C.ar  286  PHE286     -0.0042
     73  CE1       -8.1030  -43.1690   22.5270 C.ar  286  PHE286     -0.0003
     74  CE2       -8.5570  -45.2850   21.5460 C.ar  286  PHE286     -0.0003
     75  CZ        -7.7840  -44.5000   22.3680 C.ar  286  PHE286     -0.0000
     76  N        -12.7590  -36.4410   22.3060 N.3   288  PHE288     -0.1241
     77  CA       -13.1800  -35.7140   23.4860 C.3   288  PHE288      0.1605
     78  C        -13.3770  -34.2540   23.1310 C.2   288  PHE288      0.2264
     79  O        -12.5810  -33.6530   22.3970 O.2   288  PHE288     -0.2867
     80  CB       -12.1480  -35.9000   24.5850 C.3   288  PHE288      0.0534
     81  CG       -11.5580  -37.2840   24.6150 C.ar  288  PHE288     -0.0203
     82  CD1      -12.3330  -38.3740   24.9910 C.ar  288  PHE288     -0.0042
     83  CD2      -10.2390  -37.4970   24.2610 C.ar  288  PHE288     -0.0042
     84  CE1      -11.7990  -39.6650   25.0100 C.ar  288  PHE288     -0.0003
     85  CE2       -9.6910  -38.7810   24.2780 C.ar  288  PHE288     -0.0003
     86  CZ       -10.4730  -39.8650   24.6550 C.ar  288  PHE288     -0.0000
     87  N        -10.5310  -51.8500   24.9960 N.3   328  TYR328     -0.1227
     88  CA       -11.4350  -51.1660   25.9410 C.3   328  TYR328      0.1736
     89  C        -12.3450  -50.1140   25.2800 C.2   328  TYR328      0.2595
     90  O        -13.5210  -50.0140   25.6020 O.2   328  TYR328     -0.2718
     91  CB       -10.6080  -50.5170   27.0850 C.3   328  TYR328      0.0548
     92  CG       -11.2660  -49.3440   27.7850 C.ar  328  TYR328     -0.0200
     93  CD1      -12.0680  -49.5280   28.9190 C.ar  328  TYR328     -0.0009
     94  CD2      -11.0610  -48.0460   27.3390 C.ar  328  TYR328     -0.0009
     95  CE1      -12.6510  -48.4410   29.5780 C.ar  328  TYR328      0.0417
     96  CE2      -11.6550  -46.9650   27.9590 C.ar  328  TYR328      0.0417
     97  CZ       -12.4450  -47.1630   29.0840 C.ar  328  TYR328      0.1957
     98  OH       -13.0160  -46.0690   29.7000 O.3   328  TYR328     -0.2866
     99  N        -11.8070  -49.3270   24.3610 N.am  329  PHE329     -0.1976
    100  CA       -12.5880  -48.2610   23.7340 C.3   329  PHE329      0.1639
    101  C        -13.7470  -48.7410   22.8590 C.2   329  PHE329      0.2290
    102  O        -14.7000  -47.9790   22.6130 O.2   329  PHE329     -0.2864
    103  CB       -11.6650  -47.3660   22.8940 C.3   329  PHE329      0.0560
    104  CG       -10.5810  -46.7200   23.6960 C.ar  329  PHE329     -0.0200
    105  CD1      -10.7830  -45.4760   24.2820 C.ar  329  PHE329     -0.0042
    106  CD2       -9.3770  -47.3680   23.8940 C.ar  329  PHE329     -0.0042
    107  CE1       -9.8070  -44.8850   25.0420 C.ar  329  PHE329     -0.0003
    108  CE2       -8.3830  -46.7820   24.6610 C.ar  329  PHE329     -0.0003
    109  CZ        -8.6000  -45.5370   25.2400 C.ar  329  PHE329     -0.0000
    110  N         -3.0560  -44.5430   19.9090 N.3   398  VAL398     -0.1245
    111  CA        -2.0220  -44.6660   20.9310 C.3   398  VAL398      0.1561
    112  C         -0.6770  -45.1420   20.3880 C.2   398  VAL398      0.2260
    113  O          0.3310  -44.4200   20.4950 O.2   398  VAL398     -0.2867
    114  CB        -2.4380  -45.6260   22.0690 C.3   398  VAL398      0.0252
    115  CG1       -1.3660  -45.6330   23.1460 C.3   398  VAL398      0.0019
    116  CG2       -3.7690  -45.1950   22.6890 C.3   398  VAL398      0.0019
    117  N         -6.0300  -50.9290   27.6750 N.3   438  HIS438     -0.1241
    118  CA        -5.6580  -49.5910   28.0690 C.3   438  HIS438      0.1621
    119  C         -5.8680  -49.3280   29.5640 C.2   438  HIS438      0.2264
    120  O         -6.9570  -49.5850   30.0810 O.2   438  HIS438     -0.2867
    121  CB        -6.4870  -48.6220   27.2720 C.3   438  HIS438      0.0745
    122  CG        -6.0860  -47.1980   27.4360 C.ar  438  HIS438      0.0817
    123  ND1       -4.9420  -46.6800   26.8660 N.ar  438  HIS438     -0.2268
    124  CD2       -6.7030  -46.1650   28.0530 C.ar  438  HIS438      0.1154
    125  CE1       -4.8750  -45.3870   27.1220 C.ar  438  HIS438      0.1986
    126  NE2       -5.9270  -45.0510   27.8460 N.ar  438  HIS438     -0.2212
@<TRIPOS>BOND
     1    51    52    1
     2   110   111    1
     3    52    55    1
     4    52    53    1
     5   112   113    2
     6   112   111    1
     7    69    70    1
     8    69    66    1
     9    68    67    2
    10    55    56    1
    11    57    56   ar
    12    57    59   ar
    13    72    70   ar
    14    72    74   ar
    15    67    66    1
    16   111   114    1
    17    53    54    2
    18    70    71   ar
    19    65    66    1
    20    56    58   ar
    21    74    75   ar
    22    59    60   ar
    23    71    73   ar
    24   114   116    1
    25   114   115    1
    26    76    77    1
    27    75    73   ar
    28    79    78    2
    29    58    60   ar
    30    58    61   ar
    31   102   101    2
    32    60    62   ar
    33   101   100    1
    34   103   104    1
    35   103   100    1
    36    78    77    1
    37    77    80    1
    38    61    63   ar
    39   104   106   ar
    40   104   105   ar
    41   100    99    1
    42    62    64   ar
    43   106   108   ar
    44    83    85   ar
    45    83    81   ar
    46    85    86   ar
    47   105   107   ar
    48    99    89   am
    49    80    81    1
    50    81    82   ar
    51    86    84   ar
    52   108   109   ar
    53    63    64   ar
    54    82    84   ar
    55    87    88    1
    56   107   109   ar
    57    89    90    2
    58    89    88    1
    59    88    91    1
    60    47    48    2
    61    47    46    1
    62    46    49    1
    63    46    45    1
    64   123   125   ar
    65   123   122   ar
    66    91    92    1
    67    12    11    2
    68   125   126   ar
    69    49    50    1
    70   121   122    1
    71   121   118    1
    72    94    92   ar
    73    94    96   ar
    74   122   124   ar
    75    39    38    1
    76   117   118    1
    77    92    93   ar
    78   126   124   ar
    79    10    11    1
    80    10     9    1
    81    37    36    2
    82    96    97   ar
    83   118   119    1
    84    22    20   ar
    85    22    23   ar
    86    36    35    1
    87    36    40   am
    88    20    18   ar
    89    35    38    1
    90    35    34    1
    91    41    40    1
    92    41    44    1
    93    41    42    1
    94    93    95   ar
    95    24    23    1
    96     9     7   am
    97    97    95   ar
    98    97    98    1
    99    23    21   ar
   100    43    42    2
   101    34    27   am
   102    18    17    1
   103    18    19   ar
   104    17    14    1
   105   119   120    2
   106    13    14    1
   107    21    19   ar
   108     7     8    2
   109     7     6    1
   110    33    31   ar
   111    14    15    1
   112    27    28    2
   113    27    26    1
   114    31    30    1
   115    31    32   ar
   116    26    25    1
   117    26    29    1
   118     5     6    1
   119     5     3   am
   120    30    29    1
   121    15    16    2
   122     2     3    1
   123     2     1    1
   124     3     4    2
