@<TRIPOS>MOLECULE
tmp/5hfaA03.pdb
 125 123 0 0 0
SMALL
GASTEIGER

@<TRIPOS>ATOM
      1  N        -18.9680  -42.1580   34.2720 N.3    71  ASP71      -0.1239
      2  CA       -19.2420  -43.3150   33.4010 C.3    71  ASP71       0.1674
      3  C        -20.3450  -44.2190   33.9560 C.2    71  ASP71       0.2266
      4  O        -20.1860  -44.7960   35.0230 O.2    71  ASP71      -0.2867
      5  CB       -17.9600  -44.1380   33.2000 C.3    71  ASP71       0.1410
      6  CG       -18.0960  -45.2260   32.1090 C.2    71  ASP71       0.3668
      7  OD1      -19.1320  -45.3020   31.4220 O.co2  71  ASP71      -0.2456
      8  OD2      -17.1470  -46.0190   31.9400 O.co2  71  ASP71      -0.2456
      9  N        -12.3980  -46.0020   37.7690 N.3    83  TRP83      -0.1241
     10  CA       -11.9540  -44.7410   37.1540 C.3    83  TRP83       0.1605
     11  C        -12.8690  -43.5890   37.5240 C.2    83  TRP83       0.2264
     12  O        -12.5470  -42.4340   37.3080 O.2    83  TRP83      -0.2867
     13  CB       -11.8770  -44.8620   35.6050 C.3    83  TRP83       0.0550
     14  CG       -11.1150  -46.0610   35.1520 C.ar   83  TRP83       0.0003
     15  CD1      -11.6380  -47.2260   34.6440 C.ar   83  TRP83       0.0946
     16  CD2       -9.6980  -46.2490   35.2120 C.ar   83  TRP83       0.0152
     17  NE1      -10.6340  -48.1180   34.3840 N.ar   83  TRP83      -0.2442
     18  CE2       -9.4300  -47.5500   34.7090 C.ar   83  TRP83       0.0810
     19  CE3       -8.6270  -45.4500   35.6440 C.ar   83  TRP83       0.0012
     20  CZ2       -8.1340  -48.0660   34.6090 C.ar   83  TRP83       0.0191
     21  CZ3       -7.3340  -45.9640   35.5500 C.ar   83  TRP83       0.0001
     22  CH2       -7.1010  -47.2620   35.0230 C.ar   83  TRP83       0.0015
     23  N         -4.7320  -39.4590   33.4700 N.3   117  GLY117     -0.1210
     24  CA        -5.4660  -39.4160   32.2120 C.3   117  GLY117      0.1956
     25  C         -6.9750  -39.4650   32.4330 C.2   117  GLY117      0.2612
     26  O         -7.4690  -39.3750   33.5730 O.2   117  GLY117     -0.2717
     27  N         -7.7060  -39.6040   31.3360 N.am  118  GLY118     -0.1956
     28  CA        -9.1500  -39.5440   31.3390 C.3   118  GLY118      0.1869
     29  C         -9.6650  -38.6830   30.2060 C.2   118  GLY118      0.2309
     30  O        -10.7050  -38.0390   30.3550 O.2   118  GLY118     -0.2863
     31  N        -11.3020  -35.1590   29.9300 N.3   121  TYR121     -0.1227
     32  CA       -12.6770  -34.8740   30.3650 C.3   121  TYR121      0.1736
     33  C        -12.9460  -35.4970   31.7510 C.2   121  TYR121      0.2596
     34  O        -14.0170  -35.2980   32.3220 O.2   121  TYR121     -0.2718
     35  CB       -13.7480  -35.3750   29.3510 C.3   121  TYR121      0.0548
     36  CG       -13.8500  -36.8870   29.2490 C.ar  121  TYR121     -0.0200
     37  CD1      -14.6380  -37.6210   30.1400 C.ar  121  TYR121     -0.0009
     38  CD2      -13.1610  -37.5890   28.2570 C.ar  121  TYR121     -0.0009
     39  CE1      -14.7100  -39.0020   30.0750 C.ar  121  TYR121      0.0417
     40  CE2      -13.2370  -38.9830   28.1790 C.ar  121  TYR121      0.0417
     41  CZ       -14.0140  -39.6770   29.1000 C.ar  121  TYR121      0.1957
     42  OH       -14.1030  -41.0490   29.0370 O.3   121  TYR121     -0.2866
     43  N        -11.9870  -36.2490   32.2830 N.am  122  SER122     -0.1938
     44  CA       -12.2120  -36.9510   33.5360 C.3   122  SER122      0.2055
     45  C        -10.9020  -37.3200   34.2260 C.2   122  SER122      0.2643
     46  O         -9.8350  -37.1540   33.6480 O.2   122  SER122     -0.2714
     47  CB       -13.0420  -38.2110   33.2710 C.3   122  SER122      0.2130
     48  OG       -12.2660  -39.1820   32.5960 O.3   122  SER122     -0.2179
     49  N        -10.9980  -37.8520   35.4450 N.am  123  GLY123     -0.1954
     50  CA        -9.8460  -38.3530   36.1680 C.3   123  GLY123      0.1869
     51  C         -9.7160  -37.6410   37.5000 C.2   123  GLY123      0.2309
     52  O        -10.2830  -36.5610   37.6970 O.2   123  GLY123     -0.2863
     53  N         -7.9630  -41.4530   43.0030 N.3   127  LEU127     -0.1245
     54  CA        -8.3790  -42.8240   42.6740 C.3   127  LEU127      0.1561
     55  C         -7.4870  -43.8240   43.3790 C.2   127  LEU127      0.2260
     56  O         -6.2930  -43.5770   43.5290 O.2   127  LEU127     -0.2867
     57  CB        -8.3320  -43.0890   41.1590 C.3   127  LEU127      0.0270
     58  CG        -9.1950  -42.1600   40.3140 C.3   127  LEU127      0.0019
     59  CD1       -9.2380  -42.6260   38.8530 C.3   127  LEU127      0.0001
     60  CD2      -10.5960  -42.0200   40.9080 C.3   127  LEU127      0.0001
     61  N         -4.1140  -44.9180   41.8740 N.3   130  TYR130     -0.1241
     62  CA        -2.9860  -43.9680   41.8630 C.3   130  TYR130      0.1605
     63  C         -2.3630  -43.7390   43.2640 C.2   130  TYR130      0.2264
     64  O         -1.6170  -42.7640   43.4750 O.2   130  TYR130     -0.2867
     65  CB        -3.4210  -42.6080   41.3080 C.3   130  TYR130      0.0534
     66  CG        -4.1020  -42.6230   39.9550 C.ar  130  TYR130     -0.0201
     67  CD1       -3.7970  -43.5930   38.9980 C.ar  130  TYR130     -0.0009
     68  CD2       -5.0360  -41.6320   39.6200 C.ar  130  TYR130     -0.0009
     69  CE1       -4.4250  -43.5820   37.7400 C.ar  130  TYR130      0.0417
     70  CE2       -5.6610  -41.6190   38.3770 C.ar  130  TYR130      0.0417
     71  CZ        -5.3530  -42.5980   37.4430 C.ar  130  TYR130      0.1957
     72  OH        -5.9750  -42.5870   36.2070 O.3   130  TYR130     -0.2866
     73  N         -0.3800  -41.2490   32.1730 N.3   199  GLU199     -0.1231
     74  CA        -0.9200  -42.2910   31.3270 C.3   199  GLU199      0.1699
     75  C         -2.0590  -41.7010   30.4910 C.2   199  GLU199      0.2592
     76  O         -2.8340  -40.8710   30.9750 O.2   199  GLU199     -0.2718
     77  CB        -1.3650  -43.4760   32.1870 C.3   199  GLU199      0.0402
     78  CG        -1.8180  -44.7220   31.4490 C.3   199  GLU199      0.1161
     79  CD        -3.2890  -44.6880   31.0720 C.2   199  GLU199      0.3649
     80  OE1       -4.0330  -43.7940   31.5450 O.co2 199  GLU199     -0.2457
     81  OE2       -3.6980  -45.5480   30.2640 O.co2 199  GLU199     -0.2457
     82  N         -2.1190  -42.1000   29.2150 N.am  200  SER200     -0.1952
     83  CA        -3.1370  -41.6060   28.3010 C.3   200  SER200      0.1924
     84  C         -3.0980  -40.0610   28.2250 C.2   200  SER200      0.2314
     85  O         -2.0500  -39.5090   27.8860 O.2   200  SER200     -0.2863
     86  CB        -4.5200  -42.1330   28.7020 C.3   200  SER200      0.2116
     87  OG        -5.4020  -42.1220   27.5790 O.3   200  SER200     -0.2180
     88  N        -10.5310  -51.8500   24.9960 N.3   328  TYR328     -0.1241
     89  CA       -11.4350  -51.1660   25.9410 C.3   328  TYR328      0.1605
     90  C        -12.3450  -50.1140   25.2800 C.2   328  TYR328      0.2264
     91  O        -13.5210  -50.0140   25.6020 O.2   328  TYR328     -0.2867
     92  CB       -10.6080  -50.5170   27.0850 C.3   328  TYR328      0.0534
     93  CG       -11.2660  -49.3440   27.7850 C.ar  328  TYR328     -0.0201
     94  CD1      -12.0680  -49.5280   28.9190 C.ar  328  TYR328     -0.0009
     95  CD2      -11.0610  -48.0460   27.3390 C.ar  328  TYR328     -0.0009
     96  CE1      -12.6510  -48.4410   29.5780 C.ar  328  TYR328      0.0417
     97  CE2      -11.6550  -46.9650   27.9590 C.ar  328  TYR328      0.0417
     98  CZ       -12.4450  -47.1630   29.0840 C.ar  328  TYR328      0.1957
     99  OH       -13.0160  -46.0690   29.7000 O.3   328  TYR328     -0.2866
    100  N         -6.0300  -50.9290   27.6750 N.3   438  HIS438     -0.1226
    101  CA        -5.6580  -49.5910   28.0690 C.3   438  HIS438      0.1752
    102  C         -5.8680  -49.3280   29.5640 C.2   438  HIS438      0.2597
    103  O         -6.9570  -49.5850   30.0810 O.2   438  HIS438     -0.2718
    104  CB        -6.4870  -48.6220   27.2720 C.3   438  HIS438      0.0759
    105  CG        -6.0860  -47.1980   27.4360 C.ar  438  HIS438      0.0818
    106  ND1       -4.9420  -46.6800   26.8660 N.ar  438  HIS438     -0.2268
    107  CD2       -6.7030  -46.1650   28.0530 C.ar  438  HIS438      0.1154
    108  CE1       -4.8750  -45.3870   27.1220 C.ar  438  HIS438      0.1986
    109  NE2       -5.9270  -45.0510   27.8460 N.ar  438  HIS438     -0.2212
    110  N         -4.8470  -48.8050   30.2370 N.am  439  GLY439     -0.1942
    111  CA        -4.9680  -48.4450   31.6490 C.3   439  GLY439      0.2014
    112  C         -4.4730  -49.4770   32.6520 C.2   439  GLY439      0.2638
    113  O         -4.1720  -49.1310   33.7920 O.2   439  GLY439     -0.2714
    114  N         -4.3390  -50.7340   32.2360 N.am  440  TYR440     -0.1973
    115  CA        -4.1480  -51.8130   33.2050 C.3   440  TYR440      0.1639
    116  C         -2.7030  -52.2110   33.4750 C.2   440  TYR440      0.2290
    117  O         -2.4390  -53.2700   34.0570 O.2   440  TYR440     -0.2864
    118  CB        -5.0080  -53.0180   32.7830 C.3   440  TYR440      0.0560
    119  CG        -6.4140  -52.6490   33.1470 C.ar  440  TYR440     -0.0198
    120  CD1       -6.8470  -52.7590   34.4810 C.ar  440  TYR440     -0.0009
    121  CD2       -7.2660  -52.0670   32.2200 C.ar  440  TYR440     -0.0009
    122  CE1       -8.1140  -52.3510   34.8520 C.ar  440  TYR440      0.0417
    123  CE2       -8.5380  -51.6530   32.5810 C.ar  440  TYR440      0.0417
    124  CZ        -8.9560  -51.7900   33.9100 C.ar  440  TYR440      0.1957
    125  OH       -10.2130  -51.3760   34.2940 O.3   440  TYR440     -0.2866
@<TRIPOS>BOND
     1    88    89    1
     2    90    91    2
     3    90    89    1
     4    89    92    1
     5   106   108   ar
     6   106   105   ar
     7    92    93    1
     8   108   109   ar
     9   104   105    1
    10   104   101    1
    11    95    93   ar
    12    95    97   ar
    13   105   107   ar
    14    87    86    1
    15   100   101    1
    16    93    94   ar
    17   109   107   ar
    18    85    84    2
    19    97    98   ar
    20   101   102    1
    21    40    38   ar
    22    40    41   ar
    23    84    83    1
    24    38    36   ar
    25    83    86    1
    26    83    82    1
    27    94    96   ar
    28    42    41    1
    29    98    96   ar
    30    98    99    1
    31    41    39   ar
    32    82    75   am
    33    36    35    1
    34    36    37   ar
    35    35    32    1
    36   102   103    2
    37   102   110   am
    38    31    32    1
    39    39    37   ar
    40    29    30    2
    41    29    28    1
    42   110   111    1
    43    81    79   ar
    44    32    33    1
    45    75    76    2
    46    75    74    1
    47    79    78    1
    48    79    80   ar
    49    74    73    1
    50    74    77    1
    51    27    28    1
    52    27    25   am
    53     7     6   ar
    54    78    77    1
    55   111   112    1
    56    33    43   am
    57    33    34    2
    58     8     6   ar
    59     6     5    1
    60    24    25    1
    61    24    23    1
    62   121   123   ar
    63   121   119   ar
    64   114   112   am
    65   114   115    1
    66    43    44    1
    67    25    26    2
    68   123   124   ar
    69    48    47    1
    70   112   113    2
    71   118   119    1
    72   118   115    1
    73   119   120   ar
    74     5     2    1
    75   115   116    1
    76    47    44    1
    77     2     3    1
    78     2     1    1
    79   116   117    2
    80    44    45    1
    81    46    45    2
    82   124   125    1
    83   124   122   ar
    84     3     4    2
    85    45    49   am
    86    17    15   ar
    87    17    18   ar
    88   120   122   ar
    89    20    18   ar
    90    20    22   ar
    91    15    14   ar
    92    18    16   ar
    93    22    21   ar
    94    14    16   ar
    95    14    13    1
    96    16    19   ar
    97    49    50    1
    98    21    19   ar
    99    13    10    1
   100    50    51    1
   101    72    71    1
   102    10    11    1
   103    10     9    1
   104    12    11    2
   105    71    69   ar
   106    71    70   ar
   107    51    52    2
   108    69    67   ar
   109    70    68   ar
   110    59    58    1
   111    67    66   ar
   112    68    66   ar
   113    66    65    1
   114    58    60    1
   115    58    57    1
   116    57    54    1
   117    65    62    1
   118    62    61    1
   119    62    63    1
   120    54    53    1
   121    54    55    1
   122    63    64    2
   123    55    56    2
