@<TRIPOS>MOLECULE
tmp/5hfjC00.pdb
 200 199 0 0 0
SMALL
GASTEIGER

@<TRIPOS>ATOM
      1  N        -13.7170   -3.1880   24.8320 N.3     7  ALA7       -0.1231
      2  CA       -13.7160   -3.6900   26.2020 C.3     7  ALA7        0.1694
      3  C        -14.7950   -4.7360   26.4460 C.2     7  ALA7        0.2592
      4  O        -15.7090   -4.9080   25.6370 O.2     7  ALA7       -0.2718
      5  CB       -13.8810   -2.5370   27.1820 C.3     7  ALA7        0.0304
      6  N        -14.6740   -5.4370   27.5680 N.am    8  ASP8       -0.1960
      7  CA       -15.7440   -6.2940   28.0540 C.3     8  ASP8        0.1840
      8  C        -16.7310   -5.4060   28.8040 C.2     8  ASP8        0.2622
      9  O        -16.3700   -4.7560   29.7840 O.2     8  ASP8       -0.2715
     10  CB       -15.2020   -7.4010   28.9600 C.3     8  ASP8        0.1450
     11  CG       -16.3030   -8.1780   29.6610 C.2     8  ASP8        0.3671
     12  OD1      -17.4290   -8.2450   29.1230 O.co2   8  ASP8       -0.2456
     13  OD2      -16.0420   -8.7210   30.7560 O.co2   8  ASP8       -0.2456
     14  N        -17.9730   -5.3820   28.3300 N.am    9  ALA9       -0.1963
     15  CA       -19.0070   -4.5020   28.8670 C.3     9  ALA9        0.1728
     16  C        -19.2110   -4.6510   30.3750 C.2     9  ALA9        0.2616
     17  O        -19.5720   -3.6900   31.0570 O.2     9  ALA9       -0.2715
     18  CB       -20.3220   -4.7460   28.1400 C.3     9  ALA9        0.0334
     19  N        -18.9850   -5.8550   30.8910 N.am   10  PHE10      -0.1974
     20  CA       -19.2290   -6.1350   32.3020 C.3    10  PHE10       0.1639
     21  C        -18.1550   -5.5560   33.2270 C.2    10  PHE10       0.2290
     22  O        -18.4290   -5.2770   34.3940 O.2    10  PHE10      -0.2864
     23  CB       -19.3590   -7.6460   32.5110 C.3    10  PHE10       0.0560
     24  CG       -20.6730   -8.2020   32.0400 C.ar   10  PHE10      -0.0200
     25  CD1      -21.7790   -8.2060   32.8740 C.ar   10  PHE10      -0.0042
     26  CD2      -20.8070   -8.7010   30.7550 C.ar   10  PHE10      -0.0042
     27  CE1      -22.9900   -8.7090   32.4380 C.ar   10  PHE10      -0.0003
     28  CE2      -22.0150   -9.2040   30.3140 C.ar   10  PHE10      -0.0003
     29  CZ       -23.1080   -9.2030   31.1550 C.ar   10  PHE10      -0.0000
     30  N        -27.8940   -4.8300   20.7590 N.3    29  ASP29      -0.1225
     31  CA       -28.2090   -6.1400   20.2250 C.3    29  ASP29       0.1790
     32  C        -27.3060   -7.1610   20.9200 C.2    29  ASP29       0.2440
     33  O        -26.3090   -7.5850   20.3650 O.2    29  ASP29      -0.2733
     34  CB       -28.0110   -6.1380   18.7040 C.3    29  ASP29       0.1423
     35  CG       -28.1820   -7.5060   18.0770 C.2    29  ASP29       0.3668
     36  OD1      -28.7530   -8.4080   18.7250 O.co2  29  ASP29      -0.2456
     37  OD2      -27.7510   -7.6740   16.9170 O.co2  29  ASP29      -0.2456
     38  N        -27.6550   -7.5520   22.1540 N.am   30  PRO30      -0.2718
     39  CA       -26.8040   -8.4660   22.9290 C.3    30  PRO30       0.1520
     40  C        -26.6290   -9.8420   22.2830 C.2    30  PRO30       0.2440
     41  O        -27.4180  -10.2090   21.4130 O.2    30  PRO30      -0.2731
     42  CB       -27.5550   -8.5870   24.2600 C.3    30  PRO30       0.0310
     43  CG       -28.3600   -7.3360   24.3490 C.3    30  PRO30       0.0237
     44  CD       -28.7990   -7.0700   22.9430 C.3    30  PRO30       0.0939
     45  N        -25.5990  -10.5960   22.7040 N.am   31  PRO31      -0.2727
     46  CA       -25.4030  -11.9550   22.1920 C.3    31  PRO31       0.1402
     47  C        -26.1820  -12.9860   23.0060 C.2    31  PRO31       0.2269
     48  O        -26.3480  -14.1160   22.5460 O.2    31  PRO31      -0.2865
     49  CB       -23.8960  -12.1670   22.3320 C.3    31  PRO31       0.0296
     50  CG       -23.4870  -11.2800   23.4630 C.3    31  PRO31       0.0237
     51  CD       -24.5280  -10.1990   23.6360 C.3    31  PRO31       0.0939
     52  N        -20.2210  -10.3100    9.9370 N.3   141  HIS141     -0.1241
     53  CA       -20.2960  -10.4020   11.3940 C.3   141  HIS141      0.1621
     54  C        -20.6220  -11.8010   11.9550 C.2   141  HIS141      0.2264
     55  O        -19.9140  -12.2600   12.8550 O.2   141  HIS141     -0.2867
     56  CB       -21.2900   -9.3760   11.9430 C.3   141  HIS141      0.0745
     57  CG       -21.0980   -9.0950   13.3990 C.ar  141  HIS141      0.0817
     58  ND1      -22.1070   -8.6680   14.2290 N.ar  141  HIS141     -0.2268
     59  CD2      -19.9840   -9.1720   14.1690 C.ar  141  HIS141      0.1154
     60  CE1      -21.6270   -8.4980   15.4510 C.ar  141  HIS141      0.1986
     61  NE2      -20.3420   -8.7970   15.4380 N.ar  141  HIS141     -0.2212
     62  N        -23.9960  -11.4330   12.5500 N.3   143  THR143     -0.1203
     63  CA       -25.1920  -11.0270   13.3000 C.3   143  THR143      0.1994
     64  C        -25.5660   -9.5520   13.1360 C.2   143  THR143      0.2618
     65  O        -26.5440   -9.0860   13.7230 O.2   143  THR143     -0.2717
     66  CB       -25.0380  -11.3340   14.8050 C.3   143  THR143      0.1784
     67  OG1      -24.0280  -10.4910   15.3670 O.3   143  THR143     -0.2211
     68  CG2      -24.6360  -12.7820   15.0060 C.3   143  THR143      0.0376
     69  N        -24.7690   -8.8260   12.3580 N.am  144  GLN144     -0.1965
     70  CA       -25.0170   -7.4180   12.0720 C.3   144  GLN144      0.1733
     71  C        -26.4530   -7.1130   11.6860 C.2   144  GLN144      0.2616
     72  O        -27.0390   -7.7650   10.8230 O.2   144  GLN144     -0.2715
     73  CB       -24.1310   -6.9450   10.9180 C.3   144  GLN144      0.0408
     74  CG       -24.4000   -5.5080   10.4960 C.3   144  GLN144      0.0908
     75  CD       -24.0270   -5.2470    9.0540 C.2   144  GLN144      0.2608
     76  OE1      -23.3150   -6.0330    8.4440 O.2   144  GLN144     -0.2717
     77  NE2      -24.5140   -4.1400    8.5000 N.am  144  GLN144     -0.0878
     78  N        -27.0170   -6.1250   12.3660 N.am  145  LYS145     -0.1977
     79  CA       -28.3410   -5.6180   12.0540 C.3   145  LYS145      0.1596
     80  C        -28.2270   -4.5060   11.0250 C.2   145  LYS145      0.2287
     81  O        -27.2830   -3.7190   11.0470 O.2   145  LYS145     -0.2864
     82  CB       -29.0620   -5.1550   13.3180 C.3   145  LYS145      0.0298
     83  CG       -29.2110   -6.2920   14.3120 C.3   145  LYS145      0.0038
     84  CD       -30.0950   -7.3820   13.7130 C.3   145  LYS145      0.0206
     85  CE       -29.9700   -8.6910   14.4720 C.3   145  LYS145      0.1093
     86  NZ       -30.0380   -8.4950   15.9360 N.3   145  LYS145     -0.1314
     87  N        -31.9890    0.3350   12.1830 N.3   150  MET150     -0.1245
     88  CA       -31.3960    1.0710   13.2940 C.3   150  MET150      0.1570
     89  C        -31.6960    2.5600   13.2130 C.2   150  MET150      0.2261
     90  O        -31.9330    3.2090   14.2310 O.2   150  MET150     -0.2867
     91  CB       -29.8800    0.8520   13.3260 C.3   150  MET150      0.0387
     92  CG       -29.4600   -0.5820   13.5950 C.3   150  MET150      0.0595
     93  SD       -30.1910   -1.2280   15.1110 S.3   150  MET150     -0.1393
     94  CE       -29.6960    0.0320   16.2840 C.3   150  MET150      0.0692
     95  N        -24.6450    1.6060   23.0950 N.3   166  ASP166     -0.1225
     96  CA       -24.7520    0.2430   22.5960 C.3   166  ASP166      0.1790
     97  C        -23.6030   -0.5870   23.1610 C.2   166  ASP166      0.2440
     98  O        -22.5500   -0.7060   22.5340 O.2   166  ASP166     -0.2733
     99  CB       -24.7450    0.2230   21.0660 C.3   166  ASP166      0.1423
    100  CG       -24.9960   -1.1580   20.5000 C.2   166  ASP166      0.3668
    101  OD1      -25.3200   -2.0650   21.2890 O.co2 166  ASP166     -0.2456
    102  OD2      -24.8840   -1.3340   19.2690 O.co2 166  ASP166     -0.2456
    103  N        -23.8080   -1.1620   24.3580 N.am  167  PRO167     -0.2718
    104  CA       -22.7810   -1.9120   25.0950 C.3   167  PRO167      0.1535
    105  C        -22.1990   -3.0810   24.3040 C.2   167  PRO167      0.2599
    106  O        -21.0290   -3.4140   24.4820 O.2   167  PRO167     -0.2715
    107  CB       -23.5340   -2.4230   26.3330 C.3   167  PRO167      0.0310
    108  CG       -24.9880   -2.2930   25.9960 C.3   167  PRO167      0.0237
    109  CD       -25.0870   -1.1190   25.0860 C.3   167  PRO167      0.0939
    110  N        -23.0080   -3.7020   23.4540 N.am  168  PHE168     -0.1960
    111  CA       -22.4850   -4.6410   22.4740 C.3   168  PHE168      0.1771
    112  C        -22.7760   -4.0790   21.0900 C.2   168  PHE168      0.2619
    113  O        -23.9050   -4.1700   20.6180 O.2   168  PHE168     -0.2715
    114  CB       -23.1390   -6.0130   22.6500 C.3   168  PHE168      0.0574
    115  CG       -23.4310   -6.3680   24.0840 C.ar  168  PHE168     -0.0200
    116  CD1      -22.4360   -6.8560   24.9120 C.ar  168  PHE168     -0.0042
    117  CD2      -24.6980   -6.1790   24.6110 C.ar  168  PHE168     -0.0042
    118  CE1      -22.7040   -7.1770   26.2330 C.ar  168  PHE168     -0.0003
    119  CE2      -24.9730   -6.4920   25.9300 C.ar  168  PHE168     -0.0003
    120  CZ       -23.9740   -6.9910   26.7420 C.ar  168  PHE168     -0.0000
    121  N        -21.7820   -3.4810   20.4420 N.am  169  MET169     -0.1963
    122  CA       -22.0690   -2.7810   19.1930 C.3   169  MET169      0.1736
    123  C        -21.7670   -3.5620   17.9130 C.2   169  MET169      0.2617
    124  O        -22.2190   -3.1660   16.8390 O.2   169  MET169     -0.2715
    125  CB       -21.3250   -1.4440   19.1570 C.3   169  MET169      0.0427
    126  CG       -19.8190   -1.5470   19.0560 C.3   169  MET169      0.0599
    127  SD       -19.1120    0.0250   18.5290 S.3   169  MET169     -0.1393
    128  CE       -17.3640   -0.3520   18.5760 C.3   169  MET169      0.0692
    129  N        -21.0570   -4.6830   18.0180 N.am  170  GLY170     -0.1940
    130  CA       -20.7120   -5.4460   16.8290 C.3   170  GLY170      0.2014
    131  C        -19.9400   -4.6070   15.8270 C.2   170  GLY170      0.2640
    132  O        -18.8500   -4.1090   16.1080 O.2   170  GLY170     -0.2714
    133  N        -20.5280   -4.4580   14.6460 N.am  171  SER171     -0.1935
    134  CA       -19.9690   -3.6580   13.5640 C.3   171  SER171      0.2055
    135  C        -20.3630   -2.2000   13.7660 C.2   171  SER171      0.2644
    136  O        -20.1910   -1.3700   12.8760 O.2   171  SER171     -0.2714
    137  CB       -20.4480   -4.1560   12.1980 C.3   171  SER171      0.2130
    138  OG       -21.8400   -3.9450   12.0340 O.3   171  SER171     -0.2179
    139  N        -20.8840   -1.8920   14.9500 N.am  172  GLY172     -0.1939
    140  CA       -21.5570   -0.6320   15.1790 C.3   172  GLY172      0.2014
    141  C        -22.9400   -0.6980   14.5700 C.2   172  GLY172      0.2640
    142  O        -23.7470   -1.5270   14.9950 O.2   172  GLY172     -0.2714
    143  N        -23.2240    0.2080   13.6370 N.am  173  THR173     -0.1936
    144  CA       -24.5140    0.3330   12.9430 C.3   173  THR173      0.2028
    145  C        -25.5300    1.0000   13.8610 C.2   173  THR173      0.2642
    146  O        -26.5410    1.5300   13.4040 O.2   173  THR173     -0.2714
    147  CB       -25.0920   -1.0270   12.4700 C.3   173  THR173      0.1808
    148  OG1      -24.0420   -1.8680   11.9800 O.3   173  THR173     -0.2208
    149  CG2      -26.1360   -0.8210   11.3860 C.3   173  THR173      0.0379
    150  N        -25.2570    0.9690   15.1600 N.am  174  THR174     -0.1950
    151  CA       -26.0000    1.7780   16.1070 C.3   174  THR174      0.1897
    152  C        -25.3530    3.1520   16.0880 C.2   174  THR174      0.2313
    153  O        -26.0280    4.1780   16.1020 O.2   174  THR174     -0.2863
    154  CB       -25.9820    1.1870   17.5240 C.3   174  THR174      0.1794
    155  OG1      -26.2100   -0.2260   17.4550 O.3   174  THR174     -0.2208
    156  CG2      -27.0620    1.8280   18.3780 C.3   174  THR174      0.0378
    157  N        -19.4260   -0.0930   22.8450 N.3   188  ILE188     -0.1231
    158  CA       -18.3940   -0.9780   23.3740 C.3   188  ILE188      0.1692
    159  C        -18.3780   -2.2900   22.5890 C.2   188  ILE188      0.2592
    160  O        -19.4260   -2.7770   22.1600 O.2   188  ILE188     -0.2718
    161  CB       -18.6100   -1.2560   24.8820 C.3   188  ILE188      0.0266
    162  CG1      -18.5960    0.0530   25.6750 C.3   188  ILE188      0.0019
    163  CG2      -17.5230   -2.1590   25.4330 C.3   188  ILE188      0.0020
    164  CD1      -19.9670    0.5950   26.0050 C.3   188  ILE188      0.0001
    165  N        -17.1900   -2.8580   22.4020 N.am  189  GLU189     -0.1966
    166  CA       -17.0530   -4.1330   21.7110 C.3   189  GLU189      0.1733
    167  C        -15.9090   -4.9670   22.2930 C.2   189  GLU189      0.2617
    168  O        -14.8610   -4.4320   22.6470 O.2   189  GLU189     -0.2715
    169  CB       -16.8350   -3.8850   20.2150 C.3   189  GLU189      0.0429
    170  CG       -16.6990   -5.1350   19.3750 C.3   189  GLU189      0.1163
    171  CD       -17.8570   -6.0850   19.5760 C.2   189  GLU189      0.3649
    172  OE1      -19.0080   -5.6870   19.3130 O.co2 189  GLU189     -0.2457
    173  OE2      -17.6130   -7.2330   19.9960 O.co2 189  GLU189     -0.2457
    174  N        -16.1160   -6.2780   22.3860 N.am  190  SER190     -0.1936
    175  CA       -15.1220   -7.1840   22.9610 C.3   190  SER190      0.2055
    176  C        -14.0550   -7.6070   21.9640 C.2   190  SER190      0.2642
    177  O        -12.8770   -7.7140   22.3080 O.2   190  SER190     -0.2714
    178  CB       -15.7910   -8.4360   23.5280 C.3   190  SER190      0.2130
    179  OG       -16.6140   -8.1230   24.6280 O.3   190  SER190     -0.2179
    180  N        -14.4700   -7.8350   20.7240 N.am  191  GLU191     -0.1976
    181  CA       -13.5840   -8.4140   19.7250 C.3   191  GLU191      0.1602
    182  C        -12.8190   -7.3530   18.9600 C.2   191  GLU191      0.2287
    183  O        -13.3190   -6.2540   18.7210 O.2   191  GLU191     -0.2864
    184  CB       -14.3770   -9.2770   18.7430 C.3   191  GLU191      0.0415
    185  CG       -15.1890  -10.3670   19.4120 C.3   191  GLU191      0.1163
    186  CD       -14.3270  -11.3150   20.2170 C.2   191  GLU191      0.3649
    187  OE1      -13.1990  -11.6230   19.7760 O.co2 191  GLU191     -0.2457
    188  OE2      -14.7730  -11.7380   21.3020 O.co2 191  GLU191     -0.2457
    189  N        -14.1580   -6.8450   15.2530 N.3   194  TYR194     -0.1241
    190  CA       -15.4190   -6.1180   15.2100 C.3   194  TYR194      0.1605
    191  C        -15.2210   -4.6470   15.5740 C.2   194  TYR194      0.2264
    192  O        -15.7690   -3.7640   14.9160 O.2   194  TYR194     -0.2867
    193  CB       -16.4420   -6.7770   16.1340 C.3   194  TYR194      0.0534
    194  CG       -16.7550   -8.2050   15.7400 C.ar  194  TYR194     -0.0201
    195  CD1      -16.6230   -8.6290   14.4220 C.ar  194  TYR194     -0.0009
    196  CD2      -17.1870   -9.1270   16.6820 C.ar  194  TYR194     -0.0009
    197  CE1      -16.8980   -9.9360   14.0600 C.ar  194  TYR194      0.0417
    198  CE2      -17.4750  -10.4320   16.3290 C.ar  194  TYR194      0.0417
    199  CZ       -17.3300  -10.8310   15.0170 C.ar  194  TYR194      0.1957
    200  OH       -17.6140  -12.1300   14.6630 O.3   194  TYR194     -0.2866
@<TRIPOS>BOND
     1    76    75    2
     2    77    75   am
     3    75    74    1
     4    52    53    1
     5    74    73    1
     6    72    71    2
     7    73    70    1
     8    80    81    2
     9    80    79    1
    10   149   147    1
    11    53    56    1
    12    53    54    1
    13    71    70    1
    14    71    78   am
    15    56    57    1
    16    54    55    2
    17   148   147    1
    18   138   137    1
    19    79    78    1
    20    79    82    1
    21    70    69    1
    22    87    88    1
    23   137   134    1
    24    69    64   am
    25   147   144    1
    26    62    63    1
    27   136   135    2
    28   144   143    1
    29   144   145    1
    30    64    63    1
    31    64    65    2
    32    89    88    1
    33    89    90    2
    34    88    91    1
    35    63    66    1
    36    82    83    1
    37    91    92    1
    38    57    59   ar
    39    57    58   ar
    40   146   145    2
    41   134   135    1
    42   134   133    1
    43    92    93    1
    44   143   141   am
    45    84    83    1
    46    84    85    1
    47   135   139   am
    48   145   150   am
    49   197   195   ar
    50   197   199   ar
    51    59    61   ar
    52    58    60   ar
    53   195   194   ar
    54    85    86    1
    55   141   142    2
    56   141   140    1
    57   133   131   am
    58   200   199    1
    59    66    68    1
    60    66    67    1
    61   192   191    2
    62   139   140    1
    63   199   198   ar
    64    93    94    1
    65   150   151    1
    66   190   189    1
    67   190   191    1
    68   190   193    1
    69    61    60   ar
    70   194   193    1
    71   194   196   ar
    72   131   132    2
    73   131   130    1
    74   152   153    2
    75   152   151    1
    76   151   154    1
    77   198   196   ar
    78   130   129    1
    79   124   123    2
    80    37    35   ar
    81   155   154    1
    82   154   156    1
    83   123   129   am
    84   123   122    1
    85    35    34    1
    86    35    36   ar
    87   127   128    1
    88   127   126    1
    89    34    31    1
    90   183   182    2
    91   184   185    1
    92   184   181    1
    93   182   181    1
    94   126   125    1
    95   125   122    1
    96   122   121    1
    97   102   100   ar
    98   172   171   ar
    99   170   171    1
   100   170   169    1
   101   185   186    1
   102   171   173   ar
   103   181   180    1
   104   187   186   ar
   105   169   166    1
   106   186   188   ar
   107    31    30    1
   108    31    32    1
   109    33    32    2
   110   121   112   am
   111   100    99    1
   112   100   101   ar
   113   113   112    2
   114   180   176   am
   115    32    38   am
   116    99    96    1
   117   112   111    1
   118    41    40    2
   119   166   167    1
   120   166   165    1
   121   176   177    2
   122   176   175    1
   123    38    39    1
   124    38    44    1
   125   160   159    2
   126    46    49    1
   127    46    45    1
   128    46    47    1
   129    40    45   am
   130    40    39    1
   131   167   174   am
   132   167   168    2
   133    49    50    1
   134   174   175    1
   135   165   159   am
   136   111   114    1
   137   111   110    1
   138    98    97    2
   139    48    47    2
   140   159   158    1
   141    96    95    1
   142    96    97    1
   143   114   115    1
   144    45    51    1
   145   157   158    1
   146    39    42    1
   147    44    43    1
   148   175   178    1
   149    97   103   am
   150   158   161    1
   151   110   105   am
   152    50    51    1
   153   178   179    1
   154   115   117   ar
   155   115   116   ar
   156    42    43    1
   157   105   106    2
   158   105   104    1
   159   103   109    1
   160   103   104    1
   161   117   119   ar
   162     1     2    1
   163   161   163    1
   164   161   162    1
   165   116   118   ar
   166   109   108    1
   167   104   107    1
   168     4     3    2
   169   162   164    1
   170   119   120   ar
   171   108   107    1
   172     2     3    1
   173     2     5    1
   174   118   120   ar
   175     3     6   am
   176     6     7    1
   177     7     8    1
   178     7    10    1
   179    18    15    1
   180    14     8   am
   181    14    15    1
   182     8     9    2
   183    15    16    1
   184    10    11    1
   185    12    11   ar
   186    11    13   ar
   187    28    26   ar
   188    28    29   ar
   189    16    19   am
   190    16    17    2
   191    26    24   ar
   192    19    20    1
   193    29    27   ar
   194    24    23    1
   195    24    25   ar
   196    20    23    1
   197    20    21    1
   198    27    25   ar
   199    21    22    2
