@<TRIPOS>MOLECULE
tmp/5hfkB00.pdb
 146 143 0 0 0
SMALL
GASTEIGER

@<TRIPOS>ATOM
      1  N         69.9470   17.9200   77.0350 N.3     9  THR9       -0.1204
      2  CA        68.9060   18.7460   76.4350 C.3     9  THR9        0.1979
      3  C         69.5670   19.6230   75.3900 C.2     9  THR9        0.2460
      4  O         70.7930   19.7420   75.3740 O.2     9  THR9       -0.2732
      5  CB        68.2500   19.6570   77.4550 C.3     9  THR9        0.1783
      6  OG1       69.2240   20.6080   77.9190 O.3     9  THR9       -0.2211
      7  CG2       67.6880   18.8450   78.6290 C.3     9  THR9        0.0376
      8  N         68.7620   20.2930   74.5460 N.am   10  PRO10      -0.2717
      9  CA        69.4080   21.1860   73.5610 C.3    10  PRO10       0.1535
     10  C         70.2780   22.2730   74.2130 C.2    10  PRO10       0.2598
     11  O         71.3770   22.5650   73.7180 O.2    10  PRO10      -0.2715
     12  CB        68.2210   21.7880   72.8170 C.3    10  PRO10       0.0310
     13  CG        67.1720   20.6940   72.8720 C.3    10  PRO10       0.0237
     14  CD        67.3370   20.0580   74.2440 C.3    10  PRO10       0.0939
     15  N         69.8270   22.8530   75.3250 N.am   11  ASN11      -0.1973
     16  CA        70.6300   23.9240   75.9250 C.3    11  ASN11       0.1688
     17  C         71.8770   23.3800   76.6270 C.2    11  ASN11       0.2292
     18  O         72.9220   24.0330   76.6440 O.2    11  ASN11      -0.2864
     19  CB        69.7580   24.7270   76.8860 C.3    11  ASN11       0.1181
     20  CG        68.6370   25.4520   76.1410 C.2    11  ASN11       0.2629
     21  OD1       68.8750   26.0060   75.0750 O.2    11  ASN11      -0.2716
     22  ND2       67.4180   25.4170   76.6740 N.am   11  ASN11      -0.0877
     23  N         74.6100   22.7140   74.0140 N.3    14  LYS14      -0.1245
     24  CA        75.3170   23.9030   73.5170 C.3    14  LYS14       0.1561
     25  C         76.6860   23.9930   74.1530 C.2    14  LYS14       0.2260
     26  O         77.6950   24.3190   73.4900 O.2    14  LYS14      -0.2867
     27  CB        74.5710   25.1970   73.8220 C.3    14  LYS14       0.0271
     28  CG        73.2780   25.4020   73.1090 C.3    14  LYS14       0.0035
     29  CD        72.6000   26.6830   73.6070 C.3    14  LYS14       0.0206
     30  CE        71.1890   26.8440   73.0990 C.3    14  LYS14       0.1093
     31  NZ        70.5990   28.0740   73.7340 N.3    14  LYS14      -0.1314
     32  N         66.6080   16.8080   86.1890 N.3    33  LEU33      -0.1245
     33  CA        65.4760   17.7260   86.0440 C.3    33  LEU33       0.1561
     34  C         64.1770   17.0220   86.3640 C.2    33  LEU33       0.2260
     35  O         63.2260   17.6620   86.7720 O.2    33  LEU33      -0.2867
     36  CB        65.4050   18.3170   84.6300 C.3    33  LEU33       0.0270
     37  CG        66.6630   19.0590   84.1960 C.3    33  LEU33       0.0019
     38  CD1       66.5000   19.6420   82.7850 C.3    33  LEU33       0.0001
     39  CD2       66.9950   20.1690   85.2020 C.3    33  LEU33       0.0001
     40  N         67.0750   20.8360   89.9330 N.3    38  GLN38      -0.1231
     41  CA        67.3080   22.2410   89.6150 C.3    38  GLN38       0.1698
     42  C         66.7610   23.2020   90.6740 C.2    38  GLN38       0.2592
     43  O         66.9510   24.4130   90.5580 O.2    38  GLN38      -0.2718
     44  CB        66.7090   22.5970   88.2430 C.3    38  GLN38       0.0381
     45  CG        65.1740   22.5470   88.1860 C.3    38  GLN38       0.0905
     46  CD        64.6220   21.1540   87.8850 C.2    38  GLN38       0.2608
     47  OE1       65.1130   20.1370   88.4020 O.2    38  GLN38      -0.2717
     48  NE2       63.5750   21.1030   87.0520 N.am   38  GLN38      -0.0878
     49  N         66.0660   22.6690   91.6790 N.am   39  PHE39      -0.1976
     50  CA        65.5350   23.4840   92.7650 C.3    39  PHE39       0.1639
     51  C         66.3180   23.3020   94.0790 C.2    39  PHE39       0.2290
     52  O         65.9520   23.8820   95.1020 O.2    39  PHE39      -0.2864
     53  CB        64.0530   23.1610   92.9800 C.3    39  PHE39       0.0560
     54  CG        63.2040   23.4070   91.7520 C.ar   39  PHE39      -0.0200
     55  CD1       62.9470   24.7060   91.3190 C.ar   39  PHE39      -0.0042
     56  CD2       62.6990   22.3480   91.0140 C.ar   39  PHE39      -0.0042
     57  CE1       62.1810   24.9400   90.1860 C.ar   39  PHE39      -0.0003
     58  CE2       61.9300   22.5760   89.8710 C.ar   39  PHE39      -0.0003
     59  CZ        61.6710   23.8750   89.4640 C.ar   39  PHE39      -0.0000
     60  N         67.8920   31.0160   88.3840 N.3    49  ASN49      -0.1225
     61  CA        66.7370   30.8440   87.5000 C.3    49  ASN49       0.1785
     62  C         66.2620   29.3900   87.4550 C.2    49  ASN49       0.2597
     63  O         65.3680   29.0340   86.6890 O.2    49  ASN49      -0.2718
     64  CB        67.0700   31.3700   86.1100 C.3    49  ASN49       0.1169
     65  CG        65.8550   31.4590   85.1970 C.2    49  ASN49       0.2627
     66  OD1       64.7930   31.9960   85.5730 O.2    49  ASN49      -0.2716
     67  ND2       66.0100   30.9550   83.9640 N.am   49  ASN49      -0.0877
     68  N         66.8690   28.5500   88.2890 N.am   50  ASN50      -0.1960
     69  CA        66.5030   27.1290   88.4210 C.3    50  ASN50       0.1819
     70  C         66.5840   26.3560   87.1020 C.2    50  ASN50       0.2621
     71  O         65.7940   25.4430   86.8440 O.2    50  ASN50      -0.2715
     72  CB        65.1520   26.8930   89.1460 C.3    50  ASN50       0.1195
     73  CG        63.9160   27.3920   88.3800 C.2    50  ASN50       0.2630
     74  OD1       63.2720   28.3730   88.7900 O.2    50  ASN50      -0.2716
     75  ND2       63.5430   26.6860   87.3060 N.am   50  ASN50      -0.0877
     76  N         67.5970   26.6800   86.3000 N.am   51  LYS51      -0.1963
     77  CA        67.7630   25.9860   85.0350 C.3    51  LYS51       0.1728
     78  C         69.1970   25.5890   84.7320 C.2    51  LYS51       0.2616
     79  O         70.1450   26.2130   85.2250 O.2    51  LYS51      -0.2715
     80  CB        67.2170   26.8620   83.8880 C.3    51  LYS51       0.0311
     81  CG        65.6940   27.0120   83.9700 C.3    51  LYS51       0.0038
     82  CD        65.1400   27.8100   82.7950 C.3    51  LYS51       0.0206
     83  CE        63.6650   28.1650   83.0030 C.3    51  LYS51       0.1093
     84  NZ        62.7620   27.0070   82.7860 N.3    51  LYS51      -0.1314
     85  N         69.3450   24.5540   83.9060 N.am   52  ILE52      -0.1964
     86  CA        70.6340   24.2670   83.2940 C.3    52  ILE52       0.1712
     87  C         70.6130   24.7810   81.8480 C.2    52  ILE52       0.2458
     88  O         69.5540   24.9950   81.2830 O.2    52  ILE52      -0.2730
     89  CB        70.9860   22.7520   83.3410 C.3    52  ILE52       0.0289
     90  CG1       70.0390   21.8950   82.4930 C.3    52  ILE52       0.0022
     91  CG2       71.0250   22.2710   84.8120 C.3    52  ILE52       0.0023
     92  CD1       70.4550   21.7450   80.9970 C.3    52  ILE52       0.0001
     93  N         71.7910   24.9820   81.2500 N.am   53  PRO53      -0.2727
     94  CA        73.1230   24.7980   81.8220 C.3    53  PRO53       0.1402
     95  C         73.5420   25.9270   82.7800 C.2    53  PRO53       0.2269
     96  O         73.0370   27.0350   82.7080 O.2    53  PRO53      -0.2865
     97  CB        74.0320   24.8190   80.5890 C.3    53  PRO53       0.0296
     98  CG        73.3030   25.7420   79.6430 C.3    53  PRO53       0.0237
     99  CD        71.8550   25.4020   79.8360 C.3    53  PRO53       0.0939
    100  N         72.5340   30.8290   81.9780 N.3    71  GLU71      -0.1231
    101  CA        72.1560   31.2140   80.6020 C.3    71  GLU71       0.1699
    102  C         73.1900   30.7410   79.5860 C.2    71  GLU71       0.2593
    103  O         74.3280   31.2360   79.5440 O.2    71  GLU71      -0.2718
    104  CB        71.9480   32.7310   80.4480 C.3    71  GLU71       0.0402
    105  CG        70.6650   33.2120   81.1140 C.3    71  GLU71       0.1161
    106  CD        69.3990   32.5970   80.5120 C.2    71  GLU71       0.3649
    107  OE1       69.3320   32.4280   79.2640 O.co2  71  GLU71      -0.2457
    108  OE2       68.4580   32.2790   81.2720 O.co2  71  GLU71      -0.2457
    109  N         72.7810   29.7760   78.7700 N.am   72  SER72      -0.1938
    110  CA        73.6400   29.1700   77.7660 C.3    72  SER72       0.2055
    111  C         74.2820   30.2290   76.8770 C.2    72  SER72       0.2643
    112  O         75.4250   30.0970   76.5080 O.2    72  SER72      -0.2714
    113  CB        72.8590   28.1470   76.8950 C.3    72  SER72       0.2130
    114  OG        71.7920   28.7860   76.1570 O.3    72  SER72      -0.2179
    115  N         73.5460   31.2960   76.5460 N.am   73  GLY73      -0.1954
    116  CA        74.1300   32.3050   75.6940 C.3    73  GLY73       0.1869
    117  C         75.2170   33.1190   76.3730 C.2    73  GLY73       0.2309
    118  O         76.2370   33.4300   75.7720 O.2    73  GLY73      -0.2863
    119  N         68.7330   32.7480   71.1720 N.3   105  VAL105     -0.1245
    120  CA        68.3310   32.7710   72.5750 C.3   105  VAL105      0.1561
    121  C         66.9370   33.3420   72.7480 C.2   105  VAL105      0.2260
    122  O         66.1560   32.8650   73.5560 O.2   105  VAL105     -0.2867
    123  CB        69.3350   33.5930   73.4070 C.3   105  VAL105      0.0252
    124  CG1       68.8000   33.8700   74.8270 C.3   105  VAL105      0.0019
    125  CG2       70.6610   32.8380   73.4750 C.3   105  VAL105      0.0019
    126  N         63.3140   29.5180   72.5350 N.3   110  PRO110     -0.2116
    127  CA        62.0260   29.6540   73.2190 C.3   110  PRO110      0.1372
    128  C         60.8680   29.1060   72.3890 C.2   110  PRO110      0.2244
    129  O         60.0110   28.4470   72.9470 O.2   110  PRO110     -0.2868
    130  CB        61.8870   31.1630   73.4140 C.3   110  PRO110      0.0268
    131  CG        63.3440   31.6440   73.5180 C.3   110  PRO110      0.0207
    132  CD        64.0860   30.7850   72.5320 C.3   110  PRO110      0.0892
    133  N         69.3020   22.6370   68.8750 N.3   169  TRP169     -0.1241
    134  CA        67.8750   22.8360   68.6780 C.3   169  TRP169      0.1605
    135  C         67.4440   22.2990   67.3140 C.2   169  TRP169      0.2264
    136  O         66.4200   21.6350   67.1890 O.2   169  TRP169     -0.2867
    137  CB        67.5010   24.3050   68.8460 C.3   169  TRP169      0.0550
    138  CG        67.3200   24.6660   70.2870 C.ar  169  TRP169      0.0003
    139  CD1       68.1870   25.3480   71.0990 C.ar  169  TRP169      0.0946
    140  CD2       66.2000   24.3210   71.0950 C.ar  169  TRP169      0.0152
    141  NE1       67.6610   25.4610   72.3770 N.ar  169  TRP169     -0.2442
    142  CE2       66.4460   24.8320   72.3980 C.ar  169  TRP169      0.0810
    143  CE3       65.0140   23.6340   70.8490 C.ar  169  TRP169      0.0012
    144  CZ2       65.5360   24.6760   73.4290 C.ar  169  TRP169      0.0191
    145  CZ3       64.1020   23.4740   71.8890 C.ar  169  TRP169      0.0001
    146  CH2       64.3670   23.9850   73.1580 C.ar  169  TRP169      0.0015
@<TRIPOS>BOND
     1   136   135    2
     2   135   134    1
     3   134   137    1
     4   134   133    1
     5   137   138    1
     6   138   140   ar
     7   138   139   ar
     8   143   140   ar
     9   143   145   ar
    10   140   142   ar
    11   139   141   ar
    12   119   120    1
    13   145   146   ar
    14   141   142   ar
    15   128   129    2
    16   128   127    1
    17   142   144   ar
    18   132   126    1
    19   132   131    1
    20   126   127    1
    21   120   121    1
    22   120   123    1
    23   121   122    2
    24    12    13    1
    25    12     9    1
    26    13    14    1
    27    30    29    1
    28    30    31    1
    29    28    29    1
    30    28    27    1
    31   146   144   ar
    32   127   130    1
    33   123   125    1
    34   123   124    1
    35   130   131    1
    36    26    25    2
    37    24    27    1
    38    24    23    1
    39    24    25    1
    40     9    10    1
    41     9     8    1
    42    11    10    2
    43    10    15   am
    44    14     8    1
    45     8     3   am
    46    21    20    2
    47    15    16    1
    48     4     3    2
    49     3     2    1
    50   116   117    1
    51   116   115    1
    52   118   117    2
    53    16    17    1
    54    16    19    1
    55    20    22   am
    56    20    19    1
    57   114   113    1
    58     2     1    1
    59     2     5    1
    60   112   111    2
    61   115   111   am
    62    17    18    2
    63   111   110    1
    64   113   110    1
    65     5     6    1
    66     5     7    1
    67   110   109    1
    68   109   102   am
    69   107   106   ar
    70   103   102    2
    71   102   101    1
    72    98    99    1
    73    98    97    1
    74    99    93    1
    75   104   101    1
    76   104   105    1
    77   106   105    1
    78   106   108   ar
    79    97    94    1
    80   101   100    1
    81    92    90    1
    82    93    94    1
    83    93    87   am
    84    88    87    2
    85    94    95    1
    86    87    86    1
    87    90    89    1
    88    96    95    2
    89    38    37    1
    90    84    83    1
    91    82    83    1
    92    82    81    1
    93    86    89    1
    94    86    85    1
    95    89    91    1
    96    80    81    1
    97    80    77    1
    98    85    78   am
    99    67    65   am
   100    37    36    1
   101    37    39    1
   102    36    33    1
   103    78    77    1
   104    78    79    2
   105    77    76    1
   106    65    66    2
   107    65    64    1
   108    33    32    1
   109    33    34    1
   110    64    61    1
   111    76    70   am
   112    34    35    2
   113    63    62    2
   114    71    70    2
   115    48    46   am
   116    70    69    1
   117    75    73   am
   118    62    61    1
   119    62    68   am
   120    61    60    1
   121    46    45    1
   122    46    47    2
   123    45    44    1
   124    44    41    1
   125    68    69    1
   126    73    74    2
   127    73    72    1
   128    69    72    1
   129    59    58   ar
   130    59    57   ar
   131    41    40    1
   132    41    42    1
   133    58    56   ar
   134    57    55   ar
   135    43    42    2
   136    42    49   am
   137    56    54   ar
   138    55    54   ar
   139    49    50    1
   140    54    53    1
   141    50    53    1
   142    50    51    1
   143    51    52    2
