@<TRIPOS>MOLECULE
tmp/5hfuB00.pdb
 169 158 0 0 0
SMALL
GASTEIGER

@<TRIPOS>ATOM
      1  N         70.2330  -17.0470  -45.4390 N.3    46  LYS46      -0.1245
      2  CA        70.4700  -16.9180  -46.8730 C.3    46  LYS46       0.1561
      3  C         69.4190  -17.6420  -47.7200 C.2    46  LYS46       0.2260
      4  O         69.1300  -17.1980  -48.8340 O.2    46  LYS46      -0.2867
      5  CB        71.8870  -17.4080  -47.2010 C.3    46  LYS46       0.0271
      6  CG        72.9900  -16.5460  -46.5890 C.3    46  LYS46       0.0035
      7  CD        74.4710  -17.0100  -46.9540 C.3    46  LYS46       0.0206
      8  CE        75.0060  -18.2930  -46.2180 C.3    46  LYS46       0.1093
      9  NZ        75.2610  -18.2000  -44.7320 N.3    46  LYS46      -0.1314
     10  N         69.4260  -20.7800  -49.2940 N.3    48  LEU48      -0.1245
     11  CA        70.1600  -21.0800  -50.5220 C.3    48  LEU48       0.1561
     12  C         69.3880  -22.0920  -51.3550 C.2    48  LEU48       0.2260
     13  O         68.8810  -23.0750  -50.8030 O.2    48  LEU48      -0.2867
     14  CB        71.5430  -21.6160  -50.2060 C.3    48  LEU48       0.0270
     15  CG        72.3390  -20.6340  -49.3620 C.3    48  LEU48       0.0019
     16  CD1       73.7320  -21.1930  -49.0040 C.3    48  LEU48       0.0001
     17  CD2       72.4310  -19.3270  -50.1200 C.3    48  LEU48       0.0001
     18  N         80.6120  -30.7570  -46.1390 N.3   139  SER139     -0.1202
     19  CA        80.5320  -29.6540  -45.2140 C.3   139  SER139      0.2020
     20  C         81.8430  -28.8890  -45.4040 C.2   139  SER139      0.2619
     21  O         82.8480  -29.1660  -44.7400 O.2   139  SER139     -0.2717
     22  CB        80.2950  -30.2030  -43.7950 C.3   139  SER139      0.2103
     23  OG        79.2350  -31.1840  -43.7500 O.3   139  SER139     -0.2182
     24  N         81.7990  -27.8930  -46.2990 N.am  140  PHE140     -0.1962
     25  CA        82.6820  -26.7460  -46.4970 C.3   140  PHE140      0.1756
     26  C         81.7470  -25.7190  -47.1220 C.2   140  PHE140      0.2461
     27  O         80.9080  -26.0960  -47.9560 O.2   140  PHE140     -0.2730
     28  CB        83.8850  -26.9940  -47.4240 C.3   140  PHE140      0.0574
     29  CG        84.8570  -28.0410  -46.9350 C.ar  140  PHE140     -0.0200
     30  CD1       85.6420  -27.8190  -45.8020 C.ar  140  PHE140     -0.0042
     31  CD2       85.0330  -29.2300  -47.6360 C.ar  140  PHE140     -0.0042
     32  CE1       86.5470  -28.7840  -45.3550 C.ar  140  PHE140     -0.0003
     33  CE2       85.9470  -30.1960  -47.1910 C.ar  140  PHE140     -0.0003
     34  CZ        86.6970  -29.9670  -46.0550 C.ar  140  PHE140     -0.0000
     35  N         81.8880  -24.4340  -46.8160 N.am  141  PRO141     -0.2716
     36  CA        80.9530  -23.4560  -47.3930 C.3   141  PRO141      0.1536
     37  C         81.2340  -23.2260  -48.8730 C.2   141  PRO141      0.2598
     38  O         82.3870  -23.2030  -49.3090 O.2   141  PRO141     -0.2715
     39  CB        81.2050  -22.1900  -46.5660 C.3   141  PRO141      0.0310
     40  CG        82.6380  -22.3230  -46.1080 C.3   141  PRO141      0.0237
     41  CD        82.8480  -23.8090  -45.8810 C.3   141  PRO141      0.0939
     42  N         80.1700  -23.0570  -49.6550 N.am  142  CYS142     -0.1968
     43  CA        80.3970  -22.8810  -51.0830 C.3   142  CYS142      0.1712
     44  C         79.2160  -22.1640  -51.7220 C.2   142  CYS142      0.2296
     45  O         78.1690  -21.9790  -51.1050 O.2   142  CYS142     -0.2864
     46  CB        80.6970  -24.2230  -51.7700 C.3   142  CYS142      0.0983
     47  SG        79.7750  -25.6110  -51.1430 S.3   142  CYS142     -0.0798
     48  N         84.1100  -21.7230  -51.2020 N.3   153  VAL153     -0.1245
     49  CA        84.3440  -20.3550  -50.7530 C.3   153  VAL153      0.1561
     50  C         85.5120  -20.2810  -49.7850 C.2   153  VAL153      0.2260
     51  O         86.3530  -19.3840  -49.8880 O.2   153  VAL153     -0.2867
     52  CB        83.0750  -19.7700  -50.1240 C.3   153  VAL153      0.0252
     53  CG1       83.4460  -18.5750  -49.2530 C.3   153  VAL153      0.0019
     54  CG2       82.0950  -19.3800  -51.2210 C.3   153  VAL153      0.0019
     55  N         87.9650  -25.4170  -44.2750 N.3   156  THR156     -0.1203
     56  CA        87.5890  -25.6560  -42.8880 C.3   156  THR156      0.1994
     57  C         88.3530  -26.8700  -42.3680 C.2   156  THR156      0.2617
     58  O         88.7550  -27.7390  -43.1460 O.2   156  THR156     -0.2717
     59  CB        86.0470  -25.8450  -42.7840 C.3   156  THR156      0.1784
     60  OG1       85.4100  -24.5830  -42.7540 O.3   156  THR156     -0.2211
     61  CG2       85.6100  -26.6530  -41.5780 C.3   156  THR156      0.0376
     62  N         88.5890  -26.9000  -41.0480 N.am  157  LYS157     -0.1979
     63  CA        89.0560  -28.1010  -40.3390 C.3   157  LYS157      0.1596
     64  C         90.4100  -28.5880  -40.8500 C.2   157  LYS157      0.2287
     65  O         90.6620  -29.7940  -40.9370 O.2   157  LYS157     -0.2864
     66  CB        88.0260  -29.2350  -40.4060 C.3   157  LYS157      0.0298
     67  CG        86.9760  -29.1640  -39.3190 C.3   157  LYS157      0.0038
     68  CD        86.1400  -30.4240  -39.2820 C.3   157  LYS157      0.0206
     69  CE        84.8030  -30.1960  -39.9500 C.3   157  LYS157      0.1093
     70  NZ        83.8540  -31.3220  -39.7150 N.3   157  LYS157     -0.1314
     71  N         74.1840  -30.2510  -49.7310 N.3   192  ASN192     -0.1225
     72  CA        74.4990  -29.9380  -48.3450 C.3   192  ASN192      0.1785
     73  C         74.0380  -31.1110  -47.4900 C.2   192  ASN192      0.2597
     74  O         73.2870  -31.9600  -47.9530 O.2   192  ASN192     -0.2718
     75  CB        73.8380  -28.6090  -47.9590 C.3   192  ASN192      0.1169
     76  CG        73.9980  -28.2510  -46.4890 C.2   192  ASN192      0.2627
     77  OD1       73.1990  -28.6540  -45.6350 O.2   192  ASN192     -0.2716
     78  ND2       75.0420  -27.4770  -46.1890 N.am  192  ASN192     -0.0877
     79  N         74.5580  -31.2130  -46.2590 N.am  193  ASP193     -0.1960
     80  CA        74.3200  -32.4200  -45.4580 C.3   193  ASP193      0.1840
     81  C         72.8810  -32.5200  -44.9430 C.2   193  ASP193      0.2622
     82  O         72.3560  -33.6340  -44.8040 O.2   193  ASP193     -0.2715
     83  CB        75.3120  -32.4930  -44.3020 C.3   193  ASP193      0.1450
     84  CG        75.3930  -31.1910  -43.5080 C.2   193  ASP193      0.3671
     85  OD1       74.5720  -30.2810  -43.7810 O.co2 193  ASP193     -0.2456
     86  OD2       76.2750  -31.0750  -42.6110 O.co2 193  ASP193     -0.2456
     87  N         72.2190  -31.3910  -44.6540 N.am  194  THR194     -0.1951
     88  CA        70.8010  -31.4560  -44.2950 C.3   194  THR194      0.1897
     89  C         69.9520  -31.9020  -45.4840 C.2   194  THR194      0.2313
     90  O         69.0020  -32.6760  -45.3170 O.2   194  THR194     -0.2863
     91  CB        70.3120  -30.1100  -43.7680 C.3   194  THR194      0.1794
     92  OG1       70.2510  -29.1720  -44.8410 O.3   194  THR194     -0.2208
     93  CG2       71.2640  -29.5700  -42.7400 C.3   194  THR194      0.0378
     94  N         69.5560  -30.8960  -38.7760 N.3   213  ILE213     -0.1245
     95  CA        70.7520  -31.3690  -38.0940 C.3   213  ILE213      0.1561
     96  C         70.9510  -30.5170  -36.8460 C.2   213  ILE213      0.2260
     97  O         71.0600  -29.2890  -36.9430 O.2   213  ILE213     -0.2867
     98  CB        71.9750  -31.3360  -39.0190 C.3   213  ILE213      0.0252
     99  CG1       71.7200  -32.2830  -40.1800 C.3   213  ILE213      0.0019
    100  CG2       73.2370  -31.7690  -38.2800 C.3   213  ILE213      0.0019
    101  CD1       72.8320  -32.3710  -41.1540 C.3   213  ILE213      0.0001
    102  N         73.8440  -30.9420  -34.5870 N.3   215  GLY215     -0.1210
    103  CA        75.0820  -31.6780  -34.4360 C.3   215  GLY215      0.1956
    104  C         76.0940  -30.8200  -33.7300 C.2   215  GLY215      0.2613
    105  O         75.7280  -29.9480  -32.9370 O.2   215  GLY215     -0.2717
    106  N         77.3730  -31.0480  -34.0400 N.am  216  THR216     -0.1938
    107  CA        78.3940  -30.0670  -33.6920 C.3   216  THR216      0.2028
    108  C         78.0100  -28.6680  -34.1900 C.2   216  THR216      0.2643
    109  O         78.2120  -27.6780  -33.4760 O.2   216  THR216     -0.2714
    110  CB        79.7610  -30.5300  -34.2230 C.3   216  THR216      0.1808
    111  OG1       80.6990  -29.5090  -34.1090 O.3   216  THR216     -0.2208
    112  CG2       79.6890  -30.9800  -35.6330 C.3   216  THR216      0.0379
    113  N         77.4520  -28.5690  -35.4050 N.am  217  GLY217     -0.1939
    114  CA        76.7390  -27.3960  -35.8670 C.3   217  GLY217      0.2014
    115  C         75.2360  -27.6490  -35.9650 C.2   217  GLY217      0.2640
    116  O         74.7520  -28.7420  -35.6850 O.2   217  GLY217     -0.2714
    117  N         74.4870  -26.6130  -36.3830 N.am  218  SER218     -0.1935
    118  CA        73.0450  -26.7850  -36.6000 C.3   218  SER218      0.2055
    119  C         72.5010  -26.0130  -37.7980 C.2   218  SER218      0.2643
    120  O         72.7180  -24.8050  -37.9160 O.2   218  SER218     -0.2714
    121  CB        72.2490  -26.3780  -35.3760 C.3   218  SER218      0.2130
    122  OG        70.9070  -26.8050  -35.5550 O.3   218  SER218     -0.2179
    123  N         71.7350  -26.7080  -38.6420 N.am  219  ASN219     -0.1971
    124  CA        71.1320  -26.1730  -39.8590 C.3   219  ASN219      0.1688
    125  C         69.9650  -27.0700  -40.2560 C.2   219  ASN219      0.2292
    126  O         69.8820  -28.2300  -39.8380 O.2   219  ASN219     -0.2864
    127  CB        72.1450  -26.0920  -41.0120 C.3   219  ASN219      0.1181
    128  CG        71.5540  -25.4750  -42.2660 C.2   219  ASN219      0.2629
    129  OD1       70.7220  -24.5660  -42.2020 O.2   219  ASN219     -0.2716
    130  ND2       71.9600  -25.9900  -43.4170 N.am  219  ASN219     -0.0877
    131  N         68.2480  -24.7250  -48.5980 N.3   242  ASN242     -0.1240
    132  CA        69.1550  -24.8730  -47.4710 C.3   242  ASN242      0.1653
    133  C         69.1420  -23.5400  -46.7450 C.2   242  ASN242      0.2266
    134  O         69.6000  -22.5280  -47.2780 O.2   242  ASN242     -0.2867
    135  CB        70.5460  -25.2540  -47.9610 C.3   242  ASN242      0.1155
    136  CG        71.6360  -25.1070  -46.8910 C.2   242  ASN242      0.2627
    137  OD1       71.3860  -24.7390  -45.7320 O.2   242  ASN242     -0.2716
    138  ND2       72.8670  -25.3720  -47.3010 N.am  242  ASN242     -0.0877
    139  N         70.6050  -22.4490  -43.9480 N.3   244  GLU244     -0.1245
    140  CA        71.7570  -21.9580  -43.2010 C.3   244  GLU244      0.1567
    141  C         71.3010  -21.0910  -42.0250 C.2   244  GLU244      0.2260
    142  O         71.6090  -19.8980  -41.9280 O.2   244  GLU244     -0.2867
    143  CB        72.6950  -21.1910  -44.1250 C.3   244  GLU244      0.0388
    144  CG        73.3790  -22.0780  -45.1310 C.3   244  GLU244      0.1160
    145  CD        74.3400  -23.0370  -44.4630 C.2   244  GLU244      0.3649
    146  OE1       74.7340  -22.7580  -43.2990 O.co2 244  GLU244     -0.2457
    147  OE2       74.7040  -24.0520  -45.1040 O.co2 244  GLU244     -0.2457
    148  N         71.9490  -20.9630  -38.8960 N.3   246  GLY246     -0.1225
    149  CA        72.8300  -20.5810  -37.8090 C.3   246  GLY246      0.1811
    150  C         73.1140  -19.0950  -37.7660 C.2   246  GLY246      0.2280
    151  O         73.5390  -18.5780  -36.7260 O.2   246  GLY246     -0.2866
    152  N         77.0740  -16.5920  -36.9540 N.3   275  GLN275     -0.1245
    153  CA        76.4420  -17.8060  -36.4450 C.3   275  GLN275      0.1566
    154  C         75.8810  -17.6870  -35.0200 C.2   275  GLN275      0.2260
    155  O         76.0360  -18.6120  -34.2160 O.2   275  GLN275     -0.2867
    156  CB        77.4300  -18.9710  -36.5270 C.3   275  GLN275      0.0367
    157  CG        78.0270  -19.1980  -37.9240 C.3   275  GLN275      0.0905
    158  CD        77.0070  -19.6520  -38.9700 C.2   275  GLN275      0.2608
    159  OE1       76.5030  -18.8340  -39.7490 O.2   275  GLN275     -0.2717
    160  NE2       76.7160  -20.9580  -39.0060 N.am  275  GLN275     -0.0878
    161  N         73.3020  -20.4660  -34.1260 N.3   278  GLU278     -0.1245
    162  CA        74.0450  -21.7110  -33.9370 C.3   278  GLU278      0.1567
    163  C         74.8140  -21.7190  -32.6180 C.2   278  GLU278      0.2260
    164  O         74.9290  -22.7660  -31.9660 O.2   278  GLU278     -0.2867
    165  CB        74.9820  -21.9050  -35.1410 C.3   278  GLU278      0.0388
    166  CG        76.1620  -22.8370  -34.9910 C.3   278  GLU278      0.1160
    167  CD        76.5960  -23.4570  -36.3560 C.2   278  GLU278      0.3649
    168  OE1       77.5260  -22.9120  -37.0160 O.co2 278  GLU278     -0.2457
    169  OE2       76.0050  -24.4920  -36.7770 O.co2 278  GLU278     -0.2457
@<TRIPOS>BOND
     1    46    47    1
     2    46    43    1
     3    44    45    2
     4    44    43    1
     5    12    13    2
     6    12    11    1
     7    54    52    1
     8    48    49    1
     9    43    42    1
    10    49    52    1
    11    49    50    1
    12    11    14    1
    13    11    10    1
    14    14    15    1
    15    52    53    1
    16    17    15    1
    17    51    50    2
    18    71    72    1
    19    42    37   am
    20    15    16    1
    21    38    37    2
    22    37    36    1
    23     4     3    2
    24   131   132    1
    25    72    75    1
    26    72    73    1
    27   135   132    1
    28   135   136    1
    29    75    76    1
    30    27    26    2
    31    74    73    2
    32     3     2    1
    33    31    33   ar
    34    31    29   ar
    35    73    79   am
    36   132   133    1
    37    28    29    1
    38    28    25    1
    39    36    35    1
    40    36    39    1
    41   138   136   am
    42   134   133    2
    43     5     2    1
    44     5     6    1
    45    33    34   ar
    46    26    35   am
    47    26    25    1
    48     7     6    1
    49     7     8    1
    50    29    30   ar
    51   136   137    2
    52     2     1    1
    53    35    41    1
    54    39    40    1
    55    25    24    1
    56    76    78   am
    57    76    77    2
    58    24    20   am
    59    79    80    1
    60     8     9    1
    61    18    19    1
    62    40    41    1
    63    34    32   ar
    64    30    32   ar
    65    89    90    2
    66    89    88    1
    67    80    81    1
    68    80    83    1
    69    20    19    1
    70    20    21    2
    71    19    22    1
    72   144   145    1
    73   144   143    1
    74   147   145   ar
    75    81    82    2
    76    81    87   am
    77    92    91    1
    78    87    88    1
    79   145   146   ar
    80    83    84    1
    81    88    91    1
    82    55    56    1
    83   143   140    1
    84   139   140    1
    85    22    23    1
    86    85    84   ar
    87    91    93    1
    88    84    86   ar
    89   130   128   am
    90   140   141    1
    91    58    57    2
    92    56    59    1
    93    56    57    1
    94    59    60    1
    95    59    61    1
    96    57    62   am
    97   128   129    2
    98   128   127    1
    99   141   142    2
   100   101    99    1
   101    62    63    1
   102   127   124    1
   103    65    64    2
   104    64    63    1
   105    66    63    1
   106    66    67    1
   107   125   124    1
   108   125   126    2
   109    99    98    1
   110    69    70    1
   111    69    68    1
   112   124   123    1
   113   159   158    2
   114    67    68    1
   115    98   100    1
   116    98    95    1
   117   160   158   am
   118   158   157    1
   119   148   149    1
   120    94    95    1
   121   123   119   am
   122    95    96    1
   123   157   156    1
   124   120   119    2
   125   149   150    1
   126   119   118    1
   127   150   151    2
   128   168   167   ar
   129   152   153    1
   130    97    96    2
   131   169   167   ar
   132   118   117    1
   133   118   121    1
   134   156   153    1
   135   153   154    1
   136   117   115   am
   137   167   166    1
   138   115   114    1
   139   115   116    2
   140   114   113    1
   141   112   110    1
   142   122   121    1
   143   113   108   am
   144   165   166    1
   145   165   162    1
   146   154   155    2
   147   102   103    1
   148   103   104    1
   149   110   111    1
   150   110   107    1
   151   108   107    1
   152   108   109    2
   153   161   162    1
   154   106   104   am
   155   106   107    1
   156   162   163    1
   157   104   105    2
   158   163   164    2
