@<TRIPOS>MOLECULE
tmp/5hfuB01.pdb
 166 153 0 0 0
SMALL
GASTEIGER

@<TRIPOS>ATOM
      1  N         27.0500  -38.6400  -93.5010 N.3   494  LYS494     -0.1245
      2  CA        25.8240  -38.8040  -94.2860 C.3   494  LYS494      0.1561
      3  C         25.5910  -37.7040  -95.3150 C.2   494  LYS494      0.2260
      4  O         24.8060  -37.9150  -96.2350 O.2   494  LYS494     -0.2867
      5  CB        24.6030  -38.9010  -93.3650 C.3   494  LYS494      0.0271
      6  CG        24.5350  -40.1860  -92.5490 C.3   494  LYS494      0.0035
      7  CD        24.4470  -41.4170  -93.4600 C.3   494  LYS494      0.0206
      8  CE        24.2060  -42.7040  -92.6730 C.3   494  LYS494      0.1093
      9  NZ        24.1710  -43.9200  -93.5490 N.3   494  LYS494     -0.1314
     10  N         23.8860  -34.8940  -95.4480 N.3   496  LEU496     -0.1245
     11  CA        22.4320  -34.7810  -95.6130 C.3   496  LEU496      0.1561
     12  C         22.0380  -33.4850  -96.3090 C.2   496  LEU496      0.2260
     13  O         22.4350  -32.4040  -95.8580 O.2   496  LEU496     -0.2867
     14  CB        21.7450  -34.8520  -94.2630 C.3   496  LEU496      0.0270
     15  CG        21.8320  -36.2540  -93.6860 C.3   496  LEU496      0.0019
     16  CD1       21.3820  -36.2840  -92.2330 C.3   496  LEU496      0.0001
     17  CD2       20.9910  -37.1830  -94.5570 C.3   496  LEU496      0.0001
     18  N         16.2150  -30.7380  -82.6960 N.3   587  SER587     -0.1217
     19  CA        17.4010  -31.4850  -82.2890 C.3   587  SER587      0.1889
     20  C         17.1640  -32.9840  -82.2340 C.2   587  SER587      0.2288
     21  O         18.0630  -33.7280  -81.8320 O.2   587  SER587     -0.2866
     22  CB        17.8920  -31.0130  -80.9230 C.3   587  SER587      0.2089
     23  OG        18.3730  -29.6860  -80.9900 O.3   587  SER587     -0.2183
     24  N         16.6120  -36.7070  -84.0280 N.3   589  PRO589     -0.2102
     25  CA        17.0570  -37.2870  -85.3050 C.3   589  PRO589      0.1504
     26  C         15.9020  -37.3960  -86.2950 C.2   589  PRO589      0.2576
     27  O         14.8370  -37.9290  -85.9740 O.2   589  PRO589     -0.2718
     28  CB        17.5950  -38.6640  -84.8940 C.3   589  PRO589      0.0282
     29  CG        16.8590  -38.9890  -83.6330 C.3   589  PRO589      0.0208
     30  CD        16.6780  -37.6840  -82.9250 C.3   589  PRO589      0.0893
     31  N         16.1260  -36.9010  -87.5130 N.am  590  CYS590     -0.1971
     32  CA        15.0630  -36.7840  -88.5030 C.3   590  CYS590      0.1712
     33  C         15.5620  -37.2210  -89.8640 C.2   590  CYS590      0.2296
     34  O         16.7630  -37.3970  -90.0910 O.2   590  CYS590     -0.2864
     35  CB        14.5340  -35.3520  -88.6240 C.3   590  CYS590      0.0983
     36  SG        13.5150  -34.7780  -87.2530 S.3   590  CYS590     -0.0798
     37  N         12.3380  -39.3800  -86.5120 N.3   601  LEU601     -0.1245
     38  CA        12.6020  -40.8280  -86.4260 C.3   601  LEU601      0.1561
     39  C         12.3530  -41.3780  -85.0210 C.2   601  LEU601      0.2260
     40  O         11.4490  -42.1950  -84.8130 O.2   601  LEU601     -0.2867
     41  CB        14.0340  -41.1230  -86.8730 C.3   601  LEU601      0.0270
     42  CG        14.3450  -40.6310  -88.2790 C.3   601  LEU601      0.0019
     43  CD1       15.8220  -40.8140  -88.5990 C.3   601  LEU601      0.0001
     44  CD2       13.4350  -41.3290  -89.3050 C.3   601  LEU601      0.0001
     45  N         16.2450  -37.5420  -75.5600 N.3   605  LYS605     -0.1245
     46  CA        16.3550  -36.4930  -74.5490 C.3   605  LYS605      0.1561
     47  C         15.1880  -36.4860  -73.5590 C.2   605  LYS605      0.2260
     48  O         15.0800  -35.5640  -72.7490 O.2   605  LYS605     -0.2867
     49  CB        16.5520  -35.1190  -75.2000 C.3   605  LYS605      0.0271
     50  CG        17.8360  -35.0870  -76.0130 C.3   605  LYS605      0.0035
     51  CD        18.1620  -33.7190  -76.5840 C.3   605  LYS605      0.0206
     52  CE        17.4310  -33.4640  -77.8880 C.3   605  LYS605      0.1093
     53  NZ        17.9860  -34.2650  -79.0000 N.3   605  LYS605     -0.1314
     54  N         19.0240  -27.5420  -89.3550 N.3   640  ASN640     -0.1225
     55  CA        20.0130  -27.9950  -88.3920 C.3   640  ASN640      0.1785
     56  C         20.8030  -26.8060  -87.8640 C.2   640  ASN640      0.2597
     57  O         21.0740  -25.8460  -88.5940 O.2   640  ASN640     -0.2718
     58  CB        20.9450  -29.0210  -89.0500 C.3   640  ASN640      0.1169
     59  CG        22.1760  -29.3410  -88.2000 C.2   640  ASN640      0.2627
     60  OD1       23.1850  -28.6310  -88.2360 O.2   640  ASN640     -0.2716
     61  ND2       22.0810  -30.4070  -87.4120 N.am  640  ASN640     -0.0877
     62  N         21.1770  -26.8810  -86.5800 N.am  641  ASP641     -0.1960
     63  CA        21.7630  -25.7230  -85.9080 C.3   641  ASP641      0.1840
     64  C         23.0660  -25.2470  -86.5500 C.2   641  ASP641      0.2622
     65  O         23.4420  -24.0890  -86.3430 O.2   641  ASP641     -0.2715
     66  CB        21.9640  -26.0070  -84.4090 C.3   641  ASP641      0.1450
     67  CG        23.1130  -27.0130  -84.1000 C.2   641  ASP641      0.3671
     68  OD1       23.6310  -27.7310  -84.9910 O.co2 641  ASP641     -0.2456
     69  OD2       23.4960  -27.0790  -82.9100 O.co2 641  ASP641     -0.2456
     70  N         23.7590  -26.0780  -87.3410 N.am  642  THR642     -0.1951
     71  CA        24.9500  -25.5580  -88.0110 C.3   642  THR642      0.1897
     72  C         24.6070  -24.7390  -89.2500 C.2   642  THR642      0.2313
     73  O         25.3700  -23.8420  -89.6160 O.2   642  THR642     -0.2863
     74  CB        25.9150  -26.6760  -88.4240 C.3   642  THR642      0.1794
     75  OG1       25.3610  -27.3980  -89.5190 O.3   642  THR642     -0.2208
     76  CG2       26.1850  -27.6430  -87.2820 C.3   642  THR642      0.0378
     77  N         30.4800  -25.9750  -85.8930 N.3   661  ILE661     -0.1245
     78  CA        30.2570  -25.8820  -84.4580 C.3   661  ILE661      0.1561
     79  C         31.2240  -26.8150  -83.7680 C.2   661  ILE661      0.2260
     80  O         31.3180  -27.9930  -84.1270 O.2   661  ILE661     -0.2867
     81  CB        28.8210  -26.2450  -84.0530 C.3   661  ILE661      0.0252
     82  CG1       27.8250  -25.2160  -84.5760 C.3   661  ILE661      0.0019
     83  CG2       28.7270  -26.3650  -82.5330 C.3   661  ILE661      0.0019
     84  CD1       26.3780  -25.6460  -84.3830 C.3   661  ILE661      0.0001
     85  N         31.7410  -27.6800  -79.7750 N.3   663  GLY663     -0.1210
     86  CA        30.8540  -27.4150  -78.6570 C.3   663  GLY663      0.1956
     87  C         30.4890  -28.7150  -77.9690 C.2   663  GLY663      0.2613
     88  O         31.3000  -29.6490  -77.9620 O.2   663  GLY663     -0.2717
     89  N         29.3090  -28.7820  -77.3520 N.am  664  THR664     -0.1938
     90  CA        28.8100  -30.0150  -76.7500 C.3   664  THR664      0.2028
     91  C         29.0590  -31.1930  -77.6900 C.2   664  THR664      0.2643
     92  O         29.3240  -32.3140  -77.2430 O.2   664  THR664     -0.2714
     93  CB        27.3040  -29.8850  -76.4780 C.3   664  THR664      0.1808
     94  OG1       27.0460  -28.8540  -75.5080 O.3   664  THR664     -0.2208
     95  CG2       26.7050  -31.2120  -76.0330 C.3   664  THR664      0.0379
     96  N         29.0030  -30.9270  -78.9970 N.am  665  GLY665     -0.1939
     97  CA        29.3020  -31.8740  -80.0500 C.3   665  GLY665      0.2014
     98  C         29.9260  -31.0980  -81.1930 C.2   665  GLY665      0.2640
     99  O         30.1010  -29.8790  -81.1050 O.2   665  GLY665     -0.2714
    100  N         30.3140  -31.8040  -82.2540 N.am  666  SER666     -0.1935
    101  CA        30.9230  -31.1140  -83.3880 C.3   666  SER666      0.2055
    102  C         30.2570  -31.4870  -84.7040 C.2   666  SER666      0.2643
    103  O         29.9580  -32.6590  -84.9620 O.2   666  SER666     -0.2714
    104  CB        32.4280  -31.3860  -83.5130 C.3   666  SER666      0.2130
    105  OG        32.9290  -30.6330  -84.6120 O.3   666  SER666     -0.2179
    106  N         30.0620  -30.4770  -85.5470 N.am  667  ASN667     -0.1971
    107  CA        29.4320  -30.6890  -86.8430 C.3   667  ASN667      0.1688
    108  C         29.7890  -29.5440  -87.7760 C.2   667  ASN667      0.2292
    109  O         30.1360  -28.4470  -87.3280 O.2   667  ASN667     -0.2864
    110  CB        27.9190  -30.8090  -86.7000 C.3   667  ASN667      0.1181
    111  CG        27.2610  -31.2150  -87.9670 C.2   667  ASN667      0.2629
    112  OD1       27.8840  -31.8030  -88.8460 O.2   667  ASN667     -0.2716
    113  ND2       25.9780  -30.9280  -88.0710 N.am  667  ASN667     -0.0877
    114  N         26.8720  -33.8690  -90.9490 N.3   692  GLU692     -0.1245
    115  CA        26.8630  -34.7320  -89.7720 C.3   692  GLU692      0.1567
    116  C         28.1820  -35.4740  -89.7140 C.2   692  GLU692      0.2260
    117  O         28.2380  -36.6960  -89.8370 O.2   692  GLU692     -0.2867
    118  CB        25.6950  -35.7100  -89.7640 C.3   692  GLU692      0.0388
    119  CG        24.3710  -35.0810  -89.3590 C.3   692  GLU692      0.1160
    120  CD        24.3600  -34.4640  -87.9490 C.2   692  GLU692      0.3649
    121  OE1       24.9470  -35.0320  -87.0060 O.co2 692  GLU692     -0.2457
    122  OE2       23.7540  -33.3910  -87.7740 O.co2 692  GLU692     -0.2457
    123  N         30.3640  -35.7160  -87.3260 N.3   694  GLY694     -0.1210
    124  CA        30.7340  -36.3880  -86.0960 C.3   694  GLY694      0.1956
    125  C         30.9120  -37.8790  -86.2820 C.2   694  GLY694      0.2611
    126  O         31.7240  -38.5010  -85.5960 O.2   694  GLY694     -0.2717
    127  N         30.1980  -38.4640  -87.2470 N.am  695  ALA695     -0.1979
    128  CA        30.2580  -39.9010  -87.4570 C.3   695  ALA695      0.1597
    129  C         31.5440  -40.3480  -88.1380 C.2   695  ALA695      0.2287
    130  O         31.7900  -41.5540  -88.2200 O.2   695  ALA695     -0.2864
    131  CB        29.0450  -40.3510  -88.2600 C.3   695  ALA695      0.0319
    132  N         26.7910  -44.4870  -76.5780 N.3   719  ASN719     -0.1240
    133  CA        26.5980  -44.8640  -77.9800 C.3   719  ASN719      0.1653
    134  C         27.8950  -45.4520  -78.5190 C.2   719  ASN719      0.2266
    135  O         28.5650  -44.8580  -79.3710 O.2   719  ASN719     -0.2867
    136  CB        26.1440  -43.6610  -78.8080 C.3   719  ASN719      0.1155
    137  CG        27.1000  -42.4940  -78.7020 C.2   719  ASN719      0.2627
    138  OD1       27.6780  -42.2230  -77.6290 O.2   719  ASN719     -0.2716
    139  ND2       27.3170  -41.8180  -79.8270 N.am  719  ASN719     -0.0877
    140  N         29.6570  -45.1790  -82.3590 N.3   722  LYS722     -0.1231
    141  CA        29.0850  -44.0610  -83.0970 C.3   722  LYS722      0.1693
    142  C         29.8350  -42.7750  -82.7670 C.2   722  LYS722      0.2591
    143  O         30.3110  -42.5890  -81.6450 O.2   722  LYS722     -0.2718
    144  CB        27.6080  -43.8580  -82.7420 C.3   722  LYS722      0.0285
    145  CG        26.7310  -45.0780  -82.8710 C.3   722  LYS722      0.0035
    146  CD        26.8360  -45.6890  -84.2520 C.3   722  LYS722      0.0206
    147  CE        25.6890  -46.6560  -84.4970 C.3   722  LYS722      0.1093
    148  NZ        24.3830  -45.9430  -84.6380 N.3   722  LYS722     -0.1314
    149  N         29.9330  -41.8810  -83.7500 N.am  723  GLN723     -0.1979
    150  CA        30.3920  -40.5120  -83.5130 C.3   723  GLN723      0.1601
    151  C         31.8350  -40.4740  -83.0160 C.2   723  GLN723      0.2287
    152  O         32.1880  -39.6590  -82.1630 O.2   723  GLN723     -0.2864
    153  CB        29.4760  -39.7850  -82.5220 C.3   723  GLN723      0.0394
    154  CG        27.9890  -39.7530  -82.9230 C.3   723  GLN723      0.0908
    155  CD        27.6810  -38.7310  -84.0070 C.2   723  GLN723      0.2608
    156  OE1       27.7910  -37.5190  -83.7890 O.2   723  GLN723     -0.2717
    157  NE2       27.3100  -39.2210  -85.1920 N.am  723  GLN723     -0.0878
    158  N         33.5520  -36.8170  -83.2620 N.3   726  GLU726     -0.1245
    159  CA        33.1850  -35.9770  -82.1270 C.3   726  GLU726      0.1567
    160  C         33.9880  -36.3660  -80.9070 C.2   726  GLU726      0.2260
    161  O         34.5590  -35.5170  -80.2120 O.2   726  GLU726     -0.2867
    162  CB        31.7020  -36.1360  -81.7980 C.3   726  GLU726      0.0388
    163  CG        30.7630  -35.1160  -82.3930 C.3   726  GLU726      0.1160
    164  CD        29.3260  -35.3610  -81.9700 C.2   726  GLU726      0.3649
    165  OE1       29.0630  -36.4040  -81.3200 O.co2 726  GLU726     -0.2457
    166  OE2       28.4580  -34.5320  -82.3270 O.co2 726  GLU726     -0.2457
@<TRIPOS>BOND
     1    12    13    2
     2    12    11    1
     3     4     3    2
     4    11    10    1
     5    11    14    1
     6     3     2    1
     7    17    15    1
     8     2     1    1
     9     2     5    1
    10    14    15    1
    11    15    16    1
    12     9     8    1
    13     7     8    1
    14     7     6    1
    15     5     6    1
    16   114   115    1
    17    34    33    2
    18    33    32    1
    19   117   116    2
    20   115   118    1
    21   115   116    1
    22   118   119    1
    23    73    72    2
    24    75    74    1
    25   119   120    1
    26    54    55    1
    27    44    42    1
    28    72    71    1
    29    58    55    1
    30    58    59    1
    31   112   111    2
    32    35    32    1
    33    35    36    1
    34    43    42    1
    35    57    56    2
    36    32    31    1
    37    74    71    1
    38    74    76    1
    39    55    56    1
    40    42    41    1
    41   131   128    1
    42    60    59    2
    43   130   129    2
    44    59    61   am
    45   129   128    1
    46   113   111   am
    47    71    70    1
    48   111   110    1
    49   120   122   ar
    50   120   121   ar
    51    56    62   am
    52   108   109    2
    53   108   107    1
    54    31    26   am
    55   128   127    1
    56    70    64   am
    57   123   124    1
    58   127   125   am
    59    41    38    1
    60   107   110    1
    61   107   106    1
    62    62    63    1
    63    64    65    2
    64    64    63    1
    65    37    38    1
    66    38    39    1
    67    26    27    2
    68    26    25    1
    69   125   124    1
    70   125   126    2
    71    63    66    1
    72    77    78    1
    73   106   102   am
    74    25    28    1
    75    25    24    1
    76   157   155   am
    77    39    40    2
    78    68    67   ar
    79   103   102    2
    80    28    29    1
    81   102   101    1
    82   148   147    1
    83   105   104    1
    84    82    84    1
    85    82    81    1
    86   147   146    1
    87    78    81    1
    88    78    79    1
    89    66    67    1
    90   146   145    1
    91    80    79    2
    92    67    69   ar
    93    81    83    1
    94    24    30    1
    95   155   156    2
    96   155   154    1
    97   149   150    1
    98   149   142   am
    99    29    30    1
   100   104   101    1
   101   150   151    1
   102   150   153    1
   103   101   100    1
   104   158   159    1
   105   141   142    1
   106   141   144    1
   107   141   140    1
   108   151   152    2
   109   154   153    1
   110   145   144    1
   111   142   143    2
   112    18    19    1
   113   163   164    1
   114   163   162    1
   115   166   164   ar
   116    19    20    1
   117    19    22    1
   118   100    98   am
   119    20    21    2
   120   159   162    1
   121   159   160    1
   122   164   165   ar
   123    98    99    2
   124    98    97    1
   125    23    22    1
   126   160   161    2
   127    97    96    1
   128   139   137   am
   129    85    86    1
   130   135   134    2
   131    53    52    1
   132    96    91   am
   133   136   137    1
   134   136   133    1
   135   137   138    2
   136    86    87    1
   137   134   133    1
   138   133   132    1
   139    87    88    2
   140    87    89   am
   141    52    51    1
   142    91    92    2
   143    91    90    1
   144    89    90    1
   145    90    93    1
   146    51    50    1
   147    93    95    1
   148    93    94    1
   149    50    49    1
   150    45    46    1
   151    49    46    1
   152    46    47    1
   153    47    48    2
