@<TRIPOS>MOLECULE
tmp/5hg0A00.pdb
 233 224 0 0 0
SMALL
GASTEIGER

@<TRIPOS>ATOM
      1  N         14.7070  -11.2080   92.5250 N.3    27  PRO27      -0.2102
      2  CA        13.8320  -10.3030   93.2860 C.3    27  PRO27       0.1504
      3  C         13.0670   -9.3760   92.3510 C.2    27  PRO27       0.2576
      4  O         13.6550   -8.7290   91.4820 O.2    27  PRO27      -0.2718
      5  CB        14.8100   -9.5230   94.1710 C.3    27  PRO27       0.0282
      6  CG        16.0860   -9.5250   93.4020 C.3    27  PRO27       0.0208
      7  CD        16.1280  -10.8350   92.6430 C.3    27  PRO27       0.0893
      8  N         11.7460   -9.3230   92.5270 N.am   28  THR28      -0.1953
      9  CA        10.8770   -8.4370   91.7660 C.3    28  THR28       0.1897
     10  C          9.9270   -7.7210   92.7150 C.2    28  THR28       0.2313
     11  O          9.8550   -8.0240   93.9100 O.2    28  THR28      -0.2863
     12  CB        10.0590   -9.1910   90.7030 C.3    28  THR28       0.1794
     13  OG1        8.9300   -9.8190   91.3230 O.3    28  THR28      -0.2208
     14  CG2       10.9020  -10.2510   90.0060 C.3    28  THR28       0.0378
     15  N          6.6890   -7.5410   91.6080 N.3    29  GLY29      -0.1225
     16  CA         5.4630   -7.9380   90.9530 C.3    29  GLY29       0.1811
     17  C          5.2740   -7.2520   89.6140 C.2    29  GLY29       0.2280
     18  O          6.1910   -6.6530   89.0430 O.2    29  GLY29      -0.2866
     19  N          6.5690   -8.6480   83.6560 N.3    32  HIS32      -0.1241
     20  CA         6.5770   -8.4920   82.2120 C.3    32  HIS32       0.1621
     21  C          7.6900   -9.3510   81.6210 C.2    32  HIS32       0.2264
     22  O          8.3690  -10.1020   82.3270 O.2    32  HIS32      -0.2867
     23  CB         6.7300   -7.0180   81.8190 C.3    32  HIS32       0.0745
     24  CG         7.8540   -6.3100   82.5130 C.ar   32  HIS32       0.0817
     25  ND1        9.1780   -6.5100   82.1870 N.ar   32  HIS32      -0.2268
     26  CD2        7.8460   -5.3820   83.4990 C.ar   32  HIS32       0.1154
     27  CE1        9.9380   -5.7440   82.9500 C.ar   32  HIS32       0.1986
     28  NE2        9.1540   -5.0500   83.7550 N.ar   32  HIS32      -0.2212
     29  N         10.5300   -8.6120   80.5750 N.3    34  GLY34      -0.1210
     30  CA        11.8200   -8.3560   81.1940 C.3    34  GLY34       0.1956
     31  C         12.0680   -9.2620   82.3840 C.2    34  GLY34       0.2611
     32  O         13.1490   -9.8380   82.5300 O.2    34  GLY34      -0.2717
     33  N         11.0590   -9.4120   83.2470 N.am   35  HIS35      -0.1975
     34  CA        11.1820  -10.3230   84.3790 C.3    35  HIS35       0.1656
     35  C         11.2870  -11.7700   83.9130 C.2    35  HIS35       0.2291
     36  O         12.0770  -12.5500   84.4590 O.2    35  HIS35      -0.2864
     37  CB         9.9880  -10.1600   85.3200 C.3    35  HIS35       0.0771
     38  CG         9.8350   -8.7790   85.8770 C.ar   35  HIS35       0.0820
     39  ND1        8.7340   -7.9910   85.6200 N.ar   35  HIS35      -0.2267
     40  CD2       10.6410   -8.0470   86.6820 C.ar   35  HIS35       0.1154
     41  CE1        8.8680   -6.8340   86.2430 C.ar   35  HIS35       0.1986
     42  NE2       10.0190   -6.8410   86.8910 N.ar   35  HIS35      -0.2212
     43  N         14.7380  -12.8420   82.9380 N.3    38  LEU38      -0.1245
     44  CA        15.5990  -13.0950   84.0900 C.3    38  LEU38       0.1561
     45  C         15.3010  -14.4540   84.7130 C.2    38  LEU38       0.2260
     46  O         16.2230  -15.1840   85.0950 O.2    38  LEU38      -0.2867
     47  CB        15.4310  -11.9860   85.1300 C.3    38  LEU38       0.0270
     48  CG        16.3240  -10.7450   85.0380 C.3    38  LEU38       0.0019
     49  CD1       16.1780  -10.0530   83.6930 C.3    38  LEU38       0.0001
     50  CD2       16.0020   -9.7820   86.1720 C.3    38  LEU38       0.0001
     51  N          7.5170   -8.3130   96.2190 N.3    54  PHE54      -0.1241
     52  CA         7.3590   -7.4770   97.4050 C.3    54  PHE54       0.1605
     53  C          7.4910   -6.0220   96.9810 C.2    54  PHE54       0.2264
     54  O          8.5890   -5.5780   96.6280 O.2    54  PHE54      -0.2867
     55  CB         8.3940   -7.8430   98.4630 C.3    54  PHE54       0.0534
     56  CG         8.3740   -6.9490   99.6660 C.ar   54  PHE54      -0.0203
     57  CD1        7.2880   -6.9510  100.5280 C.ar   54  PHE54      -0.0042
     58  CD2        9.4410   -6.1130   99.9420 C.ar   54  PHE54      -0.0042
     59  CE1        7.2660   -6.1290  101.6410 C.ar   54  PHE54      -0.0003
     60  CE2        9.4270   -5.2890  101.0530 C.ar   54  PHE54      -0.0003
     61  CZ         8.3350   -5.2970  101.9030 C.ar   54  PHE54      -0.0000
     62  N          8.2960   -2.9310   97.8830 N.3    56  ASN56      -0.1240
     63  CA         9.0490   -2.3870   99.0060 C.3    56  ASN56       0.1653
     64  C          8.7040   -0.9220   99.2370 C.2    56  ASN56       0.2266
     65  O          9.0810   -0.0770   98.4170 O.2    56  ASN56      -0.2867
     66  CB        10.5450   -2.5480   98.7410 C.3    56  ASN56       0.1155
     67  CG        11.3980   -1.9490   99.8360 C.2    56  ASN56       0.2627
     68  OD1       11.0820   -2.0650  101.0210 O.2    56  ASN56      -0.2716
     69  ND2       12.4870   -1.2950   99.4430 N.am   56  ASN56      -0.0877
     70  N         11.5720    2.2830   99.5060 N.3    59  GLN59      -0.1245
     71  CA        12.3410    2.7760   98.3700 C.3    59  GLN59       0.1566
     72  C         11.5340    3.6950   97.4610 C.2    59  GLN59       0.2260
     73  O         12.0710    4.1790   96.4600 O.2    59  GLN59      -0.2867
     74  CB        12.9040    1.6050   97.5540 C.3    59  GLN59       0.0367
     75  CG        11.8780    0.8630   96.7130 C.3    59  GLN59       0.0905
     76  CD        12.4520   -0.3930   96.0760 C.2    59  GLN59       0.2608
     77  OE1       12.8740   -1.3210   96.7690 O.2    59  GLN59      -0.2717
     78  NE2       12.4840   -0.4200   94.7480 N.am   59  GLN59      -0.0878
     79  N          1.2840    1.8920   92.1430 N.3    69  TYR69      -0.1241
     80  CA         2.1440    0.8590   91.5820 C.3    69  TYR69       0.1605
     81  C          1.3010   -0.3450   91.1800 C.2    69  TYR69       0.2264
     82  O          0.4540   -0.7930   91.9630 O.2    69  TYR69      -0.2867
     83  CB         3.2380    0.4340   92.5550 C.3    69  TYR69       0.0534
     84  CG         4.3620   -0.2840   91.8460 C.ar   69  TYR69      -0.0201
     85  CD1        5.3620    0.4300   91.1990 C.ar   69  TYR69      -0.0009
     86  CD2        4.4000   -1.6720   91.7880 C.ar   69  TYR69      -0.0009
     87  CE1        6.3820   -0.2150   90.5350 C.ar   69  TYR69       0.0417
     88  CE2        5.4140   -2.3290   91.1230 C.ar   69  TYR69       0.0417
     89  CZ         6.4040   -1.5960   90.5000 C.ar   69  TYR69       0.1957
     90  OH         7.4210   -2.2430   89.8360 O.3    69  TYR69      -0.2866
     91  N         15.6960    6.5900   97.7080 N.3   123  HIS123     -0.1241
     92  CA        15.3410    5.3540   97.0150 C.3   123  HIS123      0.1621
     93  C         16.4410    4.3090   97.1470 C.2   123  HIS123      0.2264
     94  O         16.1690    3.1400   97.4460 O.2   123  HIS123     -0.2867
     95  CB        15.0540    5.6420   95.5430 C.3   123  HIS123      0.0745
     96  CG        15.0920    4.4230   94.6760 C.ar  123  HIS123      0.0817
     97  ND1       14.1700    3.4030   94.7820 N.ar  123  HIS123     -0.2268
     98  CD2       15.9510    4.0530   93.6970 C.ar  123  HIS123      0.1154
     99  CE1       14.4540    2.4630   93.8990 C.ar  123  HIS123      0.1986
    100  NE2       15.5310    2.8310   93.2290 N.ar  123  HIS123     -0.2212
    101  N         16.2670   -3.4130  101.6410 N.3   129  VAL129     -0.1231
    102  CA        15.4180   -4.5730  101.3960 C.3   129  VAL129      0.1692
    103  C         16.1860   -5.6630  100.6570 C.2   129  VAL129      0.2591
    104  O         15.9420   -6.8540  100.8780 O.2   129  VAL129     -0.2718
    105  CB        14.1370   -4.1620  100.6440 C.3   129  VAL129      0.0266
    106  CG1       14.4060   -3.9400   99.1550 C.3   129  VAL129      0.0020
    107  CG2       13.0460   -5.2020  100.8500 C.3   129  VAL129      0.0020
    108  N         17.1270   -5.2890   99.7830 N.am  130  VAL130     -0.1980
    109  CA        17.9150   -6.2910   99.0690 C.3   130  VAL130      0.1595
    110  C         18.7970   -7.0610  100.0440 C.2   130  VAL130      0.2287
    111  O         18.9170   -8.2900   99.9580 O.2   130  VAL130     -0.2864
    112  CB        18.7410   -5.6300   97.9490 C.3   130  VAL130      0.0276
    113  CG1       19.8680   -6.5480   97.4950 C.3   130  VAL130      0.0022
    114  CG2       17.8490   -5.2760   96.7680 C.3   130  VAL130      0.0022
    115  N         16.4570   -9.3630  101.8260 N.3   133  LEU133     -0.1245
    116  CA        16.0590  -10.4730  100.9660 C.3   133  LEU133      0.1561
    117  C         17.1990  -11.4670  100.7750 C.2   133  LEU133      0.2260
    118  O         16.9680  -12.6790  100.7030 O.2   133  LEU133     -0.2867
    119  CB        15.5740   -9.9420   99.6170 C.3   133  LEU133      0.0270
    120  CG        14.2490   -9.1810   99.6560 C.3   133  LEU133      0.0019
    121  CD1       13.9770   -8.4780   98.3370 C.3   133  LEU133      0.0001
    122  CD2       13.1120  -10.1240  100.0130 C.3   133  LEU133      0.0001
    123  N         20.0090  -12.4960   90.0710 N.3   143  TYR143     -0.1227
    124  CA        19.7730  -12.0970   88.6900 C.3   143  TYR143      0.1736
    125  C         19.1480  -10.7090   88.6640 C.2   143  TYR143      0.2595
    126  O         18.0580  -10.5010   89.2100 O.2   143  TYR143     -0.2718
    127  CB        18.8960  -13.1230   87.9740 C.3   143  TYR143      0.0548
    128  CG        19.5920  -14.4550   87.8390 C.ar  143  TYR143     -0.0200
    129  CD1       19.5030  -15.4120   88.8410 C.ar  143  TYR143     -0.0009
    130  CD2       20.3640  -14.7420   86.7280 C.ar  143  TYR143     -0.0009
    131  CE1       20.1550  -16.6220   88.7320 C.ar  143  TYR143      0.0417
    132  CE2       21.0170  -15.9470   86.6080 C.ar  143  TYR143      0.0417
    133  CZ        20.9100  -16.8860   87.6110 C.ar  143  TYR143      0.1957
    134  OH        21.5650  -18.0930   87.4870 O.3   143  TYR143     -0.2866
    135  N         19.8460   -9.7700   88.0280 N.am  144  LEU144     -0.1966
    136  CA        19.4320   -8.3800   87.9510 C.3   144  LEU144      0.1728
    137  C         19.4250   -7.9350   86.4970 C.2   144  LEU144      0.2617
    138  O         20.1680   -8.4640   85.6650 O.2   144  LEU144     -0.2715
    139  CB        20.3660   -7.4790   88.7690 C.3   144  LEU144      0.0311
    140  CG        20.6180   -7.8900   90.2230 C.3   144  LEU144      0.0022
    141  CD1       21.5910   -6.9300   90.8910 C.3   144  LEU144      0.0001
    142  CD2       19.3110   -7.9500   90.9930 C.3   144  LEU144      0.0001
    143  N         18.5810   -6.9540   86.1980 N.am  145  GLY145     -0.1940
    144  CA        18.4970   -6.4140   84.8580 C.3   145  GLY145      0.2014
    145  C         19.3970   -5.2070   84.6630 C.2   145  GLY145      0.2639
    146  O         19.7080   -4.4780   85.6020 O.2   145  GLY145     -0.2714
    147  N         19.8080   -5.0010   83.4100 N.am  146  GLU146     -0.1963
    148  CA        20.7200   -3.9100   83.0940 C.3   146  GLU146      0.1733
    149  C         20.0420   -2.5460   83.1430 C.2   146  GLU146      0.2616
    150  O         20.7340   -1.5320   83.2820 O.2   146  GLU146     -0.2715
    151  CB        21.3360   -4.1260   81.7120 C.3   146  GLU146      0.0429
    152  CG        22.6530   -3.3960   81.4940 C.3   146  GLU146      0.1163
    153  CD        23.0960   -3.4130   80.0440 C.2   146  GLU146      0.3649
    154  OE1       22.3620   -2.8650   79.1940 O.co2 146  GLU146     -0.2457
    155  OE2       24.1700   -3.9830   79.7550 O.co2 146  GLU146     -0.2457
    156  N         18.7100   -2.4970   83.0350 N.am  147  LYS147     -0.1963
    157  CA        18.0190   -1.2120   82.9730 C.3   147  LYS147      0.1728
    158  C         18.2550   -0.3800   84.2260 C.2   147  LYS147      0.2616
    159  O         18.2780    0.8540   84.1550 O.2   147  LYS147     -0.2715
    160  CB        16.5210   -1.4260   82.7590 C.3   147  LYS147      0.0311
    161  CG        15.7980   -0.1850   82.2600 C.3   147  LYS147      0.0038
    162  CD        14.2850   -0.3480   82.3220 C.3   147  LYS147      0.0206
    163  CE        13.7730   -0.2340   83.7490 C.3   147  LYS147      0.1093
    164  NZ        12.3200   -0.5410   83.8440 N.3   147  LYS147     -0.1314
    165  N         18.4260   -1.0290   85.3780 N.am  148  ASP148     -0.1971
    166  CA        18.7220   -0.3320   86.6290 C.3   148  ASP148      0.1709
    167  C         20.2230   -0.4610   86.8810 C.2   148  ASP148      0.2293
    168  O         20.6850   -1.2610   87.6940 O.2   148  ASP148     -0.2864
    169  CB        17.8800   -0.8950   87.7700 C.3   148  ASP148      0.1436
    170  CG        16.3910   -0.8250   87.4820 C.2   148  ASP148      0.3671
    171  OD1       15.8160    0.2790   87.5830 O.co2 148  ASP148     -0.2456
    172  OD2       15.7980   -1.8740   87.1510 O.co2 148  ASP148     -0.2456
    173  N         21.6890    0.6020   90.2760 N.3   151  GLN151     -0.1245
    174  CA        21.2200   -0.4150   91.2100 C.3   151  GLN151      0.1566
    175  C         22.0840   -1.6690   91.1420 C.2   151  GLN151      0.2260
    176  O         22.3900   -2.2760   92.1740 O.2   151  GLN151     -0.2867
    177  CB        19.7580   -0.7440   90.9130 C.3   151  GLN151      0.0367
    178  CG        19.2000   -1.9230   91.6930 C.3   151  GLN151      0.0905
    179  CD        17.6860   -1.9860   91.6420 C.2   151  GLN151      0.2608
    180  OE1       17.0020   -1.1190   92.1850 O.2   151  GLN151     -0.2717
    181  NE2       17.1550   -3.0050   90.9760 N.am  151  GLN151     -0.0878
    182  N         24.4040   -2.9720   94.2440 N.3   154  ILE154     -0.1245
    183  CA        24.1840   -4.2970   94.8130 C.3   154  ILE154      0.1561
    184  C         25.4640   -5.1220   94.7610 C.2   154  ILE154      0.2260
    185  O         25.7220   -5.9340   95.6570 O.2   154  ILE154     -0.2867
    186  CB        23.0080   -4.9890   94.0970 C.3   154  ILE154      0.0252
    187  CG1       21.6920   -4.3060   94.4730 C.3   154  ILE154      0.0019
    188  CG2       22.9400   -6.4630   94.4550 C.3   154  ILE154      0.0019
    189  CD1       20.4670   -4.9380   93.8500 C.3   154  ILE154      0.0001
    190  N         20.4180   -8.5480   80.0080 N.3   171  PRO171     -0.2102
    191  CA        20.1870   -7.3940   79.1320 C.3   171  PRO171      0.1504
    192  C         18.7710   -6.8570   79.2730 C.2   171  PRO171      0.2576
    193  O         17.8510   -7.5450   79.7190 O.2   171  PRO171     -0.2718
    194  CB        20.4230   -7.9540   77.7220 C.3   171  PRO171      0.0282
    195  CG        21.0550   -9.3080   77.9200 C.3   171  PRO171      0.0208
    196  CD        20.5700   -9.7960   79.2430 C.3   171  PRO171      0.0893
    197  N         18.6090   -5.6000   78.8700 N.am  172  THR172     -0.1939
    198  CA        17.3200   -4.9270   78.9520 C.3   172  THR172      0.2028
    199  C         16.4250   -5.3800   77.8050 C.2   172  THR172      0.2642
    200  O         16.7850   -5.2340   76.6320 O.2   172  THR172     -0.2714
    201  CB        17.5100   -3.4110   78.9130 C.3   172  THR172      0.1808
    202  OG1       18.1540   -2.9740   80.1170 O.3   172  THR172     -0.2208
    203  CG2       16.1680   -2.7120   78.7690 C.3   172  THR172      0.0379
    204  N         15.2630   -5.9320   78.1410 N.am  173  GLN173     -0.1976
    205  CA        14.2610   -6.2530   77.1360 C.3   173  GLN173      0.1601
    206  C         13.5410   -4.9830   76.7070 C.2   173  GLN173      0.2287
    207  O         13.2260   -4.1230   77.5330 O.2   173  GLN173     -0.2864
    208  CB        13.2580   -7.2700   77.6800 C.3   173  GLN173      0.0394
    209  CG        13.8850   -8.5600   78.1730 C.3   173  GLN173      0.0908
    210  CD        14.8440   -9.1580   77.1660 C.2   173  GLN173      0.2608
    211  OE1       16.0590   -9.0010   77.2830 O.2   173  GLN173     -0.2717
    212  NE2       14.3050   -9.8450   76.1690 N.am  173  GLN173     -0.0878
    213  N         12.1350    0.4210   76.7950 N.3   180  PRO180     -0.2102
    214  CA        12.3620   -0.7050   77.7060 C.3   180  PRO180      0.1504
    215  C         11.0800   -1.1270   78.3950 C.2   180  PRO180      0.2575
    216  O         10.1890   -0.3180   78.6590 O.2   180  PRO180     -0.2718
    217  CB        13.3690   -0.1490   78.7210 C.3   180  PRO180      0.0282
    218  CG        13.9420    1.0570   78.0780 C.3   180  PRO180      0.0208
    219  CD        12.8650    1.6220   77.2190 C.3   180  PRO180      0.0893
    220  N         10.9980   -2.4200   78.6850 N.am  181  LEU181     -0.1980
    221  CA         9.8510   -2.9480   79.4070 C.3   181  LEU181      0.1596
    222  C          9.9400   -2.5550   80.8760 C.2   181  LEU181      0.2287
    223  O         10.9740   -2.7540   81.5220 O.2   181  LEU181     -0.2864
    224  CB         9.7880   -4.4660   79.2600 C.3   181  LEU181      0.0297
    225  CG         9.7260   -4.9820   77.8200 C.3   181  LEU181      0.0022
    226  CD1        9.6940   -6.4990   77.7900 C.3   181  LEU181      0.0001
    227  CD2        8.5180   -4.4040   77.1040 C.3   181  LEU181      0.0001
    228  N          7.3370   -2.1760   84.6070 N.3   183  SER183     -0.1217
    229  CA         6.0390   -2.4170   85.2270 C.3   183  SER183      0.1889
    230  C          5.1900   -1.1540   85.2650 C.2   183  SER183      0.2288
    231  O          3.9610   -1.2290   85.1530 O.2   183  SER183     -0.2866
    232  CB         6.2220   -2.9750   86.6380 C.3   183  SER183      0.2089
    233  OG         6.6720   -4.3180   86.6000 O.3   183  SER183     -0.2183
@<TRIPOS>BOND
     1   212   210   am
     2   200   199    2
     3   206   205    1
     4   206   207    2
     5   213   219    1
     6   213   214    1
     7   227   225    1
     8   205   208    1
     9   205   204    1
    10   210   211    2
    11   210   209    1
    12   219   218    1
    13   208   209    1
    14   214   215    1
    15   214   217    1
    16   194   195    1
    17   194   191    1
    18   226   225    1
    19   199   204   am
    20   199   198    1
    21   225   224    1
    22   195   196    1
    23   218   217    1
    24   215   216    2
    25   215   220   am
    26   220   221    1
    27   203   201    1
    28   197   198    1
    29   197   192   am
    30   201   198    1
    31   201   202    1
    32   191   192    1
    33   191   190    1
    34   154   153   ar
    35   196   190    1
    36   224   221    1
    37   192   193    2
    38   221   222    1
    39   155   153   ar
    40   153   152    1
    41    29    30    1
    42   222   223    2
    43    30    31    1
    44   152   151    1
    45    21    20    1
    46    21    22    2
    47   151   148    1
    48    23    20    1
    49    23    24    1
    50    25    24   ar
    51    25    27   ar
    52    20    19    1
    53   161   162    1
    54   161   160    1
    55   162   163    1
    56    31    32    2
    57    31    33   am
    58    24    26   ar
    59   160   157    1
    60    43    44    1
    61    27    28   ar
    62   157   156    1
    63   157   158    1
    64   156   149   am
    65   148   149    1
    66   148   147    1
    67   149   150    2
    68    33    34    1
    69   147   145   am
    70    26    28   ar
    71    49    48    1
    72   163   164    1
    73    35    34    1
    74    35    36    2
    75    44    45    1
    76    44    47    1
    77   159   158    2
    78   158   165   am
    79    34    37    1
    80   228   229    1
    81   145   144    1
    82   145   146    2
    83    45    46    2
    84   144   143    1
    85    48    47    1
    86    48    50    1
    87   231   230    2
    88   229   230    1
    89   229   232    1
    90    37    38    1
    91   165   166    1
    92    39    38   ar
    93    39    41   ar
    94   138   137    2
    95    38    40   ar
    96   143   137   am
    97    41    42   ar
    98   137   136    1
    99   233   232    1
   100   132   130   ar
   101   132   133   ar
   102   166   167    1
   103   166   169    1
   104    40    42   ar
   105   130   128   ar
   106   167   168    2
   107   172   170   ar
   108   170   171   ar
   109   170   169    1
   110   134   133    1
   111   133   131   ar
   112   128   127    1
   113   128   129   ar
   114   136   135    1
   115   136   139    1
   116   127   124    1
   117   135   125   am
   118   125   124    1
   119   125   126    2
   120   124   123    1
   121   131   129   ar
   122   139   140    1
   123    18    17    2
   124    17    16    1
   125    90    89    1
   126    14    12    1
   127   140   141    1
   128   140   142    1
   129   173   174    1
   130    89    87   ar
   131    89    88   ar
   132    87    85   ar
   133    12    13    1
   134    12     9    1
   135   177   174    1
   136   177   178    1
   137    16    15    1
   138   181   179   am
   139    88    86   ar
   140   175   174    1
   141   175   176    2
   142    81    80    1
   143    81    82    2
   144    85    84   ar
   145     4     3    2
   146    80    79    1
   147    80    83    1
   148   179   178    1
   149   179   180    2
   150     9     8    1
   151     9    10    1
   152    86    84   ar
   153    84    83    1
   154     3     8   am
   155     3     2    1
   156     1     7    1
   157     1     2    1
   158     7     6    1
   159    10    11    2
   160   100    98   ar
   161   100    99   ar
   162     2     5    1
   163     6     5    1
   164    98    96   ar
   165   189   187    1
   166    99    97   ar
   167   186   188    1
   168   186   187    1
   169   186   183    1
   170   182   183    1
   171    96    97   ar
   172    96    95    1
   173    78    76   am
   174   184   183    1
   175   184   185    2
   176    95    92    1
   177    76    75    1
   178    76    77    2
   179    51    52    1
   180    73    72    2
   181    54    53    2
   182    75    74    1
   183   114   112    1
   184    53    52    1
   185    92    93    1
   186    92    91    1
   187    93    94    2
   188    52    55    1
   189    72    71    1
   190   113   112    1
   191    74    71    1
   192    62    63    1
   193   112   109    1
   194   121   120    1
   195    71    70    1
   196    65    64    2
   197    55    56    1
   198    66    63    1
   199    66    67    1
   200    63    64    1
   201   109   108    1
   202   109   110    1
   203   106   105    1
   204    69    67   am
   205   119   120    1
   206   119   116    1
   207   120   122    1
   208    56    58   ar
   209    56    57   ar
   210   108   103   am
   211    67    68    2
   212    58    60   ar
   213   111   110    2
   214    57    59   ar
   215   105   107    1
   216   105   102    1
   217   103   104    2
   218   103   102    1
   219   118   117    2
   220   117   116    1
   221   116   115    1
   222    60    61   ar
   223   102   101    1
   224    59    61   ar
