@<TRIPOS>MOLECULE
tmp/5hg1A00.pdb
 152 143 0 0 0
SMALL
GASTEIGER

@<TRIPOS>ATOM
      1  N         71.4290  -51.8060  -75.1440 N.3   557  SER557     -0.1202
      2  CA        70.2900  -51.1250  -74.5310 C.3   557  SER557      0.2020
      3  C         70.7120  -49.7410  -74.0610 C.2   557  SER557      0.2619
      4  O         70.8390  -49.4800  -72.8630 O.2   557  SER557     -0.2717
      5  CB        69.7700  -51.9530  -73.3700 C.3   557  SER557      0.2103
      6  OG        70.7780  -52.1130  -72.3830 O.3   557  SER557     -0.2182
      7  N         70.6810  -48.8070  -75.0020 N.am  558  PHE558     -0.1962
      8  CA        70.9930  -47.4050  -74.7880 C.3   558  PHE558      0.1756
      9  C         70.1850  -46.6100  -75.7850 C.2   558  PHE558      0.2461
     10  O         69.7620  -47.1460  -76.8240 O.2   558  PHE558     -0.2730
     11  CB        72.4860  -47.1050  -74.9540 C.3   558  PHE558      0.0574
     12  CG        73.3670  -47.8850  -74.0430 C.ar  558  PHE558     -0.0200
     13  CD1       73.6290  -47.4480  -72.7580 C.ar  558  PHE558     -0.0042
     14  CD2       73.9400  -49.0660  -74.4690 C.ar  558  PHE558     -0.0042
     15  CE1       74.4550  -48.1790  -71.9120 C.ar  558  PHE558     -0.0003
     16  CE2       74.7620  -49.8080  -73.6210 C.ar  558  PHE558     -0.0003
     17  CZ        75.0220  -49.3620  -72.3540 C.ar  558  PHE558     -0.0000
     18  N         69.9770  -45.3450  -75.5450 N.am  559  PRO559     -0.2727
     19  CA        69.1440  -44.5530  -76.4510 C.3   559  PRO559      0.1402
     20  C         69.8210  -44.3330  -77.8010 C.2   559  PRO559      0.2269
     21  O         70.6560  -43.4390  -77.9330 O.2   559  PRO559     -0.2865
     22  CB        68.9260  -43.2500  -75.6660 C.3   559  PRO559      0.0296
     23  CG        70.0700  -43.1540  -74.7640 C.3   559  PRO559      0.0237
     24  CD        70.4570  -44.5570  -74.3950 C.3   559  PRO559      0.0939
     25  N         73.0090  -42.1770  -78.9010 N.3   571  LEU571     -0.1231
     26  CA        72.6540  -40.8040  -78.5520 C.3   571  LEU571      0.1693
     27  C         73.3820  -40.3660  -77.2910 C.2   571  LEU571      0.2591
     28  O         74.1170  -39.3760  -77.3150 O.2   571  LEU571     -0.2718
     29  CB        71.1350  -40.6340  -78.4380 C.3   571  LEU571      0.0284
     30  CG        70.5040  -40.9100  -79.8250 C.3   571  LEU571      0.0019
     31  CD1       68.9810  -40.7560  -79.8700 C.3   571  LEU571      0.0001
     32  CD2       71.1860  -40.1140  -80.9590 C.3   571  LEU571      0.0001
     33  N         73.1780  -41.0660  -76.1790 N.am  572  LYS572     -0.1980
     34  CA        73.9510  -40.7630  -74.9780 C.3   572  LYS572      0.1596
     35  C         74.2430  -42.0360  -74.1900 C.2   572  LYS572      0.2287
     36  O         73.3770  -42.9030  -74.0570 O.2   572  LYS572     -0.2864
     37  CB        73.2270  -39.7250  -74.1060 C.3   572  LYS572      0.0298
     38  CG        73.9660  -39.4190  -72.8090 C.3   572  LYS572      0.0038
     39  CD        73.2900  -38.3510  -71.9630 C.3   572  LYS572      0.0206
     40  CE        73.4700  -36.9970  -72.5950 C.3   572  LYS572      0.1093
     41  NZ        74.9290  -36.6630  -72.6480 N.3   572  LYS572     -0.1314
     42  N         74.4370  -44.1870  -70.9440 N.3   574  THR574     -0.1203
     43  CA        73.6520  -44.1880  -69.7200 C.3   574  THR574      0.1994
     44  C         74.1470  -45.3310  -68.8390 C.2   574  THR574      0.2617
     45  O         75.0890  -46.0500  -69.1940 O.2   574  THR574     -0.2717
     46  CB        72.1590  -44.3120  -70.0300 C.3   574  THR574      0.1784
     47  OG1       71.9000  -45.5790  -70.6600 O.3   574  THR574     -0.2211
     48  CG2       71.7100  -43.1600  -70.9580 C.3   574  THR574      0.0376
     49  N         73.5100  -45.5030  -67.6800 N.am  575  LYS575     -0.1979
     50  CA        73.8830  -46.5510  -66.7080 C.3   575  LYS575      0.1596
     51  C         75.3450  -46.3300  -66.3250 C.2   575  LYS575      0.2287
     52  O         75.7320  -45.1990  -65.9870 O.2   575  LYS575     -0.2864
     53  CB        73.5600  -47.9140  -67.2900 C.3   575  LYS575      0.0298
     54  CG        72.0820  -48.0340  -67.6700 C.3   575  LYS575      0.0038
     55  CD        71.7710  -49.4220  -68.2200 C.3   575  LYS575      0.0206
     56  CE        70.2880  -49.6210  -68.5720 C.3   575  LYS575      0.1093
     57  NZ        69.9150  -49.0890  -69.8940 N.3   575  LYS575     -0.1314
     58  N         67.3030  -53.1690  -79.1220 N.3   610  ASN610     -0.1225
     59  CA        67.1200  -52.7820  -77.7260 C.3   610  ASN610      0.1785
     60  C         66.7280  -54.0020  -76.8850 C.2   610  ASN610      0.2597
     61  O         66.2500  -55.0100  -77.4110 O.2   610  ASN610     -0.2718
     62  CB        66.1150  -51.6210  -77.6760 C.3   610  ASN610      0.1169
     63  CG        65.7400  -51.1770  -76.2700 C.2   610  ASN610      0.2627
     64  OD1       65.2540  -51.9560  -75.4710 O.2   610  ASN610     -0.2716
     65  ND2       66.0790  -49.9400  -75.9360 N.am  610  ASN610     -0.0877
     66  N         67.0240  -53.9490  -75.5700 N.am  611  ASP611     -0.1974
     67  CA        66.7620  -55.1180  -74.7310 C.3   611  ASP611      0.1709
     68  C         65.2720  -55.4430  -74.6720 C.2   611  ASP611      0.2293
     69  O         64.8780  -56.6170  -74.6790 O.2   611  ASP611     -0.2864
     70  CB        67.3680  -54.9520  -73.3300 C.3   611  ASP611      0.1436
     71  CG        67.0370  -53.6120  -72.6610 C.2   611  ASP611      0.3671
     72  OD1       66.5860  -52.6840  -73.3510 O.co2 611  ASP611     -0.2456
     73  OD2       67.2230  -53.5010  -71.4230 O.co2 611  ASP611     -0.2456
     74  N         60.9620  -53.9730  -69.9440 N.3   631  ILE631     -0.1245
     75  CA        62.0390  -54.0550  -68.9630 C.3   631  ILE631      0.1561
     76  C         61.6830  -53.1930  -67.7530 C.2   631  ILE631      0.2260
     77  O         61.3100  -52.0190  -67.9020 O.2   631  ILE631     -0.2867
     78  CB        63.3830  -53.6170  -69.5650 C.3   631  ILE631      0.0252
     79  CG1       63.6930  -54.4180  -70.8210 C.3   631  ILE631      0.0019
     80  CG2       64.4800  -53.8310  -68.5760 C.3   631  ILE631      0.0019
     81  CD1       63.8360  -55.8560  -70.5800 C.3   631  ILE631      0.0001
     82  N         66.7690  -49.7150  -65.7160 N.3   635  GLY635     -0.1210
     83  CA        65.8860  -48.7360  -66.3130 C.3   635  GLY635      0.1956
     84  C         64.6090  -49.4260  -66.7430 C.2   635  GLY635      0.2613
     85  O         64.4960  -50.6470  -66.6490 O.2   635  GLY635     -0.2717
     86  N         63.6330  -48.6350  -67.1810 N.am  636  SER636     -0.1938
     87  CA        62.3770  -49.1900  -67.6710 C.3   636  SER636      0.2055
     88  C         62.1430  -48.8040  -69.1310 C.2   636  SER636      0.2643
     89  O         62.2340  -47.6290  -69.4870 O.2   636  SER636     -0.2714
     90  CB        61.2150  -48.7160  -66.8110 C.3   636  SER636      0.2130
     91  OG        59.9980  -49.2920  -67.2300 O.3   636  SER636     -0.2179
     92  N         61.8010  -49.7800  -69.9680 N.am  637  ASN637     -0.1971
     93  CA        61.3790  -49.4750  -71.3280 C.3   637  ASN637      0.1688
     94  C         60.4250  -50.5530  -71.8360 C.2   637  ASN637      0.2292
     95  O         60.2090  -51.5760  -71.1740 O.2   637  ASN637     -0.2864
     96  CB        62.5900  -49.3400  -72.2610 C.3   637  ASN637      0.1181
     97  CG        62.2270  -48.7500  -73.5840 C.2   637  ASN637      0.2629
     98  OD1       61.2450  -48.0240  -73.6860 O.2   637  ASN637     -0.2716
     99  ND2       63.0150  -49.0470  -74.6130 N.am  637  ASN637     -0.0877
    100  N         61.0470  -46.1560  -76.0110 N.3   662  GLU662     -0.1245
    101  CA        61.7620  -45.3080  -75.0690 C.3   662  GLU662      0.1567
    102  C         60.7990  -44.6460  -74.0650 C.2   662  GLU662      0.2260
    103  O         60.8380  -43.4380  -73.8200 O.2   662  GLU662     -0.2867
    104  CB        62.6130  -44.2890  -75.8150 C.3   662  GLU662      0.0388
    105  CG        63.8440  -44.9250  -76.4280 C.3   662  GLU662      0.1160
    106  CD        64.8490  -45.4790  -75.4060 C.2   662  GLU662      0.3649
    107  OE1       65.1220  -44.8100  -74.3790 O.co2 662  GLU662     -0.2457
    108  OE2       65.3960  -46.5780  -75.6470 O.co2 662  GLU662     -0.2457
    109  N         60.4740  -44.5580  -70.9070 N.3   664  GLY664     -0.1210
    110  CA        61.0290  -43.8640  -69.7690 C.3   664  GLY664      0.1956
    111  C         61.0640  -42.3560  -69.9170 C.2   664  GLY664      0.2611
    112  O         61.2000  -41.6550  -68.9130 O.2   664  GLY664     -0.2717
    113  N         60.9530  -41.8230  -71.1390 N.am  665  ALA665     -0.1979
    114  CA        61.0000  -40.3700  -71.2620 C.3   665  ALA665      0.1597
    115  C         59.6200  -39.7430  -71.2390 C.2   665  ALA665      0.2287
    116  O         59.4970  -38.5170  -71.3110 O.2   665  ALA665     -0.2864
    117  CB        61.7590  -39.9640  -72.5060 C.3   665  ALA665      0.0319
    118  N         71.0300  -36.5330  -65.4380 N.3   689  ASN689     -0.1240
    119  CA        70.4130  -35.8310  -66.5560 C.3   689  ASN689      0.1653
    120  C         69.0880  -35.2230  -66.1120 C.2   689  ASN689      0.2266
    121  O         68.0080  -35.7400  -66.4330 O.2   689  ASN689     -0.2867
    122  CB        70.2440  -36.7630  -67.7500 C.3   689  ASN689      0.1155
    123  CG        71.5760  -37.1630  -68.3430 C.2   689  ASN689      0.2627
    124  OD1       72.2790  -36.3220  -68.9130 O.2   689  ASN689     -0.2716
    125  ND2       71.9240  -38.4500  -68.2410 N.am  689  ASN689     -0.0877
    126  N         65.3230  -35.4460  -67.7780 N.3   692  LYS692     -0.1231
    127  CA        65.2480  -36.5610  -68.7080 C.3   692  LYS692      0.1693
    128  C         64.8470  -37.8280  -67.9610 C.2   692  LYS692      0.2591
    129  O         65.2810  -38.0550  -66.8280 O.2   692  LYS692     -0.2718
    130  CB        66.5870  -36.7780  -69.4270 C.3   692  LYS692      0.0285
    131  CG        67.1010  -35.5480  -70.1510 C.3   692  LYS692      0.0035
    132  CD        66.2360  -35.1830  -71.3390 C.3   692  LYS692      0.0206
    133  CE        66.6900  -33.8730  -71.9570 C.3   692  LYS692      0.1093
    134  NZ        66.4110  -32.7390  -71.0110 N.3   692  LYS692     -0.1314
    135  N         64.0150  -38.6490  -68.6060 N.am  693  GLN693     -0.1979
    136  CA        63.6570  -39.9680  -68.0970 C.3   693  GLN693      0.1601
    137  C         62.8040  -39.8960  -66.8210 C.2   693  GLN693      0.2287
    138  O         62.9300  -40.7350  -65.9310 O.2   693  GLN693     -0.2864
    139  CB        64.9140  -40.7940  -67.8610 C.3   693  GLN693      0.0394
    140  CG        65.6820  -41.0660  -69.1270 C.3   693  GLN693      0.0908
    141  CD        64.9110  -41.9080  -70.1100 C.2   693  GLN693      0.2608
    142  OE1       64.3740  -41.3860  -71.0990 O.2   693  GLN693     -0.2717
    143  NE2       64.8580  -43.2170  -69.8640 N.am  693  GLN693     -0.0878
    144  N         60.7160  -43.1090  -66.0140 N.3   696  GLU696     -0.1245
    145  CA        61.6570  -44.1100  -65.5410 C.3   696  GLU696      0.1567
    146  C         61.9970  -43.9040  -64.0640 C.2   696  GLU696      0.2260
    147  O         62.2140  -44.8680  -63.3200 O.2   696  GLU696     -0.2867
    148  CB        62.9230  -44.0060  -66.3560 C.3   696  GLU696      0.0388
    149  CG        63.7050  -45.2470  -66.3260 C.3   696  GLU696      0.1160
    150  CD        65.0250  -45.0900  -66.9990 C.2   696  GLU696      0.3649
    151  OE1       65.5710  -43.9610  -67.0250 O.co2 696  GLU696     -0.2457
    152  OE2       65.4520  -46.0900  -67.5960 O.co2 696  GLU696     -0.2457
@<TRIPOS>BOND
     1    32    30    1
     2    31    30    1
     3    30    29    1
     4    58    59    1
     5    25    26    1
     6    26    29    1
     7    26    27    1
     8    21    20    2
     9    20    19    1
    10    59    62    1
    11    59    60    1
    12    62    63    1
    13    61    60    2
    14    28    27    2
    15    27    33   am
    16    60    66   am
    17    10     9    2
    18    19    22    1
    19    19    18    1
    20   105   104    1
    21   105   106    1
    22    63    65   am
    23    63    64    2
    24    33    34    1
    25   100   101    1
    26   104   101    1
    27     9    18   am
    28     9     8    1
    29    22    23    1
    30   108   106   ar
    31    66    67    1
    32    18    24    1
    33   106   107   ar
    34     1     2    1
    35   101   102    1
    36     7     8    1
    37     7     3   am
    38    34    35    1
    39    34    37    1
    40    11     8    1
    41    11    12    1
    42    23    24    1
    43    67    68    1
    44    67    70    1
    45    69    68    2
    46    99    97   am
    47     2     3    1
    48     2     5    1
    49    14    12   ar
    50    14    16   ar
    51    35    36    2
    52    37    38    1
    53   102   103    2
    54     3     4    2
    55    12    13   ar
    56    98    97    2
    57    16    17   ar
    58    97    96    1
    59     5     6    1
    60    72    71   ar
    61    70    71    1
    62    38    39    1
    63    13    15   ar
    64    71    73   ar
    65    41    40    1
    66    40    39    1
    67   117   114    1
    68    17    15   ar
    69    96    93    1
    70   133   132    1
    71   133   134    1
    72    94    93    1
    73    94    95    2
    74   132   131    1
    75    93    92    1
    76   116   115    2
    77   114   115    1
    78   114   113    1
    79   113   111   am
    80   142   141    2
    81    48    46    1
    82    42    43    1
    83   109   110    1
    84    79    81    1
    85    79    78    1
    86    47    46    1
    87   131   130    1
    88   141   143   am
    89   141   140    1
    90    46    43    1
    91    92    88   am
    92    74    75    1
    93   111   110    1
    94   111   112    2
    95    57    56    1
    96    43    44    1
    97    78    75    1
    98    78    80    1
    99    89    88    2
   100   130   127    1
   101    45    44    2
   102    88    87    1
   103   140   139    1
   104    75    76    1
   105   124   123    2
   106    44    49   am
   107   127   128    1
   108   127   126    1
   109   135   136    1
   110   135   128   am
   111    56    55    1
   112   123   125   am
   113   123   122    1
   114    55    54    1
   115   136   139    1
   116   136   137    1
   117   128   129    2
   118    77    76    2
   119   122   119    1
   120    49    50    1
   121    87    86    1
   122    87    90    1
   123    54    53    1
   124   152   150   ar
   125    53    50    1
   126    91    90    1
   127    86    84   am
   128   151   150   ar
   129   150   149    1
   130   137   138    2
   131    84    85    2
   132    84    83    1
   133    50    51    1
   134   119   120    1
   135   119   118    1
   136   121   120    2
   137   148   149    1
   138   148   145    1
   139    51    52    2
   140    83    82    1
   141   144   145    1
   142   145   146    1
   143   146   147    2
