@<TRIPOS>MOLECULE
tmp/5hg1A02.pdb
 114 103 0 0 0
SMALL
GASTEIGER

@<TRIPOS>ATOM
      1  N         74.9640  -59.1330  -75.2540 N.3   489  ASP489     -0.1239
      2  CA        74.0280  -58.4840  -74.3530 C.3   489  ASP489      0.1674
      3  C         74.8420  -57.4510  -73.5830 C.2   489  ASP489      0.2266
      4  O         75.6730  -57.8060  -72.7390 O.2   489  ASP489     -0.2867
      5  CB        73.3850  -59.5380  -73.4510 C.3   489  ASP489      0.1410
      6  CG        72.1790  -59.0360  -72.6960 C.2   489  ASP489      0.3668
      7  OD1       71.7170  -57.9030  -72.9550 O.co2 489  ASP489     -0.2456
      8  OD2       71.7010  -59.7960  -71.8190 O.co2 489  ASP489     -0.2456
      9  N         73.2130  -54.2390  -69.5690 N.3   492  GLY492     -0.1210
     10  CA        72.5660  -54.7470  -68.3810 C.3   492  GLY492      0.1956
     11  C         73.5210  -54.7020  -67.2070 C.2   492  GLY492      0.2612
     12  O         74.5730  -54.0580  -67.2450 O.2   492  GLY492     -0.2717
     13  N         73.1470  -55.4040  -66.1330 N.am  493  THR493     -0.1952
     14  CA        74.1440  -55.5670  -65.0820 C.3   493  THR493      0.1897
     15  C         75.2260  -56.5290  -65.5480 C.2   493  THR493      0.2313
     16  O         76.3900  -56.3730  -65.1720 O.2   493  THR493     -0.2863
     17  CB        73.5280  -56.0290  -63.7370 C.3   493  THR493      0.1794
     18  OG1       72.9550  -57.3360  -63.8520 O.3   493  THR493     -0.2208
     19  CG2       72.4500  -55.0630  -63.2500 C.3   493  THR493      0.0378
     20  N         77.3410  -60.2880  -71.4980 N.3   496  ARG496     -0.1245
     21  CA        77.5940  -61.6840  -71.8010 C.3   496  ARG496      0.1563
     22  C         77.6060  -61.9060  -73.3090 C.2   496  ARG496      0.2260
     23  O         77.0330  -61.1300  -74.0780 O.2   496  ARG496     -0.2867
     24  CB        76.5670  -62.5750  -71.1020 C.3   496  ARG496      0.0307
     25  CG        75.1640  -62.5120  -71.6550 C.3   496  ARG496      0.0489
     26  CD        74.2520  -63.4180  -70.8360 C.3   496  ARG496      0.2205
     27  NE        74.1110  -62.9340  -69.4580 N.pl3 496  ARG496     -0.0865
     28  CZ        73.7180  -63.6900  -68.4340 C.cat 496  ARG496      0.5346
     29  NH1       73.4420  -64.9720  -68.6270 N.pl3 496  ARG496      0.1354
     30  NH2       73.6200  -63.1760  -67.2110 N.pl3 496  ARG496      0.1354
     31  N         71.4290  -51.8060  -75.1440 N.3   557  SER557     -0.1217
     32  CA        70.2900  -51.1250  -74.5310 C.3   557  SER557      0.1889
     33  C         70.7120  -49.7410  -74.0610 C.2   557  SER557      0.2288
     34  O         70.8390  -49.4800  -72.8630 O.2   557  SER557     -0.2866
     35  CB        69.7700  -51.9530  -73.3700 C.3   557  SER557      0.2089
     36  OG        70.7780  -52.1130  -72.3830 O.3   557  SER557     -0.2183
     37  N         73.5100  -45.5030  -67.6800 N.3   575  LYS575     -0.1245
     38  CA        73.8830  -46.5510  -66.7080 C.3   575  LYS575      0.1561
     39  C         75.3450  -46.3300  -66.3250 C.2   575  LYS575      0.2260
     40  O         75.7320  -45.1990  -65.9870 O.2   575  LYS575     -0.2867
     41  CB        73.5600  -47.9140  -67.2900 C.3   575  LYS575      0.0271
     42  CG        72.0820  -48.0340  -67.6700 C.3   575  LYS575      0.0035
     43  CD        71.7710  -49.4220  -68.2200 C.3   575  LYS575      0.0206
     44  CE        70.2880  -49.6210  -68.5720 C.3   575  LYS575      0.1093
     45  NZ        69.9150  -49.0890  -69.8940 N.3   575  LYS575     -0.1314
     46  N         67.0240  -53.9490  -75.5700 N.3   611  ASP611     -0.1239
     47  CA        66.7620  -55.1180  -74.7310 C.3   611  ASP611      0.1674
     48  C         65.2720  -55.4430  -74.6720 C.2   611  ASP611      0.2266
     49  O         64.8780  -56.6170  -74.6790 O.2   611  ASP611     -0.2867
     50  CB        67.3680  -54.9520  -73.3300 C.3   611  ASP611      0.1410
     51  CG        67.0370  -53.6120  -72.6610 C.2   611  ASP611      0.3668
     52  OD1       66.5860  -52.6840  -73.3510 O.co2 611  ASP611     -0.2456
     53  OD2       67.2230  -53.5010  -71.4230 O.co2 611  ASP611     -0.2456
     54  N         60.9620  -53.9730  -69.9440 N.3   631  ILE631     -0.1245
     55  CA        62.0390  -54.0550  -68.9630 C.3   631  ILE631      0.1561
     56  C         61.6830  -53.1930  -67.7530 C.2   631  ILE631      0.2260
     57  O         61.3100  -52.0190  -67.9020 O.2   631  ILE631     -0.2867
     58  CB        63.3830  -53.6170  -69.5650 C.3   631  ILE631      0.0252
     59  CG1       63.6930  -54.4180  -70.8210 C.3   631  ILE631      0.0019
     60  CG2       64.4800  -53.8310  -68.5760 C.3   631  ILE631      0.0019
     61  CD1       63.8360  -55.8560  -70.5800 C.3   631  ILE631      0.0001
     62  N         63.8980  -52.5780  -64.2190 N.3   633  GLY633     -0.1210
     63  CA        65.2730  -52.9570  -63.9640 C.3   633  GLY633      0.1956
     64  C         66.0950  -51.7210  -63.6860 C.2   633  GLY633      0.2613
     65  O         65.5710  -50.7330  -63.1680 O.2   633  GLY633     -0.2717
     66  N         67.3930  -51.7760  -63.9770 N.am  634  THR634     -0.1938
     67  CA        68.2430  -50.5880  -63.9600 C.3   634  THR634      0.2028
     68  C         67.5230  -49.4240  -64.6350 C.2   634  THR634      0.2642
     69  O         67.6070  -48.2830  -64.1700 O.2   634  THR634     -0.2714
     70  CB        69.5650  -50.8750  -64.6750 C.3   634  THR634      0.1808
     71  OG1       70.2130  -51.9890  -64.0570 O.3   634  THR634     -0.2208
     72  CG2       70.4720  -49.6790  -64.6160 C.3   634  THR634      0.0379
     73  N         66.7690  -49.7150  -65.7160 N.am  635  GLY635     -0.1954
     74  CA        65.8860  -48.7360  -66.3130 C.3   635  GLY635      0.1869
     75  C         64.6090  -49.4260  -66.7430 C.2   635  GLY635      0.2309
     76  O         64.4960  -50.6470  -66.6490 O.2   635  GLY635     -0.2863
     77  N         61.3910  -58.6020  -68.3140 N.3   815  ASP815     -0.1225
     78  CA        62.6790  -58.9120  -67.7190 C.3   815  ASP815      0.1805
     79  C         63.0940  -57.7270  -66.8590 C.2   815  ASP815      0.2598
     80  O         62.3930  -56.7180  -66.7840 O.2   815  ASP815     -0.2718
     81  CB        63.7030  -59.2590  -68.8000 C.3   815  ASP815      0.1424
     82  CG        64.9510  -59.8930  -68.2340 C.2   815  ASP815      0.3668
     83  OD1       65.0580  -59.9920  -66.9960 O.co2 815  ASP815     -0.2456
     84  OD2       65.8100  -60.3280  -69.0200 O.co2 815  ASP815     -0.2456
     85  N         64.2540  -57.8500  -66.2310 N.am  816  GLY816     -0.1942
     86  CA        64.7460  -56.8990  -65.2490 C.3   816  GLY816      0.2014
     87  C         64.6430  -57.3500  -63.8000 C.2   816  GLY816      0.2639
     88  O         63.6580  -57.9700  -63.3850 O.2   816  GLY816     -0.2714
     89  N         65.6520  -56.9870  -63.0020 N.am  817  THR817     -0.1950
     90  CA        65.7720  -57.5320  -61.6470 C.3   817  THR817      0.1897
     91  C         64.6430  -57.0610  -60.7420 C.2   817  THR817      0.2313
     92  O         64.0900  -57.8580  -59.9870 O.2   817  THR817     -0.2863
     93  CB        67.1340  -57.1760  -61.0550 C.3   817  THR817      0.1794
     94  OG1       67.3880  -55.7830  -61.2780 O.3   817  THR817     -0.2208
     95  CG2       68.2430  -57.9960  -61.7160 C.3   817  THR817      0.0378
     96  N         61.3990  -59.2400  -61.2590 N.3   820  LYS820     -0.1245
     97  CA        61.4330  -60.6310  -60.8180 C.3   820  LYS820      0.1561
     98  C         61.8440  -60.8580  -59.3550 C.2   820  LYS820      0.2260
     99  O         61.5430  -61.9240  -58.8070 O.2   820  LYS820     -0.2867
    100  CB        62.3430  -61.4350  -61.7400 C.3   820  LYS820      0.0271
    101  CG        63.7470  -60.9410  -61.8280 C.3   820  LYS820      0.0035
    102  CD        64.5310  -61.8190  -62.7930 C.3   820  LYS820      0.0206
    103  CE        63.9960  -61.7020  -64.2150 C.3   820  LYS820      0.1093
    104  NZ        64.7570  -62.6160  -65.1140 N.3   820  LYS820     -0.1314
    105  N         67.2640  -64.3720  -71.1410 N.3   850  GLY850     -0.1210
    106  CA        67.8500  -63.0800  -71.4040 C.3   850  GLY850      0.1956
    107  C         67.5960  -62.5850  -72.8190 C.2   850  GLY850      0.2612
    108  O         67.2590  -63.3350  -73.7360 O.2   850  GLY850     -0.2717
    109  N         67.7810  -61.2790  -72.9880 N.am  851  SER851     -0.1952
    110  CA        67.5240  -60.6380  -74.2700 C.3   851  SER851      0.1924
    111  C         68.5090  -61.0510  -75.3530 C.2   851  SER851      0.2314
    112  O         68.1880  -60.9160  -76.5360 O.2   851  SER851     -0.2863
    113  CB        67.4900  -59.1170  -74.0710 C.3   851  SER851      0.2116
    114  OG        68.5630  -58.6480  -73.2570 O.3   851  SER851     -0.2180
@<TRIPOS>BOND
     1   112   111    2
     2    46    47    1
     3   111   110    1
     4     1     2    1
     5    31    32    1
     6    47    48    1
     7    47    50    1
     8    49    48    2
     9    32    33    1
    10    32    35    1
    11     2     3    1
    12     2     5    1
    13   110   113    1
    14   110   109    1
    15    23    22    2
    16   113   114    1
    17    33    34    2
    18   108   107    2
    19     3     4    2
    20     5     6    1
    21    35    36    1
    22    52    51   ar
    23    50    51    1
    24    22    21    1
    25   109   107   am
    26     7     6   ar
    27   107   106    1
    28     6     8   ar
    29    51    53   ar
    30    21    20    1
    31    21    24    1
    32    25    24    1
    33    25    26    1
    34   106   105    1
    35    26    27    1
    36    59    61    1
    37    59    58    1
    38    54    55    1
    39    45    44    1
    40     9    10    1
    41    58    55    1
    42    58    60    1
    43    27    28    2
    44    84    82   ar
    45    55    56    1
    46    81    82    1
    47    81    78    1
    48    29    28    1
    49    44    43    1
    50    28    30    1
    51    10    11    1
    52    77    78    1
    53    82    83   ar
    54    43    42    1
    55    57    56    2
    56    78    79    1
    57    37    38    1
    58    42    41    1
    59    41    38    1
    60    12    11    2
    61    11    13   am
    62    79    80    2
    63    79    85   am
    64    75    76    2
    65    75    74    1
    66    38    39    1
    67    39    40    2
    68    74    73    1
    69    85    86    1
    70    13    14    1
    71    73    68   am
    72    15    16    2
    73    15    14    1
    74    86    87    1
    75   104   103    1
    76    14    17    1
    77    70    72    1
    78    70    71    1
    79    70    67    1
    80    68    69    2
    81    68    67    1
    82    62    63    1
    83   103   102    1
    84    66    67    1
    85    66    64   am
    86    63    64    1
    87    18    17    1
    88    87    88    2
    89    87    89   am
    90    17    19    1
    91    64    65    2
    92    89    90    1
    93   102   101    1
    94   101   100    1
    95   100    97    1
    96    95    93    1
    97    90    93    1
    98    90    91    1
    99    94    93    1
   100    96    97    1
   101    97    98    1
   102    91    92    2
   103    98    99    2
