@<TRIPOS>MOLECULE
tmp/5hg1A01.pdb
 117 107 0 0 0
SMALL
GASTEIGER

@<TRIPOS>ATOM
      1  N         38.4980  -48.6550  -12.3100 N.3   129  SER129     -0.1217
      2  CA        38.8000  -49.6800  -11.3090 C.3   129  SER129      0.1889
      3  C         38.1700  -51.0280  -11.6570 C.2   129  SER129      0.2288
      4  O         38.8530  -52.0590  -11.6590 O.2   129  SER129     -0.2866
      5  CB        38.3330  -49.2130   -9.9280 C.3   129  SER129      0.2089
      6  OG        36.9630  -49.2400   -9.8160 O.3   129  SER129     -0.2183
      7  N         36.3100  -54.3430  -13.4750 N.3   131  PRO131     -0.2116
      8  CA        36.7670  -55.1500  -14.6160 C.3   131  PRO131      0.1372
      9  C         35.9410  -54.9110  -15.8710 C.2   131  PRO131      0.2244
     10  O         34.7480  -54.6040  -15.8100 O.2   131  PRO131     -0.2868
     11  CB        36.5840  -56.5870  -14.1160 C.3   131  PRO131      0.0268
     12  CG        35.4290  -56.4910  -13.1670 C.3   131  PRO131      0.0207
     13  CD        35.5540  -55.1450  -12.4950 C.3   131  PRO131      0.0892
     14  N         31.5790  -55.6360  -16.5800 N.3   143  VAL143     -0.1245
     15  CA        30.8920  -56.8320  -16.1090 C.3   143  VAL143      0.1561
     16  C         30.5570  -56.8160  -14.6050 C.2   143  VAL143      0.2260
     17  O         30.0710  -57.8310  -14.0950 O.2   143  VAL143     -0.2867
     18  CB        31.7060  -58.0820  -16.4810 C.3   143  VAL143      0.0252
     19  CG1       31.0310  -59.3620  -15.9990 C.3   143  VAL143      0.0019
     20  CG2       31.8290  -58.1490  -18.0050 C.3   143  VAL143      0.0019
     21  N         44.3600  -49.7590  -17.6740 N.3   165  ASN165     -0.1225
     22  CA        44.5020  -50.3740  -16.3610 C.3   165  ASN165      0.1785
     23  C         45.5340  -49.6300  -15.5270 C.2   165  ASN165      0.2597
     24  O         46.4830  -49.0420  -16.0520 O.2   165  ASN165     -0.2718
     25  CB        44.9510  -51.8240  -16.4990 C.3   165  ASN165      0.1169
     26  CG        44.8450  -52.5890  -15.2080 C.2   165  ASN165      0.2627
     27  OD1       43.8810  -52.4270  -14.4730 O.2   165  ASN165     -0.2716
     28  ND2       45.8550  -53.3910  -14.8970 N.am  165  ASN165     -0.0877
     29  N         45.3720  -49.6900  -14.2060 N.am  166  ASP166     -0.1960
     30  CA        46.3030  -48.9690  -13.3530 C.3   166  ASP166      0.1840
     31  C         47.6980  -49.5720  -13.3980 C.2   166  ASP166      0.2622
     32  O         48.6620  -48.8850  -13.0580 O.2   166  ASP166     -0.2715
     33  CB        45.7960  -48.9030  -11.9020 C.3   166  ASP166      0.1450
     34  CG        45.7150  -50.2680  -11.2230 C.2   166  ASP166      0.3671
     35  OD1       45.8510  -51.3000  -11.9120 O.co2 166  ASP166     -0.2456
     36  OD2       45.5470  -50.3050   -9.9780 O.co2 166  ASP166     -0.2456
     37  N         47.8410  -50.8300  -13.8130 N.am  167  THR167     -0.1951
     38  CA        49.1860  -51.3730  -13.9490 C.3   167  THR167      0.1897
     39  C         49.8780  -50.8340  -15.1970 C.2   167  THR167      0.2313
     40  O         51.1040  -50.6720  -15.2070 O.2   167  THR167     -0.2863
     41  CB        49.1590  -52.8990  -13.9870 C.3   167  THR167      0.1794
     42  OG1       50.4970  -53.3860  -13.8430 O.3   167  THR167     -0.2208
     43  CG2       48.6430  -53.3920  -15.3180 C.3   167  THR167      0.0378
     44  N         52.0760  -53.6740   -9.5960 N.3   186  ILE186     -0.1245
     45  CA        51.3930  -53.1370   -8.4220 C.3   186  ILE186      0.1561
     46  C         51.3260  -54.1930   -7.3280 C.2   186  ILE186      0.2260
     47  O         50.8450  -55.3090   -7.5630 O.2   186  ILE186     -0.2867
     48  CB        49.9790  -52.6340   -8.7450 C.3   186  ILE186      0.0252
     49  CG1       50.0390  -51.3380   -9.5520 C.3   186  ILE186      0.0019
     50  CG2       49.1830  -52.5050   -7.4590 C.3   186  ILE186      0.0019
     51  CD1       48.6800  -50.8280   -9.9240 C.3   186  ILE186      0.0001
     52  N         45.2800  -54.5520   -3.9840 N.3   190  GLY190     -0.1210
     53  CA        45.3920  -55.6980   -4.8620 C.3   190  GLY190      0.1956
     54  C         46.7950  -55.8480   -5.4410 C.2   190  GLY190      0.2613
     55  O         47.6760  -55.0340   -5.1920 O.2   190  GLY190     -0.2717
     56  N         46.9830  -56.8980   -6.2550 N.am  191  SER191     -0.1938
     57  CA        48.2420  -57.0860   -6.9780 C.3   191  SER191      0.2055
     58  C         48.0550  -57.6220   -8.4020 C.2   191  SER191      0.2643
     59  O         47.4110  -58.6540   -8.6010 O.2   191  SER191     -0.2714
     60  CB        49.1630  -58.0240   -6.2200 C.3   191  SER191      0.2130
     61  OG        50.3450  -58.2130   -6.9720 O.3   191  SER191     -0.2179
     62  N         48.7020  -56.9630   -9.3730 N.am  192  ASN192     -0.1971
     63  CA        48.6640  -57.3220  -10.7830 C.3   192  ASN192      0.1688
     64  C         49.9870  -56.8930  -11.4350 C.2   192  ASN192      0.2292
     65  O         50.8850  -56.3800  -10.7540 O.2   192  ASN192     -0.2864
     66  CB        47.4380  -56.6620  -11.4230 C.3   192  ASN192      0.1181
     67  CG        47.1730  -57.1390  -12.8300 C.2   192  ASN192      0.2629
     68  OD1       47.6510  -58.1920  -13.2490 O.2   192  ASN192     -0.2716
     69  ND2       46.3360  -56.4080  -13.5330 N.am  192  ASN192     -0.0877
     70  N         46.5220  -59.5040  -15.4610 N.3   217  GLU217     -0.1245
     71  CA        45.5740  -59.8510  -14.4040 C.3   217  GLU217      0.1567
     72  C         46.0270  -61.1190  -13.6580 C.2   217  GLU217      0.2260
     73  O         45.3100  -62.1210  -13.5940 O.2   217  GLU217     -0.2867
     74  CB        44.1590  -60.0180  -14.9780 C.3   217  GLU217      0.0388
     75  CG        43.4100  -58.7580  -15.3960 C.3   217  GLU217      0.1160
     76  CD        43.0810  -57.8160  -14.2440 C.2   217  GLU217      0.3649
     77  OE1       42.9330  -58.2930  -13.0990 O.co2 217  GLU217     -0.2457
     78  OE2       42.8820  -56.6040  -14.4820 O.co2 217  GLU217     -0.2457
     79  N         46.2620  -61.6370  -10.6380 N.3   219  GLY219     -0.1225
     80  CA        45.5520  -61.8830   -9.4040 C.3   219  GLY219      0.1811
     81  C         44.8480  -63.2190   -9.4160 C.2   219  GLY219      0.2280
     82  O         44.7240  -63.8760   -8.3680 O.2   219  GLY219     -0.2866
     83  N         34.4690  -62.8070   -2.5960 N.3   244  ASN244     -0.1240
     84  CA        34.6010  -63.3520   -3.9420 C.3   244  ASN244      0.1653
     85  C         35.2300  -64.7350   -3.8510 C.2   244  ASN244      0.2266
     86  O         36.2980  -64.9930   -4.4130 O.2   244  ASN244     -0.2867
     87  CB        35.4380  -62.4180   -4.8150 C.3   244  ASN244      0.1155
     88  CG        36.8940  -62.3210   -4.3620 C.2   244  ASN244      0.2627
     89  OD1       37.2510  -62.6740   -3.2220 O.2   244  ASN244     -0.2716
     90  ND2       37.7480  -61.8610   -5.2620 N.am  244  ASN244     -0.0877
     91  N         37.8180  -66.9580   -6.4620 N.3   247  LYS247     -0.1231
     92  CA        38.5080  -66.0920   -7.4090 C.3   247  LYS247      0.1693
     93  C         39.6830  -65.3740   -6.7400 C.2   247  LYS247      0.2591
     94  O         39.6640  -65.0950   -5.5370 O.2   247  LYS247     -0.2718
     95  CB        37.5780  -65.0210   -7.9720 C.3   247  LYS247      0.0285
     96  CG        36.3170  -65.4820   -8.6410 C.3   247  LYS247      0.0035
     97  CD        36.5500  -66.2230   -9.9490 C.3   247  LYS247      0.0206
     98  CE        35.2380  -66.3380  -10.7030 C.3   247  LYS247      0.1093
     99  NZ        34.2140  -67.1130   -9.9430 N.3   247  LYS247     -0.1314
    100  N         40.6980  -65.0590   -7.5490 N.am  248  GLN248     -0.1979
    101  CA        41.8390  -64.2300   -7.1470 C.3   248  GLN248      0.1601
    102  C         42.7500  -64.9330   -6.1340 C.2   248  GLN248      0.2287
    103  O         43.3410  -64.2930   -5.2630 O.2   248  GLN248     -0.2864
    104  CB        41.3500  -62.8840   -6.6090 C.3   248  GLN248      0.0394
    105  CG        40.5320  -62.0920   -7.6230 C.3   248  GLN248      0.0908
    106  CD        41.3390  -61.6530   -8.8660 C.2   248  GLN248      0.2608
    107  OE1       41.3110  -62.3190   -9.9090 O.2   248  GLN248     -0.2717
    108  NE2       42.0220  -60.5170   -8.7650 N.am  248  GLN248     -0.0878
    109  N         46.1980  -63.4660   -5.7400 N.3   251  GLU251     -0.1245
    110  CA        46.1830  -62.1390   -5.1530 C.3   251  GLU251      0.1567
    111  C         46.0060  -62.2320   -3.6490 C.2   251  GLU251      0.2260
    112  O         46.5870  -61.4410   -2.8960 O.2   251  GLU251     -0.2867
    113  CB        45.0580  -61.3100   -5.7570 C.3   251  GLU251      0.0388
    114  CG        45.2110  -59.8330   -5.5420 C.3   251  GLU251      0.1160
    115  CD        44.0180  -59.0530   -6.0300 C.2   251  GLU251      0.3649
    116  OE1       42.9420  -59.6520   -6.1760 O.co2 251  GLU251     -0.2457
    117  OE2       44.1620  -57.8580   -6.3460 O.co2 251  GLU251     -0.2457
@<TRIPOS>BOND
     1    20    18    1
     2    21    22    1
     3    14    15    1
     4    25    22    1
     5    25    26    1
     6    18    15    1
     7    18    19    1
     8    22    23    1
     9    15    16    1
    10    24    23    2
    11     9    10    2
    12     9     8    1
    13    23    29   am
    14    70    71    1
    15    75    74    1
    16    75    76    1
    17    43    41    1
    18    26    28   am
    19    26    27    2
    20    40    39    2
    21    39    38    1
    22    74    71    1
    23     8    11    1
    24     8     7    1
    25    16    17    2
    26    78    76   ar
    27    71    72    1
    28    76    77   ar
    29    29    30    1
    30    11    12    1
    31    41    38    1
    32    41    42    1
    33    38    37    1
    34    37    31   am
    35    72    73    2
    36    69    67   am
    37     7    13    1
    38    31    30    1
    39    31    32    2
    40    30    33    1
    41    68    67    2
    42    12    13    1
    43    67    66    1
    44     1     2    1
    45    35    34   ar
    46    33    34    1
    47     4     3    2
    48     3     2    1
    49    64    63    1
    50    64    65    2
    51    66    63    1
    52     2     5    1
    53    34    36   ar
    54    63    62    1
    55    98    97    1
    56    98    99    1
    57    79    80    1
    58    97    96    1
    59     5     6    1
    60    51    49    1
    61   107   106    2
    62    44    45    1
    63    49    48    1
    64    81    80    1
    65    81    82    2
    66    62    58   am
    67   106   108   am
    68   106   105    1
    69    48    45    1
    70    48    50    1
    71    96    95    1
    72    59    58    2
    73    45    46    1
    74    58    57    1
    75    95    92    1
    76   105   104    1
    77    47    46    2
    78   100   101    1
    79   100    93   am
    80    92    93    1
    81    92    91    1
    82   101   104    1
    83   101   102    1
    84    57    56    1
    85    57    60    1
    86    61    60    1
    87    93    94    2
    88   117   115   ar
    89    56    54   am
    90   116   115   ar
    91   102   103    2
    92   115   114    1
    93   113   114    1
    94   113   110    1
    95   109   110    1
    96    54    55    2
    97    54    53    1
    98    90    88   am
    99   110   111    1
   100    53    52    1
   101    87    88    1
   102    87    84    1
   103    86    85    2
   104    88    89    2
   105    84    85    1
   106    84    83    1
   107   111   112    2
