@<TRIPOS>MOLECULE
tmp/5hg5A00.pdb
 170 161 0 0 0
SMALL
GASTEIGER

@<TRIPOS>ATOM
      1  N         16.7710   -5.7480  -38.7270 N.3    19  LEU19      -0.1231
      2  CA        16.9900   -5.3020  -37.3570 C.3    19  LEU19       0.1693
      3  C         17.2720   -6.4880  -36.4410 C.2    19  LEU19       0.2592
      4  O         18.0760   -6.3910  -35.5170 O.2    19  LEU19      -0.2718
      5  CB        15.7620   -4.5460  -36.8410 C.3    19  LEU19       0.0284
      6  CG        15.4670   -3.1820  -37.4670 C.3    19  LEU19       0.0019
      7  CD1       14.1050   -2.6870  -36.9920 C.3    19  LEU19       0.0001
      8  CD2       16.5620   -2.1980  -37.0880 C.3    19  LEU19       0.0001
      9  N         16.6020   -7.6050  -36.7010 N.am   20  GLY20      -0.1957
     10  CA        16.7840   -8.7820  -35.8720 C.3    20  GLY20       0.1869
     11  C         16.0040   -9.9710  -36.3930 C.2    20  GLY20       0.2309
     12  O         15.2330   -9.8470  -37.3470 O.2    20  GLY20      -0.2863
     13  N         12.6770   -9.3640  -38.5010 N.3    27  VAL27      -0.1245
     14  CA        12.1290   -8.0150  -38.4440 C.3    27  VAL27       0.1561
     15  C         13.0510   -7.0310  -39.1550 C.2    27  VAL27       0.2260
     16  O         14.2650   -7.0440  -38.9480 O.2    27  VAL27      -0.2867
     17  CB        11.9150   -7.5670  -36.9810 C.3    27  VAL27       0.0252
     18  CG1       13.2020   -7.7300  -36.2050 C.3    27  VAL27       0.0019
     19  CG2       11.4350   -6.1200  -36.9360 C.3    27  VAL27       0.0019
     20  N          8.3290   -0.8740  -38.8720 N.3    44  ALA44      -0.1245
     21  CA         9.0190   -2.1410  -38.6750 C.3    44  ALA44       0.1562
     22  C          8.2190   -3.2180  -39.3880 C.2    44  ALA44       0.2260
     23  O          7.0050   -3.3160  -39.2120 O.2    44  ALA44      -0.2867
     24  CB         9.1170   -2.4600  -37.1900 C.3    44  ALA44       0.0290
     25  N          7.7140   -7.2280  -39.9490 N.3    46  LYS46      -0.1245
     26  CA         7.9930   -8.5950  -39.5330 C.3    46  LYS46       0.1561
     27  C          7.5610   -9.5630  -40.6240 C.2    46  LYS46       0.2260
     28  O          6.3740   -9.6890  -40.9190 O.2    46  LYS46      -0.2867
     29  CB         7.2560   -8.9260  -38.2310 C.3    46  LYS46       0.0271
     30  CG         7.6720   -8.0660  -37.0520 C.3    46  LYS46       0.0035
     31  CD         7.2860   -8.7110  -35.7250 C.3    46  LYS46       0.0206
     32  CE         5.7800   -8.7130  -35.5300 C.3    46  LYS46       0.1093
     33  NZ         5.3840   -9.1660  -34.1640 N.3    46  LYS46      -0.1314
     34  N          2.5790   -1.8160  -28.8500 N.3    76  CYS76      -0.1235
     35  CA         3.0020   -1.5150  -30.2130 C.3    76  CYS76       0.1677
     36  C          1.9500   -2.0210  -31.2040 C.2    76  CYS76       0.2270
     37  O          1.5400   -3.1790  -31.1520 O.2    76  CYS76      -0.2867
     38  CB         4.3590   -2.1660  -30.4850 C.3    76  CYS76       0.0956
     39  SG         5.1210   -1.7070  -32.0630 S.3    76  CYS76      -0.0801
     40  N          4.4020   -2.9210  -38.6520 N.3    91  MET91      -0.1230
     41  CA         4.2310   -2.4540  -37.2790 C.3    91  MET91       0.1702
     42  C          4.7110   -1.0140  -37.1300 C.2    91  MET91       0.2592
     43  O          5.4630   -0.5090  -37.9620 O.2    91  MET91      -0.2718
     44  CB         5.0400   -3.3350  -36.3230 C.3    91  MET91       0.0401
     45  CG         4.8540   -4.8250  -36.5210 C.3    91  MET91       0.0596
     46  SD         3.2390   -5.3820  -35.9710 S.3    91  MET91      -0.1393
     47  CE         3.2650   -4.8820  -34.2610 C.3    91  MET91       0.0692
     48  N          4.2900   -0.3570  -36.0540 N.am   92  GLN92      -0.1966
     49  CA         4.9080    0.9070  -35.6740 C.3    92  GLN92       0.1733
     50  C          6.3890    0.6680  -35.4000 C.2    92  GLN92       0.2616
     51  O          6.7540   -0.2760  -34.6930 O.2    92  GLN92      -0.2715
     52  CB         4.2500    1.4680  -34.4080 C.3    92  GLN92       0.0408
     53  CG         2.7810    1.8260  -34.5700 C.3    92  GLN92       0.0908
     54  CD         2.1310    2.2350  -33.2600 C.2    92  GLN92       0.2608
     55  OE1        2.3670    1.6240  -32.2130 O.2    92  GLN92      -0.2717
     56  NE2        1.3030    3.2750  -33.3120 N.am   92  GLN92      -0.0878
     57  N          7.2400    1.5220  -35.9570 N.am   93  LEU93      -0.1963
     58  CA         8.6620    1.4730  -35.6480 C.3    93  LEU93       0.1728
     59  C          8.9090    2.1350  -34.2950 C.2    93  LEU93       0.2616
     60  O          8.4940    3.2690  -34.0600 O.2    93  LEU93      -0.2715
     61  CB         9.4690    2.1990  -36.7260 C.3    93  LEU93       0.0311
     62  CG        10.9850    2.2470  -36.5050 C.3    93  LEU93       0.0022
     63  CD1       11.5640    0.8440  -36.5750 C.3    93  LEU93       0.0001
     64  CD2       11.6240    3.1360  -37.5640 C.3    93  LEU93       0.0001
     65  N          9.5780    1.4110  -33.4070 N.am   94  MET94      -0.1964
     66  CA        10.0230    1.9730  -32.1380 C.3    94  MET94       0.1722
     67  C         11.5020    2.3210  -32.2790 C.2    94  MET94       0.2458
     68  O         12.3620    1.4520  -32.2040 O.2    94  MET94      -0.2730
     69  CB         9.8130    0.9510  -31.0180 C.3    94  MET94       0.0427
     70  CG         8.3560    0.5210  -30.8530 C.3    94  MET94       0.0599
     71  SD         7.3200    1.8350  -30.1650 S.3    94  MET94      -0.1393
     72  CE         6.4680    2.4400  -31.6540 C.3    94  MET94       0.0692
     73  N         11.8080    3.6090  -32.4950 N.am   95  PRO95      -0.2716
     74  CA        13.1310    4.0240  -32.9780 C.3    95  PRO95       0.1536
     75  C         14.3140    3.6820  -32.0780 C.2    95  PRO95       0.2599
     76  O         15.4430    3.5840  -32.5580 O.2    95  PRO95      -0.2715
     77  CB        12.9870    5.5350  -33.1720 C.3    95  PRO95       0.0310
     78  CG        11.5220    5.7540  -33.3520 C.3    95  PRO95       0.0237
     79  CD        10.8650    4.7390  -32.4540 C.3    95  PRO95       0.0939
     80  N         14.0660    3.5050  -30.7830 N.am   96  PHE96      -0.1960
     81  CA        15.1580    3.3060  -29.8330 C.3    96  PHE96       0.1771
     82  C         15.4090    1.8500  -29.4400 C.2    96  PHE96       0.2620
     83  O         16.2980    1.5710  -28.6330 O.2    96  PHE96      -0.2715
     84  CB        14.9190    4.1450  -28.5730 C.3    96  PHE96       0.0574
     85  CG        15.0120    5.6280  -28.8060 C.ar   96  PHE96      -0.0200
     86  CD1       13.9240    6.3400  -29.2810 C.ar   96  PHE96      -0.0042
     87  CD2       16.1940    6.3100  -28.5520 C.ar   96  PHE96      -0.0042
     88  CE1       14.0070    7.7070  -29.5000 C.ar   96  PHE96      -0.0003
     89  CE2       16.2840    7.6750  -28.7680 C.ar   96  PHE96      -0.0003
     90  CZ        15.1900    8.3730  -29.2430 C.ar   96  PHE96      -0.0000
     91  N         14.6400    0.9220  -30.0060 N.am   97  GLY97      -0.1940
     92  CA        14.8910   -0.4880  -29.7500 C.3    97  GLY97       0.2014
     93  C         14.3080   -0.9720  -28.4340 C.2    97  GLY97       0.2639
     94  O         13.3960   -0.3480  -27.8970 O.2    97  GLY97      -0.2714
     95  N         14.8200   -2.0800  -27.9060 N.am   98  CYS98      -0.1967
     96  CA        14.2190   -2.6590  -26.7080 C.3    98  CYS98       0.1712
     97  C         14.6490   -1.9380  -25.4350 C.2    98  CYS98       0.2296
     98  O         15.7470   -1.3730  -25.3490 O.2    98  CYS98      -0.2864
     99  CB        14.5430   -4.1570  -26.5920 C.3    98  CYS98       0.0983
    100  SG        16.2940   -4.4460  -26.3620 S.3    98  CYS98      -0.0798
    101  N         15.2930   -3.1880  -22.4840 N.3   100  LEU100     -0.1231
    102  CA        16.3890   -3.8590  -21.7980 C.3   100  LEU100      0.1693
    103  C         17.7260   -3.2490  -22.2070 C.2   100  LEU100      0.2592
    104  O         18.5180   -2.8490  -21.3570 O.2   100  LEU100     -0.2718
    105  CB        16.3930   -5.3550  -22.1160 C.3   100  LEU100      0.0284
    106  CG        17.5580   -6.1260  -21.4800 C.3   100  LEU100      0.0019
    107  CD1       17.4820   -6.0090  -19.9640 C.3   100  LEU100      0.0001
    108  CD2       17.5110   -7.5830  -21.9090 C.3   100  LEU100      0.0001
    109  N         17.9790   -3.1690  -23.5080 N.am  101  ASP101     -0.1974
    110  CA        19.2580   -2.6490  -23.9750 C.3   101  ASP101      0.1709
    111  C         19.3940   -1.1590  -23.6830 C.2   101  ASP101      0.2293
    112  O         20.4920   -0.6680  -23.4150 O.2   101  ASP101     -0.2864
    113  CB        19.4210   -2.9050  -25.4740 C.3   101  ASP101      0.1436
    114  CG        19.7130   -4.3590  -25.7880 C.2   101  ASP101      0.3671
    115  OD1       19.9010   -4.6840  -26.9790 O.co2 101  ASP101     -0.2456
    116  OD2       19.7580   -5.1780  -24.8450 O.co2 101  ASP101     -0.2456
    117  N         22.4630    0.5560  -21.6230 N.3   105  GLU105     -0.1245
    118  CA        23.3070    1.5380  -22.2930 C.3   105  GLU105      0.1567
    119  C         23.3090    2.8840  -21.5780 C.2   105  GLU105      0.2260
    120  O         24.3300    3.5680  -21.5430 O.2   105  GLU105     -0.2867
    121  CB        22.8480    1.7320  -23.7430 C.3   105  GLU105      0.0388
    122  CG        22.9750    0.4900  -24.6120 C.3   105  GLU105      0.1160
    123  CD        22.5490    0.7360  -26.0500 C.2   105  GLU105      0.3649
    124  OE1       22.4240    1.9170  -26.4440 O.co2 105  GLU105     -0.2457
    125  OE2       22.3410   -0.2520  -26.7870 O.co2 105  GLU105     -0.2457
    126  N         13.1190   -7.1980  -22.4820 N.3   142  ARG142     -0.1231
    127  CA        13.5080   -7.3520  -23.8860 C.3   142  ARG142      0.1694
    128  C         12.3200   -7.1710  -24.8330 C.2   142  ARG142      0.2592
    129  O         12.5050   -6.8590  -26.0100 O.2   142  ARG142     -0.2718
    130  CB        14.1350   -8.7330  -24.1280 C.3   142  ARG142      0.0321
    131  CG        13.1730   -9.8900  -23.9080 C.3   142  ARG142      0.0489
    132  CD        13.8530  -11.2440  -24.0350 C.3   142  ARG142      0.2205
    133  NE        12.9340  -12.3050  -23.6410 N.pl3 142  ARG142     -0.0865
    134  CZ        12.8910  -12.8390  -22.4250 C.cat 142  ARG142      0.5346
    135  NH1       13.7260  -12.4160  -21.4830 N.pl3 142  ARG142      0.1354
    136  NH2       11.9960  -13.7750  -22.1410 N.pl3 142  ARG142      0.1354
    137  N         11.1070   -7.3760  -24.3220 N.am  143  ASN143     -0.1974
    138  CA         9.9020   -7.2780  -25.1450 C.3   143  ASN143      0.1688
    139  C          9.0720   -6.0230  -24.8620 C.2   143  ASN143      0.2292
    140  O          7.8990   -5.9350  -25.2370 O.2   143  ASN143     -0.2864
    141  CB         9.0410   -8.5300  -24.9660 C.3   143  ASN143      0.1181
    142  CG         9.6800   -9.7580  -25.5850 C.2   143  ASN143      0.2629
    143  OD1        9.5260  -10.8770  -25.0880 O.2   143  ASN143     -0.2716
    144  ND2       10.4150   -9.5510  -26.6700 N.am  143  ASN143     -0.0877
    145  N          9.4310   -2.0690  -25.9030 N.3   145  LEU145     -0.1245
    146  CA        10.2010   -1.2930  -26.8680 C.3   145  LEU145      0.1561
    147  C         10.0700    0.1990  -26.5860 C.2   145  LEU145      0.2260
    148  O          9.1400    0.6320  -25.9100 O.2   145  LEU145     -0.2867
    149  CB         9.7360   -1.6040  -28.2980 C.3   145  LEU145      0.0270
    150  CG         9.8200   -3.0770  -28.7110 C.3   145  LEU145      0.0019
    151  CD1        9.4340   -3.2260  -30.1780 C.3   145  LEU145      0.0001
    152  CD2       11.2310   -3.5940  -28.4740 C.3   145  LEU145      0.0001
    153  N          5.4980   -5.2260  -26.8620 N.3   155  THR155     -0.1218
    154  CA         5.3450   -5.8600  -28.1630 C.3   155  THR155      0.1862
    155  C          5.1590   -7.3680  -28.0350 C.2   155  THR155      0.2287
    156  O          5.4440   -7.9580  -26.9940 O.2   155  THR155     -0.2866
    157  CB         6.5530   -5.5700  -29.0770 C.3   155  THR155      0.1770
    158  OG1        6.2410   -5.9730  -30.4170 O.3   155  THR155     -0.2211
    159  CG2        7.7790   -6.3330  -28.6010 C.3   155  THR155      0.0375
    160  N          5.7290  -11.1280  -30.1630 N.3   157  PHE157     -0.1241
    161  CA         6.3910  -11.8130  -31.2670 C.3   157  PHE157      0.1605
    162  C          5.7490  -13.1600  -31.5800 C.2   157  PHE157      0.2264
    163  O          6.3380  -13.9920  -32.2710 O.2   157  PHE157     -0.2867
    164  CB         7.8800  -11.9960  -30.9610 C.3   157  PHE157      0.0534
    165  CG         8.6910  -10.7390  -31.1310 C.ar  157  PHE157     -0.0203
    166  CD1        9.0790  -10.3160  -32.3930 C.ar  157  PHE157     -0.0042
    167  CD2        9.0500   -9.9720  -30.0320 C.ar  157  PHE157     -0.0042
    168  CE1        9.8070   -9.1520  -32.5560 C.ar  157  PHE157     -0.0003
    169  CE2        9.7800   -8.8040  -30.1910 C.ar  157  PHE157     -0.0003
    170  CZ        10.1570   -8.3950  -31.4560 C.ar  157  PHE157     -0.0000
@<TRIPOS>BOND
     1    28    27    2
     2    27    26    1
     3    25    26    1
     4    26    29    1
     5    22    23    2
     6    22    21    1
     7    15    16    2
     8    15    14    1
     9    20    21    1
    10     1     2    1
    11    21    24    1
    12    40    41    1
    13    13    14    1
    14    14    17    1
    15    29    30    1
    16    43    42    2
    17    64    62    1
    18     6     8    1
    19     6     7    1
    20     6     5    1
    21     2     5    1
    22     2     3    1
    23    12    11    2
    24    41    42    1
    25    41    44    1
    26    42    48   am
    27    30    31    1
    28    17    19    1
    29    17    18    1
    30    61    62    1
    31    61    58    1
    32     9     3   am
    33     9    10    1
    34    63    62    1
    35    45    44    1
    36    45    46    1
    37     3     4    2
    38    11    10    1
    39    48    49    1
    40    46    47    1
    41    57    58    1
    42    57    50   am
    43    31    32    1
    44    49    50    1
    45    49    52    1
    46    58    59    1
    47    32    33    1
    48    50    51    2
    49    53    52    1
    50    53    54    1
    51    59    60    2
    52    59    65   am
    53    65    66    1
    54    78    77    1
    55    78    79    1
    56    56    54   am
    57    54    55    2
    58    77    74    1
    59    74    73    1
    60    74    75    1
    61    76    75    2
    62   168   166   ar
    63   168   170   ar
    64    73    79    1
    65    73    67   am
    66   166   165   ar
    67    67    68    2
    68    67    66    1
    69   163   162    2
    70    66    69    1
    71    75    80   am
    72    39    38    1
    73    72    71    1
    74   162   161    1
    75   170   169   ar
    76   161   164    1
    77   161   160    1
    78    36    37    2
    79    36    35    1
    80   165   164    1
    81   165   167   ar
    82    69    70    1
    83    70    71    1
    84    80    81    1
    85    38    35    1
    86   158   157    1
    87    35    34    1
    88   169   167   ar
    89   151   150    1
    90    91    92    1
    91    91    82   am
    92    81    82    1
    93    81    84    1
    94    92    93    1
    95    88    86   ar
    96    88    90   ar
    97    82    83    2
    98    86    85   ar
    99    90    89   ar
   100   157   159    1
   101   157   154    1
   102    85    84    1
   103    85    87   ar
   104    89    87   ar
   105   150   152    1
   106   150   149    1
   107    93    95   am
   108    93    94    2
   109   149   146    1
   110   154   155    1
   111   154   153    1
   112   155   156    2
   113    95    96    1
   114   115   114   ar
   115   146   147    1
   116   146   145    1
   117   125   123   ar
   118    96    99    1
   119    96    97    1
   120   144   142   am
   121    99   100    1
   122   147   148    2
   123   124   123   ar
   124   123   122    1
   125   129   128    2
   126   114   113    1
   127   114   116   ar
   128   142   143    2
   129   142   141    1
   130   113   110    1
   131    97    98    2
   132   140   139    2
   133   138   141    1
   134   138   139    1
   135   138   137    1
   136   128   137   am
   137   128   127    1
   138   122   121    1
   139   130   131    1
   140   130   127    1
   141   132   131    1
   142   132   133    1
   143   110   111    1
   144   110   109    1
   145   127   126    1
   146   121   118    1
   147   111   112    2
   148   133   134    2
   149   109   103   am
   150   101   102    1
   151   134   136    1
   152   134   135    1
   153   118   117    1
   154   118   119    1
   155   103   102    1
   156   103   104    2
   157   105   102    1
   158   105   106    1
   159   108   106    1
   160   119   120    2
   161   106   107    1
