@<TRIPOS>MOLECULE
tmp/5hg7A00.pdb
 187 178 0 0 0
SMALL
GASTEIGER

@<TRIPOS>ATOM
      1  N        -21.7170   13.0570  -35.1850 N.3    15  LYS15      -0.1245
      2  CA       -22.2320   13.4360  -33.8760 C.3    15  LYS15       0.1561
      3  C        -21.3570   14.5070  -33.2320 C.2    15  LYS15       0.2260
      4  O        -20.1340   14.4870  -33.3740 O.2    15  LYS15      -0.2867
      5  CB       -22.2860   12.1950  -32.9810 C.3    15  LYS15       0.0271
      6  CG       -22.7900   12.4330  -31.5780 C.3    15  LYS15       0.0035
      7  CD       -22.7210   11.1470  -30.7720 C.3    15  LYS15       0.0206
      8  CE       -23.2890   11.3320  -29.3770 C.3    15  LYS15       0.1093
      9  NZ       -23.1040   10.1070  -28.5540 N.3    15  LYS15      -0.1314
     10  N        -19.3970   16.2380  -30.3040 N.3    17  LEU17      -0.1231
     11  CA       -18.7350   15.7870  -29.0860 C.3    17  LEU17       0.1693
     12  C        -18.5580   16.9370  -28.0940 C.2    17  LEU17       0.2593
     13  O        -18.5910   16.7340  -26.8760 O.2    17  LEU17      -0.2718
     14  CB       -17.3730   15.1730  -29.4280 C.3    17  LEU17       0.0284
     15  CG       -17.4110   13.8950  -30.2740 C.3    17  LEU17       0.0019
     16  CD1      -15.9970   13.4340  -30.5810 C.3    17  LEU17       0.0001
     17  CD2      -18.1760   12.8050  -29.5290 C.3    17  LEU17       0.0001
     18  N        -18.3730   18.1430  -28.6200 N.am   18  GLY18      -0.1942
     19  CA       -18.1940   19.3050  -27.7660 C.3    18  GLY18       0.2014
     20  C        -18.0110   20.5650  -28.5880 C.2    18  GLY18       0.2639
     21  O        -17.9640   20.5040  -29.8180 O.2    18  GLY18      -0.2714
     22  N        -17.9030   21.7100  -27.9180 N.am   19  SER19      -0.1949
     23  CA       -17.8220   22.9860  -28.6200 C.3    19  SER19       0.1924
     24  C        -17.3600   24.0970  -27.6890 C.2    19  SER19       0.2314
     25  O        -17.3070   23.9200  -26.4720 O.2    19  SER19      -0.2863
     26  CB       -19.1880   23.3570  -29.1990 C.3    19  SER19       0.2116
     27  OG       -20.0920   23.6990  -28.1640 O.3    19  SER19      -0.2180
     28  N        -13.5820   28.2650  -29.6790 N.3    22  PHE22      -0.1241
     29  CA       -12.6850   27.7500  -30.7080 C.3    22  PHE22       0.1605
     30  C        -13.4590   27.1930  -31.8960 C.2    22  PHE22       0.2264
     31  O        -13.0130   27.2870  -33.0380 O.2    22  PHE22      -0.2867
     32  CB       -11.7990   26.6460  -30.1280 C.3    22  PHE22       0.0534
     33  CG       -12.5380   25.3660  -29.8410 C.ar   22  PHE22      -0.0203
     34  CD1      -12.6330   24.3740  -30.8050 C.ar   22  PHE22      -0.0042
     35  CD2      -13.1480   25.1620  -28.6160 C.ar   22  PHE22      -0.0042
     36  CE1      -13.3230   23.2030  -30.5510 C.ar   22  PHE22      -0.0003
     37  CE2      -13.8410   23.9900  -28.3560 C.ar   22  PHE22      -0.0003
     38  CZ       -13.9270   23.0110  -29.3270 C.ar   22  PHE22      -0.0000
     39  N        -16.3490   20.2250  -31.9870 N.3    25  VAL25      -0.1245
     40  CA       -15.7290   18.9350  -32.2830 C.3    25  VAL25       0.1561
     41  C        -16.7900   17.8720  -32.5420 C.2    25  VAL25       0.2260
     42  O        -17.7260   17.7170  -31.7530 O.2    25  VAL25      -0.2867
     43  CB       -14.8350   18.4470  -31.1220 C.3    25  VAL25       0.0252
     44  CG1      -14.2060   17.1000  -31.4830 C.3    25  VAL25       0.0019
     45  CG2      -13.7560   19.4690  -30.8260 C.3    25  VAL25       0.0019
     46  N        -11.9590   12.4630  -34.6840 N.3    42  ALA42      -0.1245
     47  CA       -12.6430   13.6020  -34.0970 C.3    42  ALA42       0.1562
     48  C        -12.3480   14.7960  -34.9860 C.2    42  ALA42       0.2260
     49  O        -11.1860   15.1390  -35.2080 O.2    42  ALA42      -0.2867
     50  CB       -12.1310   13.8540  -32.6940 C.3    42  ALA42       0.0290
     51  N        -12.4650   18.7200  -35.7580 N.3    44  LYS44      -0.1245
     52  CA       -12.5740   20.0220  -35.1200 C.3    44  LYS44       0.1561
     53  C        -12.7840   21.0920  -36.1840 C.2    44  LYS44       0.2260
     54  O        -11.8680   21.4180  -36.9380 O.2    44  LYS44      -0.2867
     55  CB       -11.3040   20.3190  -34.3130 C.3    44  LYS44       0.0271
     56  CG       -11.3940   21.5500  -33.4290 C.3    44  LYS44       0.0035
     57  CD       -10.3980   21.4820  -32.2720 C.3    44  LYS44       0.0206
     58  CE        -8.9590   21.4500  -32.7720 C.3    44  LYS44       0.1093
     59  NZ        -7.9700   21.4170  -31.6530 N.3    44  LYS44      -0.1314
     60  N         -2.5750   13.9940  -28.3190 N.3    71  CYS71      -0.1235
     61  CA        -3.5330   13.6290  -29.3480 C.3    71  CYS71       0.1677
     62  C         -3.0620   14.1640  -30.6960 C.2    71  CYS71       0.2270
     63  O         -2.7550   15.3440  -30.8280 O.2    71  CYS71      -0.2867
     64  CB        -4.9020   14.2080  -29.0010 C.3    71  CYS71       0.0956
     65  SG        -6.2430   13.5810  -30.0120 S.3    71  CYS71      -0.0801
     66  N         -8.5610   14.9210  -36.2200 N.3    86  MET86      -0.1230
     67  CA        -7.7190   14.4090  -35.1540 C.3    86  MET86       0.1702
     68  C         -8.0940   12.9840  -34.7700 C.2    86  MET86       0.2592
     69  O         -9.1630   12.4850  -35.1350 O.2    86  MET86      -0.2718
     70  CB        -7.8240   15.3200  -33.9350 C.3    86  MET86       0.0401
     71  CG        -7.3710   16.7540  -34.2020 C.3    86  MET86       0.0596
     72  SD        -7.8970   17.8530  -32.8890 S.3    86  MET86      -0.1393
     73  CE        -9.6770   17.6280  -32.9620 C.3    86  MET86       0.0692
     74  N         -7.2010   12.3340  -34.0340 N.am   87  GLN87      -0.1966
     75  CA        -7.4730   11.0150  -33.4900 C.3    87  GLN87       0.1733
     76  C         -8.6840   11.0830  -32.5720 C.2    87  GLN87       0.2616
     77  O         -8.8260   12.0230  -31.7820 O.2    87  GLN87      -0.2715
     78  CB        -6.2710   10.5110  -32.6940 C.3    87  GLN87       0.0408
     79  CG        -5.0120   10.2910  -33.5170 C.3    87  GLN87       0.0908
     80  CD        -3.8570    9.8180  -32.6640 C.2    87  GLN87       0.2608
     81  OE1       -3.5950   10.3730  -31.5970 O.2    87  GLN87      -0.2717
     82  NE2       -3.1580    8.7860  -33.1260 N.am   87  GLN87      -0.0878
     83  N         -9.5550   10.0850  -32.6840 N.am   88  LEU88      -0.1963
     84  CA       -10.7180    9.9880  -31.8130 C.3    88  LEU88       0.1728
     85  C        -10.3340    9.2390  -30.5410 C.2    88  LEU88       0.2616
     86  O         -9.8840    8.0960  -30.5960 O.2    88  LEU88      -0.2715
     87  CB       -11.8470    9.2440  -32.5310 C.3    88  LEU88       0.0311
     88  CG       -13.1470    9.0370  -31.7560 C.3    88  LEU88       0.0022
     89  CD1      -13.8110   10.3820  -31.4950 C.3    88  LEU88       0.0001
     90  CD2      -14.0690    8.1290  -32.5520 C.3    88  LEU88       0.0001
     91  N        -10.5050    9.8890  -29.3950 N.am   89  MET89      -0.1964
     92  CA       -10.2710    9.2350  -28.1120 C.3    89  MET89       0.1722
     93  C        -11.5920    8.6820  -27.6000 C.2    89  MET89       0.2458
     94  O        -12.4720    9.4330  -27.2030 O.2    89  MET89      -0.2730
     95  CB        -9.6970   10.2370  -27.1070 C.3    89  MET89       0.0427
     96  CG        -8.3150   10.7730  -27.4770 C.3    89  MET89       0.0599
     97  SD        -7.0620    9.4740  -27.5180 S.3    89  MET89      -0.1393
     98  CE        -6.9550    9.1460  -29.2890 C.3    89  MET89       0.0692
     99  N        -11.7380    7.3510  -27.5920 N.am   90  PRO90      -0.2716
    100  CA       -13.0230    6.6930  -27.3360 C.3    90  PRO90       0.1536
    101  C        -13.7420    7.0820  -26.0440 C.2    90  PRO90       0.2599
    102  O        -14.9690    7.1030  -26.0090 O.2    90  PRO90      -0.2715
    103  CB       -12.6730    5.2070  -27.3750 C.3    90  PRO90       0.0310
    104  CG       -11.4880    5.1410  -28.2820 C.3    90  PRO90       0.0237
    105  CD       -10.6930    6.3780  -27.9530 C.3    90  PRO90       0.0939
    106  N        -12.9920    7.3970  -24.9910 N.am   91  PHE91      -0.1960
    107  CA       -13.5970    7.5900  -23.6740 C.3    91  PHE91       0.1771
    108  C        -13.7590    9.0400  -23.2100 C.2    91  PHE91       0.2620
    109  O        -14.0520    9.2800  -22.0420 O.2    91  PHE91      -0.2715
    110  CB       -12.8110    6.8110  -22.6150 C.3    91  PHE91       0.0574
    111  CG       -12.9800    5.3220  -22.7090 C.ar   91  PHE91      -0.0200
    112  CD1      -12.1040    4.5570  -23.4620 C.ar   91  PHE91      -0.0042
    113  CD2      -14.0190    4.6850  -22.0460 C.ar   91  PHE91      -0.0042
    114  CE1      -12.2620    3.1850  -23.5530 C.ar   91  PHE91      -0.0003
    115  CE2      -14.1820    3.3120  -22.1340 C.ar   91  PHE91      -0.0003
    116  CZ       -13.3030    2.5620  -22.8880 C.ar   91  PHE91      -0.0000
    117  N        -13.5670   10.0010  -24.1090 N.am   92  GLY92      -0.1940
    118  CA       -13.8490   11.3900  -23.7700 C.3    92  GLY92       0.2014
    119  C        -12.7730   12.0700  -22.9410 C.2    92  GLY92       0.2639
    120  O        -11.6570   11.5600  -22.8240 O.2    92  GLY92      -0.2714
    121  N        -13.1010   13.2210  -22.3550 N.am   93  CYS93      -0.1967
    122  CA       -12.1180   13.9560  -21.5720 C.3    93  CYS93       0.1712
    123  C        -11.9430   13.3220  -20.1980 C.2    93  CYS93       0.2296
    124  O        -12.8710   12.7230  -19.6490 O.2    93  CYS93      -0.2864
    125  CB       -12.5160   15.4330  -21.4300 C.3    93  CYS93       0.0983
    126  SG       -13.9110   15.6590  -20.3080 S.3    93  CYS93      -0.0798
    127  N        -11.4780   14.6630  -17.2680 N.3    95  LEU95      -0.1231
    128  CA       -12.2470   15.2680  -16.1800 C.3    95  LEU95       0.1693
    129  C        -13.5700   14.5290  -15.9980 C.2    95  LEU95       0.2592
    130  O        -13.9070   14.0940  -14.8920 O.2    95  LEU95      -0.2718
    131  CB       -12.5200   16.7510  -16.4610 C.3    95  LEU95       0.0284
    132  CG       -13.4270   17.4410  -15.4310 C.3    95  LEU95       0.0019
    133  CD1      -12.7370   17.4180  -14.0750 C.3    95  LEU95       0.0001
    134  CD2      -13.7170   18.8830  -15.8470 C.3    95  LEU95       0.0001
    135  N        -14.3140   14.3700  -17.0860 N.am   96  ASP96      -0.1974
    136  CA       -15.6080   13.6940  -17.0100 C.3    96  ASP96       0.1709
    137  C        -15.4310   12.2350  -16.6290 C.2    96  ASP96       0.2293
    138  O        -16.2750   11.6650  -15.9390 O.2    96  ASP96      -0.2864
    139  CB       -16.3410   13.7790  -18.3470 C.3    96  ASP96       0.1436
    140  CG       -16.8620   15.1660  -18.6350 C.2    96  ASP96       0.3671
    141  OD1      -17.2690   15.4200  -19.7870 O.co2  96  ASP96      -0.2456
    142  OD2      -16.8660   16.0010  -17.7100 O.co2  96  ASP96      -0.2456
    143  N         -9.8060   18.8560  -18.1580 N.3   137  ARG137     -0.1231
    144  CA       -10.7930   18.9230  -19.2340 C.3   137  ARG137      0.1694
    145  C        -10.1240   18.8120  -20.6030 C.2   137  ARG137      0.2592
    146  O        -10.7800   18.5010  -21.5950 O.2   137  ARG137     -0.2718
    147  CB       -11.5860   20.2310  -19.1590 C.3   137  ARG137      0.0321
    148  CG       -10.7310   21.4700  -19.3540 C.3   137  ARG137      0.0489
    149  CD       -11.5630   22.7400  -19.4060 C.3   137  ARG137      0.2205
    150  NE       -10.6990   23.9110  -19.4970 N.pl3 137  ARG137     -0.0865
    151  CZ       -10.1500   24.5110  -18.4450 C.cat 137  ARG137      0.5346
    152  NH1      -10.3850   24.0540  -17.2230 N.pl3 137  ARG137      0.1354
    153  NH2       -9.3440   25.5500  -18.6160 N.pl3 137  ARG137      0.1354
    154  N         -8.8160   19.0610  -20.6470 N.am  138  ASN138     -0.1974
    155  CA        -8.0710   19.0520  -21.9020 C.3   138  ASN138      0.1688
    156  C         -7.1290   17.8550  -22.0240 C.2   138  ASN138      0.2292
    157  O         -6.2070   17.8540  -22.8410 O.2   138  ASN138     -0.2864
    158  CB        -7.2880   20.3630  -22.0530 C.3   138  ASN138      0.1181
    159  CG        -8.2000   21.5640  -22.2160 C.2   138  ASN138      0.2629
    160  OD1       -7.8930   22.6700  -21.7590 O.2   138  ASN138     -0.2716
    161  ND2       -9.3330   21.3500  -22.8660 N.am  138  ASN138     -0.0877
    162  N         -7.4490   13.6920  -22.7510 N.3   140  LEU140     -0.1245
    163  CA        -8.4250   12.7690  -23.3250 C.3   140  LEU140      0.1561
    164  C         -8.0570   11.3370  -22.9880 C.2   140  LEU140      0.2260
    165  O         -6.9000   11.0330  -22.6980 O.2   140  LEU140     -0.2867
    166  CB        -8.4760   12.9350  -24.8450 C.3   140  LEU140      0.0270
    167  CG        -8.7430   14.3620  -25.3200 C.3   140  LEU140      0.0019
    168  CD1       -8.7330   14.3950  -26.8400 C.3   140  LEU140      0.0001
    169  CD2      -10.0770   14.8450  -24.7820 C.3   140  LEU140      0.0001
    170  N         -4.5670   17.2700  -25.3260 N.3   150  THR150     -0.1218
    171  CA        -4.9370   17.9450  -26.5600 C.3   150  THR150      0.1862
    172  C         -4.9330   19.4600  -26.3890 C.2   150  THR150      0.2287
    173  O         -4.7420   19.9760  -25.2840 O.2   150  THR150     -0.2866
    174  CB        -6.3210   17.4800  -27.0690 C.3   150  THR150      0.1770
    175  OG1       -6.4800   17.8780  -28.4360 O.3   150  THR150     -0.2211
    176  CG2       -7.4380   18.0980  -26.2430 C.3   150  THR150      0.0375
    177  N         -6.6100   23.3170  -27.7770 N.3   152  PHE152     -0.1241
    178  CA        -7.7190   23.9810  -28.4450 C.3   152  PHE152      0.1605
    179  C         -7.3660   25.3770  -28.9310 C.2   152  PHE152      0.2264
    180  O         -8.2490   26.1980  -29.2040 O.2   152  PHE152     -0.2867
    181  CB        -8.9360   24.0180  -27.5230 C.3   152  PHE152      0.0534
    182  CG        -9.5720   22.6720  -27.3260 C.ar  152  PHE152     -0.0203
    183  CD1      -10.4390   22.1570  -28.2780 C.ar  152  PHE152     -0.0042
    184  CD2       -9.2810   21.9100  -26.2090 C.ar  152  PHE152     -0.0042
    185  CE1      -11.0010   20.9080  -28.1180 C.ar  152  PHE152     -0.0003
    186  CE2       -9.8420   20.6550  -26.0430 C.ar  152  PHE152     -0.0003
    187  CZ       -10.7010   20.1540  -26.9970 C.ar  152  PHE152     -0.0000
@<TRIPOS>BOND
     1    54    53    2
     2    66    67    1
     3    53    52    1
     4    51    52    1
     5    49    48    2
     6     1     2    1
     7    67    68    1
     8    67    70    1
     9    69    68    2
    10    52    55    1
    11    48    47    1
    12    68    74   am
    13    46    47    1
    14    55    56    1
    15    71    70    1
    16    71    72    1
    17    47    50    1
    18    74    75    1
    19     2     3    1
    20     2     5    1
    21    79    78    1
    22    79    80    1
    23    75    78    1
    24    75    76    1
    25    56    57    1
    26     4     3    2
    27    82    80   am
    28    31    30    2
    29     5     6    1
    30    73    72    1
    31    58    57    1
    32    58    59    1
    33    83    76   am
    34    83    84    1
    35    80    81    2
    36    76    77    2
    37    90    88    1
    38    41    40    1
    39    41    42    2
    40    87    84    1
    41    87    88    1
    42    40    39    1
    43    40    43    1
    44    30    29    1
    45    84    85    1
    46    88    89    1
    47     6     7    1
    48    44    43    1
    49    43    45    1
    50    63    62    2
    51    34    36   ar
    52    34    33   ar
    53     7     8    1
    54    29    32    1
    55    29    28    1
    56    62    61    1
    57    86    85    2
    58    16    15    1
    59    36    38   ar
    60    85    91   am
    61    10    11    1
    62    15    17    1
    63    15    14    1
    64    32    33    1
    65    65    64    1
    66    33    35   ar
    67    21    20    2
    68    14    11    1
    69    91    92    1
    70     8     9    1
    71    61    64    1
    72    61    60    1
    73    38    37   ar
    74    98    97    1
    75   180   179    2
    76    26    23    1
    77    26    27    1
    78    11    12    1
    79   179   178    1
    80    18    12   am
    81    18    19    1
    82    23    22    1
    83    23    24    1
    84    35    37   ar
    85    20    22   am
    86    20    19    1
    87   178   177    1
    88   178   181    1
    89   175   174    1
    90   104   105    1
    91   104   103    1
    92   183   185   ar
    93   183   182   ar
    94   185   187   ar
    95    92    93    1
    96    92    95    1
    97    12    13    2
    98   105    99    1
    99    24    25    2
   100    93    99   am
   101    93    94    2
   102    99   100    1
   103   181   182    1
   104    97    96    1
   105    96    95    1
   106   103   100    1
   107   100   101    1
   108   182   184   ar
   109   174   171    1
   110   174   176    1
   111   187   186   ar
   112   168   167    1
   113   171   172    1
   114   171   170    1
   115   172   173    2
   116   184   186   ar
   117   101   102    2
   118   101   106   am
   119   167   166    1
   120   167   169    1
   121   106   107    1
   122   166   163    1
   123   117   118    1
   124   117   108   am
   125   118   119    1
   126   107   108    1
   127   107   110    1
   128   114   112   ar
   129   114   116   ar
   130   112   111   ar
   131   163   164    1
   132   163   162    1
   133   108   109    2
   134   164   165    2
   135   119   120    2
   136   119   121   am
   137   116   115   ar
   138   161   159   am
   139   157   156    2
   140   111   110    1
   141   111   113   ar
   142   121   122    1
   143   159   158    1
   144   159   160    2
   145   115   113   ar
   146   158   155    1
   147   156   155    1
   148   155   154    1
   149   146   145    2
   150   122   125    1
   151   122   123    1
   152   125   126    1
   153   154   145   am
   154   145   144    1
   155   123   124    2
   156   141   140   ar
   157   150   149    1
   158   150   151    2
   159   149   148    1
   160   148   147    1
   161   144   147    1
   162   144   143    1
   163   140   139    1
   164   140   142   ar
   165   153   151    1
   166   151   152    1
   167   139   136    1
   168   127   128    1
   169   135   136    1
   170   135   129   am
   171   136   137    1
   172   137   138    2
   173   131   128    1
   174   131   132    1
   175   128   129    1
   176   129   130    2
   177   134   132    1
   178   132   133    1
