@<TRIPOS>MOLECULE
tmp/5hg8A00.pdb
 161 153 0 0 0
SMALL
GASTEIGER

@<TRIPOS>ATOM
      1  N         16.7390   -5.6900  -38.7290 N.3    19  LEU19      -0.1231
      2  CA        16.9470   -5.2530  -37.3550 C.3    19  LEU19       0.1693
      3  C         17.2490   -6.4550  -36.4680 C.2    19  LEU19       0.2592
      4  O         18.0850   -6.3790  -35.5730 O.2    19  LEU19      -0.2718
      5  CB        15.7060   -4.5190  -36.8320 C.3    19  LEU19       0.0284
      6  CG        15.4030   -3.1430  -37.4340 C.3    19  LEU19       0.0019
      7  CD1       14.0450   -2.6560  -36.9510 C.3    19  LEU19       0.0001
      8  CD2       16.4970   -2.1590  -37.0470 C.3    19  LEU19       0.0001
      9  N         16.5660   -7.5660  -36.7200 N.am   20  GLY20      -0.1957
     10  CA        16.8000   -8.7610  -35.9290 C.3    20  GLY20       0.1869
     11  C         16.0240   -9.9540  -36.4470 C.2    20  GLY20       0.2309
     12  O         15.2610   -9.8330  -37.4060 O.2    20  GLY20      -0.2863
     13  N         12.6730   -9.3400  -38.4940 N.3    27  VAL27      -0.1245
     14  CA        12.1530   -7.9760  -38.3940 C.3    27  VAL27       0.1561
     15  C         13.0630   -7.0110  -39.1440 C.2    27  VAL27       0.2260
     16  O         14.2760   -7.0130  -38.9470 O.2    27  VAL27      -0.2867
     17  CB        12.0520   -7.5100  -36.9210 C.3    27  VAL27       0.0252
     18  CG1       11.5240   -6.0820  -36.8600 C.3    27  VAL27       0.0019
     19  CG2       11.1450   -8.4380  -36.1410 C.3    27  VAL27       0.0019
     20  N          8.3590   -0.9160  -38.7830 N.3    44  ALA44      -0.1245
     21  CA         9.0580   -2.1790  -38.6020 C.3    44  ALA44       0.1562
     22  C          8.2610   -3.2370  -39.3470 C.2    44  ALA44       0.2260
     23  O          7.0400   -3.3020  -39.2240 O.2    44  ALA44      -0.2867
     24  CB         9.1460   -2.5320  -37.1190 C.3    44  ALA44       0.0290
     25  N          7.7520   -7.2480  -39.9620 N.3    46  LYS46      -0.1245
     26  CA         8.0390   -8.6110  -39.5400 C.3    46  LYS46       0.1561
     27  C          7.5930   -9.5840  -40.6160 C.2    46  LYS46       0.2260
     28  O          6.3980   -9.7220  -40.8820 O.2    46  LYS46      -0.2867
     29  CB         7.3160   -8.9320  -38.2280 C.3    46  LYS46       0.0271
     30  CG         7.7540   -8.0820  -37.0500 C.3    46  LYS46       0.0035
     31  CD         7.5020   -8.7880  -35.7240 C.3    46  LYS46       0.0206
     32  CE         6.0230   -9.0510  -35.5070 C.3    46  LYS46       0.1093
     33  NZ         5.7150   -9.3220  -34.0730 N.3    46  LYS46      -0.1314
     34  N          2.6290   -1.9820  -28.8100 N.3    76  CYS76      -0.1235
     35  CA         3.0670   -1.6860  -30.1700 C.3    76  CYS76       0.1677
     36  C          2.0210   -2.1880  -31.1620 C.2    76  CYS76       0.2270
     37  O          1.6390   -3.3540  -31.1290 O.2    76  CYS76      -0.2867
     38  CB         4.4200   -2.3540  -30.4400 C.3    76  CYS76       0.0956
     39  SG         5.2230   -1.8420  -31.9850 S.3    76  CYS76      -0.0801
     40  N          4.4100   -2.9430  -38.6090 N.3    91  MET91      -0.1230
     41  CA         4.2490   -2.5120  -37.2240 C.3    91  MET91       0.1702
     42  C          4.7570   -1.0860  -37.0460 C.2    91  MET91       0.2592
     43  O          5.5080   -0.5770  -37.8770 O.2    91  MET91      -0.2718
     44  CB         5.0470   -3.4300  -36.2930 C.3    91  MET91       0.0401
     45  CG         4.8290   -4.9100  -36.5220 C.3    91  MET91       0.0596
     46  SD         3.2320   -5.4710  -35.9220 S.3    91  MET91      -0.1393
     47  CE         3.3330   -5.0150  -34.1910 C.3    91  MET91       0.0692
     48  N          4.3590   -0.4450  -35.9530 N.am   92  GLN92      -0.1966
     49  CA         4.9950    0.8000  -35.5540 C.3    92  GLN92       0.1733
     50  C          6.4710    0.5350  -35.2830 C.2    92  GLN92       0.2616
     51  O          6.8190   -0.4290  -34.5980 O.2    92  GLN92      -0.2715
     52  CB         4.3360    1.3570  -34.2880 C.3    92  GLN92       0.0408
     53  CG         2.8690    1.7210  -34.4600 C.3    92  GLN92       0.0908
     54  CD         2.2030    2.0760  -33.1460 C.2    92  GLN92       0.2608
     55  OE1        2.4490    1.4390  -32.1200 O.2    92  GLN92      -0.2717
     56  NE2        1.3520    3.1000  -33.1700 N.am   92  GLN92      -0.0878
     57  N          7.3300    1.3880  -35.8350 N.am   93  LEU93      -0.1963
     58  CA         8.7620    1.3290  -35.5620 C.3    93  LEU93       0.1728
     59  C          9.0590    2.0190  -34.2360 C.2    93  LEU93       0.2616
     60  O          8.6490    3.1550  -34.0100 O.2    93  LEU93      -0.2715
     61  CB         9.5490    2.0220  -36.6790 C.3    93  LEU93       0.0311
     62  CG        11.0650    2.0960  -36.4710 C.3    93  LEU93       0.0022
     63  CD1       11.6630    0.7000  -36.5510 C.3    93  LEU93       0.0001
     64  CD2       11.6820    3.0060  -37.5270 C.3    93  LEU93       0.0001
     65  N          9.7750    1.3230  -33.3600 N.am   94  MET94      -0.1964
     66  CA        10.2180    1.9190  -32.1070 C.3    94  MET94       0.1722
     67  C         11.6870    2.2980  -32.2620 C.2    94  MET94       0.2458
     68  O         12.5620    1.4370  -32.2360 O.2    94  MET94      -0.2730
     69  CB        10.0410    0.9160  -30.9660 C.3    94  MET94       0.0427
     70  CG         8.6010    0.4610  -30.7680 C.3    94  MET94       0.0599
     71  SD         7.5300    1.7730  -30.1420 S.3    94  MET94      -0.1393
     72  CE         6.6940    2.3020  -31.6580 C.3    94  MET94       0.0692
     73  N         11.9720    3.5960  -32.4370 N.am   95  PRO95      -0.2716
     74  CA        13.3020    4.0190  -32.8900 C.3    95  PRO95       0.1536
     75  C         14.4510    3.6440  -31.9590 C.2    95  PRO95       0.2599
     76  O         15.5820    3.4600  -32.4090 O.2    95  PRO95      -0.2715
     77  CB        13.1670    5.5340  -33.0400 C.3    95  PRO95       0.0310
     78  CG        11.7050    5.7660  -33.2310 C.3    95  PRO95       0.0237
     79  CD        11.0330    4.7290  -32.3740 C.3    95  PRO95       0.0939
     80  N         14.1620    3.5270  -30.6680 N.am   96  PHE96      -0.1960
     81  CA        15.2160    3.3510  -29.6740 C.3    96  PHE96       0.1771
     82  C         15.4460    1.9040  -29.2420 C.2    96  PHE96       0.2620
     83  O         16.2410    1.6450  -28.3370 O.2    96  PHE96      -0.2715
     84  CB        14.9230    4.2190  -28.4480 C.3    96  PHE96       0.0574
     85  CG        15.0190    5.6960  -28.7140 C.ar   96  PHE96      -0.0200
     86  CD1       13.9040    6.4180  -29.1060 C.ar   96  PHE96      -0.0042
     87  CD2       16.2280    6.3610  -28.5750 C.ar   96  PHE96      -0.0042
     88  CE1       13.9880    7.7770  -29.3560 C.ar   96  PHE96      -0.0003
     89  CE2       16.3210    7.7210  -28.8230 C.ar   96  PHE96      -0.0003
     90  CZ        15.1990    8.4300  -29.2150 C.ar   96  PHE96      -0.0000
     91  N         14.7580    0.9630  -29.8810 N.am   97  GLY97      -0.1940
     92  CA        15.0220   -0.4440  -29.6180 C.3    97  GLY97       0.2014
     93  C         14.3810   -0.9500  -28.3380 C.2    97  GLY97       0.2639
     94  O         13.4300   -0.3470  -27.8350 O.2    97  GLY97      -0.2714
     95  N         14.8960   -2.0550  -27.8040 N.am   98  CYS98      -0.1967
     96  CA        14.2890   -2.6540  -26.6220 C.3    98  CYS98       0.1712
     97  C         14.7360   -1.9580  -25.3420 C.2    98  CYS98       0.2296
     98  O         15.8400   -1.4120  -25.2570 O.2    98  CYS98      -0.2864
     99  CB        14.6090   -4.1530  -26.5370 C.3    98  CYS98       0.0983
    100  SG        16.3610   -4.4480  -26.2780 S.3    98  CYS98      -0.0798
    101  N         15.4000   -3.2220  -22.4210 N.3   100  LEU100     -0.1231
    102  CA        16.5020   -3.8970  -21.7360 C.3   100  LEU100      0.1693
    103  C         17.8400   -3.2910  -22.1440 C.2   100  LEU100      0.2592
    104  O         18.6330   -2.8880  -21.2940 O.2   100  LEU100     -0.2718
    105  CB        16.5080   -5.3950  -22.0530 C.3   100  LEU100      0.0284
    106  CG        17.6720   -6.1810  -21.4340 C.3   100  LEU100      0.0019
    107  CD1       17.6360   -6.0490  -19.9180 C.3   100  LEU100      0.0001
    108  CD2       17.5810   -7.6400  -21.8500 C.3   100  LEU100      0.0001
    109  N         18.0870   -3.2200  -23.4470 N.am  101  ASP101     -0.1974
    110  CA        19.3460   -2.6760  -23.9410 C.3   101  ASP101      0.1709
    111  C         19.4490   -1.1880  -23.6290 C.2   101  ASP101      0.2293
    112  O         20.5320   -0.6770  -23.3460 O.2   101  ASP101     -0.2864
    113  CB        19.4690   -2.8940  -25.4510 C.3   101  ASP101      0.1436
    114  CG        19.7590   -4.3400  -25.8140 C.2   101  ASP101      0.3671
    115  OD1       19.9070   -4.6250  -27.0210 O.co2 101  ASP101     -0.2456
    116  OD2       19.8410   -5.1900  -24.9020 O.co2 101  ASP101     -0.2456
    117  N         13.2100   -7.1880  -22.4490 N.3   142  ARG142     -0.1231
    118  CA        13.5830   -7.3400  -23.8540 C.3   142  ARG142      0.1694
    119  C         12.3790   -7.1630  -24.7800 C.2   142  ARG142      0.2592
    120  O         12.5430   -6.8360  -25.9560 O.2   142  ARG142     -0.2718
    121  CB        14.2170   -8.7160  -24.1050 C.3   142  ARG142      0.0321
    122  CG        13.2850   -9.8800  -23.8300 C.3   142  ARG142      0.0489
    123  CD        13.9390  -11.2300  -24.0940 C.3   142  ARG142      0.2205
    124  NE        13.0300  -12.2970  -23.6970 N.pl3 142  ARG142     -0.0865
    125  CZ        12.9950  -12.8250  -22.4770 C.cat 142  ARG142      0.5346
    126  NH1       13.8330  -12.3930  -21.5430 N.pl3 142  ARG142      0.1354
    127  NH2       12.0990  -13.7540  -22.1780 N.pl3 142  ARG142      0.1354
    128  N         11.1730   -7.3770  -24.2570 N.am  143  ASN143     -0.1974
    129  CA         9.9710   -7.3110  -25.0840 C.3   143  ASN143      0.1688
    130  C          9.1320   -6.0660  -24.8120 C.2   143  ASN143      0.2292
    131  O          7.9620   -5.9930  -25.1930 O.2   143  ASN143     -0.2864
    132  CB         9.1260   -8.5740  -24.8940 C.3   143  ASN143      0.1181
    133  CG         9.7820   -9.8040  -25.4950 C.2   143  ASN143      0.2629
    134  OD1        9.6310  -10.9190  -24.9910 O.2   143  ASN143     -0.2716
    135  ND2       10.5180   -9.6040  -26.5770 N.am  143  ASN143     -0.0877
    136  N          9.4950   -2.1210  -25.8780 N.3   145  LEU145     -0.1245
    137  CA        10.2780   -1.3390  -26.8250 C.3   145  LEU145      0.1561
    138  C         10.1390    0.1480  -26.5370 C.2   145  LEU145      0.2260
    139  O          9.1990    0.5810  -25.8690 O.2   145  LEU145     -0.2867
    140  CB         9.8390   -1.6420  -28.2610 C.3   145  LEU145      0.0270
    141  CG         9.9180   -3.1090  -28.6910 C.3   145  LEU145      0.0019
    142  CD1        9.5620   -3.2170  -30.1630 C.3   145  LEU145      0.0001
    143  CD2       11.3150   -3.6640  -28.4380 C.3   145  LEU145      0.0001
    144  N          5.6240   -5.2910  -26.8230 N.3   155  THR155     -0.1218
    145  CA         5.4980   -5.9520  -28.1150 C.3   155  THR155      0.1862
    146  C          5.2820   -7.4540  -27.9380 C.2   155  THR155      0.2287
    147  O          5.4340   -7.9900  -26.8400 O.2   155  THR155     -0.2866
    148  CB         6.7510   -5.7220  -28.9930 C.3   155  THR155      0.1770
    149  OG1        6.4570   -6.0820  -30.3490 O.3   155  THR155     -0.2211
    150  CG2        7.9140   -6.5730  -28.5000 C.3   155  THR155      0.0375
    151  N          5.9610  -11.3100  -30.0590 N.3   157  PHE157     -0.1241
    152  CA         6.6020  -12.0080  -31.1690 C.3   157  PHE157      0.1605
    153  C          5.9860  -13.3720  -31.4490 C.2   157  PHE157      0.2264
    154  O          6.6080  -14.2290  -32.0780 O.2   157  PHE157     -0.2867
    155  CB         8.1000  -12.1550  -30.9060 C.3   157  PHE157      0.0534
    156  CG         8.8650  -10.8770  -31.0800 C.ar  157  PHE157     -0.0203
    157  CD1        9.2360  -10.4450  -32.3440 C.ar  157  PHE157     -0.0042
    158  CD2        9.1920  -10.0970  -29.9860 C.ar  157  PHE157     -0.0042
    159  CE1        9.9180   -9.2560  -32.5130 C.ar  157  PHE157     -0.0003
    160  CE2        9.8760   -8.9050  -30.1480 C.ar  157  PHE157     -0.0003
    161  CZ        10.2380   -8.4850  -31.4130 C.ar  157  PHE157     -0.0000
@<TRIPOS>BOND
     1    28    27    2
     2    27    26    1
     3    25    26    1
     4    26    29    1
     5    22    23    2
     6    22    21    1
     7    15    16    2
     8    15    14    1
     9    20    21    1
    10     1     2    1
    11    40    41    1
    12    21    24    1
    13    13    14    1
    14    14    17    1
    15    29    30    1
    16    43    42    2
    17    64    62    1
    18     6     8    1
    19     6     7    1
    20     6     5    1
    21    12    11    2
    22     2     5    1
    23     2     3    1
    24    41    42    1
    25    41    44    1
    26    30    31    1
    27    42    48   am
    28    17    18    1
    29    17    19    1
    30     9     3   am
    31     9    10    1
    32    61    62    1
    33    61    58    1
    34    63    62    1
    35    45    44    1
    36    45    46    1
    37     3     4    2
    38    11    10    1
    39    48    49    1
    40    46    47    1
    41    57    58    1
    42    57    50   am
    43    31    32    1
    44    58    59    1
    45    49    50    1
    46    49    52    1
    47    32    33    1
    48    50    51    2
    49    53    52    1
    50    53    54    1
    51    59    60    2
    52    59    65   am
    53    65    66    1
    54    78    77    1
    55    78    79    1
    56    56    54   am
    57    54    55    2
    58    77    74    1
    59    74    73    1
    60    74    75    1
    61   159   157   ar
    62   159   161   ar
    63    73    79    1
    64    73    67   am
    65    76    75    2
    66   157   156   ar
    67    67    68    2
    68    67    66    1
    69    66    69    1
    70   154   153    2
    71    39    38    1
    72    75    80   am
    73    72    71    1
    74   153   152    1
    75   161   160   ar
    76   152   155    1
    77   152   151    1
    78    36    37    2
    79    36    35    1
    80   156   155    1
    81   156   158   ar
    82    69    70    1
    83    70    71    1
    84    80    81    1
    85    38    35    1
    86   149   148    1
    87    35    34    1
    88   142   141    1
    89   160   158   ar
    90    91    92    1
    91    91    82   am
    92    81    82    1
    93    81    84    1
    94    92    93    1
    95    88    90   ar
    96    88    86   ar
    97    82    83    2
    98    90    89   ar
    99    86    85   ar
   100   148   150    1
   101   148   145    1
   102    89    87   ar
   103    85    87   ar
   104    85    84    1
   105   141   143    1
   106   141   140    1
   107    93    94    2
   108    93    95   am
   109   140   137    1
   110   145   146    1
   111   145   144    1
   112   146   147    2
   113    95    96    1
   114   115   114   ar
   115   137   138    1
   116   137   136    1
   117    96    99    1
   118    96    97    1
   119   135   133   am
   120   138   139    2
   121    99   100    1
   122   120   119    2
   123   114   113    1
   124   114   116   ar
   125   133   134    2
   126   133   132    1
   127   113   110    1
   128    97    98    2
   129   131   130    2
   130   129   132    1
   131   129   130    1
   132   129   128    1
   133   119   128   am
   134   119   118    1
   135   121   118    1
   136   121   122    1
   137   123   122    1
   138   123   124    1
   139   110   111    1
   140   110   109    1
   141   118   117    1
   142   124   125    2
   143   111   112    2
   144   109   103   am
   145   125   127    1
   146   125   126    1
   147   101   102    1
   148   103   102    1
   149   103   104    2
   150   105   102    1
   151   105   106    1
   152   108   106    1
   153   106   107    1
