@<TRIPOS>MOLECULE
tmp/5hg9A00.pdb
 169 162 0 0 0
SMALL
GASTEIGER

@<TRIPOS>ATOM
      1  N        -19.4090   16.3320  -30.5360 N.3    17  LEU17      -0.1231
      2  CA       -18.7220   15.8800  -29.3310 C.3    17  LEU17       0.1693
      3  C        -18.4870   17.0470  -28.3770 C.2    17  LEU17       0.2593
      4  O        -18.0520   16.8550  -27.2410 O.2    17  LEU17      -0.2718
      5  CB       -17.3780   15.2410  -29.6950 C.3    17  LEU17       0.0284
      6  CG       -17.4460   13.9190  -30.4610 C.3    17  LEU17       0.0019
      7  CD1      -16.0430   13.4800  -30.8560 C.3    17  LEU17       0.0001
      8  CD2      -18.1230   12.8620  -29.5920 C.3    17  LEU17       0.0001
      9  N        -18.7680   18.2580  -28.8460 N.am   18  GLY18      -0.1942
     10  CA       -18.5290   19.4340  -28.0290 C.3    18  GLY18       0.2014
     11  C        -18.2860   20.6730  -28.8650 C.2    18  GLY18       0.2639
     12  O        -18.2840   20.6120  -30.0940 O.2    18  GLY18      -0.2714
     13  N        -18.0790   21.8040  -28.1980 N.am   19  SER19      -0.1949
     14  CA       -17.9000   23.0710  -28.8950 C.3    19  SER19       0.1924
     15  C        -17.5020   24.1900  -27.9410 C.2    19  SER19       0.2314
     16  O        -17.6400   24.0630  -26.7230 O.2    19  SER19      -0.2863
     17  CB       -19.1900   23.4530  -29.6220 C.3    19  SER19       0.2116
     18  OG       -20.3010   23.3940  -28.7430 O.3    19  SER19      -0.2180
     19  N        -13.4210   28.2030  -29.9420 N.3    22  PHE22      -0.1241
     20  CA       -12.5720   27.7330  -31.0290 C.3    22  PHE22       0.1605
     21  C        -13.4130   27.2480  -32.2110 C.2    22  PHE22       0.2264
     22  O        -12.9720   27.2960  -33.3580 O.2    22  PHE22      -0.2867
     23  CB       -11.6880   26.5870  -30.5350 C.3    22  PHE22       0.0534
     24  CG       -12.4550   25.3430  -30.1980 C.ar   22  PHE22      -0.0203
     25  CD1      -12.7330   24.3990  -31.1750 C.ar   22  PHE22      -0.0042
     26  CD2      -12.9340   25.1350  -28.9160 C.ar   22  PHE22      -0.0042
     27  CE1      -13.4780   23.2740  -30.8780 C.ar   22  PHE22      -0.0003
     28  CE2      -13.6780   24.0130  -28.6150 C.ar   22  PHE22      -0.0003
     29  CZ       -13.9510   23.0830  -29.5970 C.ar   22  PHE22      -0.0000
     30  N        -16.3210   20.3730  -32.3110 N.3    25  VAL25      -0.1245
     31  CA       -15.6950   19.0800  -32.5660 C.3    25  VAL25       0.1561
     32  C        -16.7510   18.0160  -32.8370 C.2    25  VAL25       0.2260
     33  O        -17.6960   17.8520  -32.0570 O.2    25  VAL25      -0.2867
     34  CB       -14.8370   18.6180  -31.3590 C.3    25  VAL25       0.0252
     35  CG1      -14.2050   17.2620  -31.6570 C.3    25  VAL25       0.0019
     36  CG2      -13.7640   19.6500  -31.0550 C.3    25  VAL25       0.0019
     37  N        -11.8800   12.5820  -34.9330 N.3    42  ALA42      -0.1245
     38  CA       -12.5520   13.7560  -34.3920 C.3    42  ALA42       0.1562
     39  C        -12.2980   14.9330  -35.3190 C.2    42  ALA42       0.2260
     40  O        -11.1490   15.2770  -35.6000 O.2    42  ALA42      -0.2867
     41  CB       -12.0270   14.0670  -33.0010 C.3    42  ALA42       0.0290
     42  N         -2.4180   14.1720  -28.4600 N.3    70  CYS70      -0.1235
     43  CA        -3.3630   13.8250  -29.5050 C.3    70  CYS70       0.1677
     44  C         -2.8690   14.3960  -30.8310 C.2    70  CYS70       0.2270
     45  O         -2.5600   15.5820  -30.9370 O.2    70  CYS70      -0.2867
     46  CB        -4.7500   14.3840  -29.1710 C.3    70  CYS70       0.0956
     47  SG        -6.0670   13.7630  -30.2320 S.3    70  CYS70      -0.0801
     48  N         -8.3540   14.9730  -36.3970 N.3    85  MET85      -0.1230
     49  CA        -7.4810   14.5420  -35.3170 C.3    85  MET85       0.1702
     50  C         -7.8610   13.1370  -34.8820 C.2    85  MET85       0.2592
     51  O         -8.9540   12.6600  -35.1940 O.2    85  MET85      -0.2718
     52  CB        -7.6100   15.5050  -34.1390 C.3    85  MET85       0.0401
     53  CG        -7.5080   16.9690  -34.5420 C.3    85  MET85       0.0596
     54  SD        -8.0610   18.0940  -33.2530 S.3    85  MET85      -0.1393
     55  CE        -6.7150   17.9620  -32.0860 C.3    85  MET85       0.0692
     56  N         -6.9600   12.4710  -34.1670 N.am   86  GLN86      -0.1966
     57  CA        -7.2730   11.1600  -33.6230 C.3    86  GLN86       0.1733
     58  C         -8.4910   11.2860  -32.7170 C.2    86  GLN86       0.2616
     59  O         -8.5860   12.2210  -31.9160 O.2    86  GLN86      -0.2715
     60  CB        -6.0980   10.6160  -32.8100 C.3    86  GLN86       0.0408
     61  CG        -4.8350   10.3520  -33.6200 C.3    86  GLN86       0.0908
     62  CD        -3.6720    9.9320  -32.7440 C.2    86  GLN86       0.2608
     63  OE1       -3.4060   10.5450  -31.7070 O.2    86  GLN86      -0.2717
     64  NE2       -2.9730    8.8820  -33.1520 N.am   86  GLN86      -0.0878
     65  N         -9.4190   10.3470  -32.8510 N.am   87  LEU87      -0.1963
     66  CA       -10.5720   10.2870  -31.9690 C.3    87  LEU87       0.1728
     67  C        -10.1800    9.5940  -30.6720 C.2    87  LEU87       0.2616
     68  O         -9.6560    8.4770  -30.6910 O.2    87  LEU87      -0.2715
     69  CB       -11.7110    9.5080  -32.6310 C.3    87  LEU87       0.0311
     70  CG       -12.9600    9.3290  -31.7610 C.3    87  LEU87       0.0022
     71  CD1      -13.6660   10.6690  -31.5890 C.3    87  LEU87       0.0001
     72  CD2      -13.8930    8.3190  -32.4100 C.3    87  LEU87       0.0001
     73  N        -10.4330   10.2590  -29.5480 N.am   88  MET88      -0.1964
     74  CA       -10.2810    9.6260  -28.2440 C.3    88  MET88       0.1722
     75  C        -11.6420    9.1180  -27.7770 C.2    88  MET88       0.2458
     76  O        -12.5290    9.8980  -27.4400 O.2    88  MET88      -0.2730
     77  CB        -9.7150   10.6340  -27.2450 C.3    88  MET88       0.0427
     78  CG        -8.3590   11.2010  -27.6580 C.3    88  MET88       0.0599
     79  SD        -7.0340    9.9730  -27.5730 S.3    88  MET88      -0.1393
     80  CE        -6.9930    9.3650  -29.2670 C.3    88  MET88       0.0692
     81  N        -11.8210    7.7920  -27.7530 N.am   89  PRO89      -0.2716
     82  CA       -13.1450    7.1880  -27.5620 C.3    89  PRO89       0.1536
     83  C        -13.8480    7.5460  -26.2520 C.2    89  PRO89       0.2599
     84  O        -15.0750    7.6340  -26.2130 O.2    89  PRO89      -0.2715
     85  CB       -12.8730    5.6890  -27.6770 C.3    89  PRO89       0.0310
     86  CG       -11.6280    5.6030  -28.5140 C.3    89  PRO89       0.0237
     87  CD       -10.8010    6.7820  -28.0830 C.3    89  PRO89       0.0939
     88  N        -13.0800    7.7570  -25.1870 N.am   90  PHE90      -0.1960
     89  CA       -13.6660    7.9090  -23.8580 C.3    90  PHE90       0.1771
     90  C        -13.8540    9.3560  -23.3860 C.2    90  PHE90       0.2620
     91  O        -14.2460    9.5860  -22.2480 O.2    90  PHE90      -0.2715
     92  CB       -12.8330    7.1310  -22.8320 C.3    90  PHE90       0.0574
     93  CG       -12.9110    5.6410  -22.9990 C.ar   90  PHE90      -0.0200
     94  CD1      -12.1370    4.9940  -23.9490 C.ar   90  PHE90      -0.0042
     95  CD2      -13.7800    4.8870  -22.2250 C.ar   90  PHE90      -0.0042
     96  CE1      -12.2290    3.6210  -24.1280 C.ar   90  PHE90      -0.0003
     97  CE2      -13.8790    3.5150  -22.3970 C.ar   90  PHE90      -0.0003
     98  CZ       -13.1030    2.8810  -23.3500 C.ar   90  PHE90      -0.0000
     99  N        -13.5840   10.3280  -24.2510 N.am   91  GLY91      -0.1940
    100  CA       -13.8140   11.7170  -23.8770 C.3    91  GLY91       0.2014
    101  C        -12.6930   12.2990  -23.0320 C.2    91  GLY91       0.2639
    102  O        -11.5920   11.7430  -22.9920 O.2    91  GLY91      -0.2714
    103  N        -12.9650   13.4150  -22.3550 N.am   92  CYS92      -0.1967
    104  CA       -11.9440   14.0770  -21.5440 C.3    92  CYS92       0.1712
    105  C        -11.7720   13.3820  -20.1960 C.2    92  CYS92       0.2296
    106  O        -12.7160   12.8130  -19.6550 O.2    92  CYS92      -0.2864
    107  CB       -12.3010   15.5530  -21.3170 C.3    92  CYS92       0.0983
    108  SG       -13.8340   15.7330  -20.4000 S.3    92  CYS92      -0.0798
    109  N        -11.3620   14.6640  -17.3060 N.3    94  LEU94      -0.1231
    110  CA       -12.1380   15.3040  -16.2430 C.3    94  LEU94       0.1693
    111  C        -13.5020   14.6400  -16.0710 C.2    94  LEU94       0.2592
    112  O        -13.8830   14.2750  -14.9610 O.2    94  LEU94      -0.2718
    113  CB       -12.3390   16.7980  -16.5330 C.3    94  LEU94       0.0284
    114  CG       -13.2280   17.5020  -15.4970 C.3    94  LEU94       0.0019
    115  CD1      -12.5300   17.4670  -14.1330 C.3    94  LEU94       0.0001
    116  CD2      -13.5050   18.9320  -15.9160 C.3    94  LEU94       0.0001
    117  N        -14.2360   14.4800  -17.1680 N.am   95  ASP95      -0.1974
    118  CA       -15.5280   13.7960  -17.1090 C.3    95  ASP95       0.1709
    119  C        -15.3640   12.3400  -16.7000 C.2    95  ASP95       0.2293
    120  O        -16.1950   11.8000  -15.9710 O.2    95  ASP95      -0.2864
    121  CB       -16.2420   13.8560  -18.4620 C.3    95  ASP95       0.1436
    122  CG       -16.7910   15.2330  -18.7700 C.2    95  ASP95       0.3671
    123  OD1      -17.2080   15.4600  -19.9250 O.co2  95  ASP95      -0.2456
    124  OD2      -16.8030   16.0870  -17.8610 O.co2  95  ASP95      -0.2456
    125  N         -9.7510   18.8840  -18.2140 N.3   136  ARG136     -0.1231
    126  CA       -10.7410   18.9460  -19.2910 C.3   136  ARG136      0.1694
    127  C        -10.0810   18.8200  -20.6590 C.2   136  ARG136      0.2592
    128  O        -10.7340   18.4460  -21.6360 O.2   136  ARG136     -0.2718
    129  CB       -11.5190   20.2650  -19.2250 C.3   136  ARG136      0.0321
    130  CG       -10.6300   21.4950  -19.3800 C.3   136  ARG136      0.0489
    131  CD       -11.4110   22.8050  -19.3230 C.3   136  ARG136      0.2205
    132  NE       -10.4840   23.9330  -19.3510 N.pl3 136  ARG136     -0.0865
    133  CZ        -9.9760   24.5150  -18.2680 C.cat 136  ARG136      0.5346
    134  NH1      -10.3110   24.0880  -17.0570 N.pl3 136  ARG136      0.1354
    135  NH2       -9.1090   25.5060  -18.3970 N.pl3 136  ARG136      0.1354
    136  N         -8.7870   19.1380  -20.7250 N.am  137  ASN137     -0.1974
    137  CA        -8.0490   19.1130  -21.9870 C.3   137  ASN137      0.1688
    138  C         -7.0920   17.9300  -22.0870 C.2   137  ASN137      0.2292
    139  O         -6.1910   17.9160  -22.9340 O.2   137  ASN137     -0.2864
    140  CB        -7.2680   20.4180  -22.1800 C.3   137  ASN137      0.1181
    141  CG        -8.1790   21.6130  -22.3870 C.2   137  ASN137      0.2629
    142  OD1       -7.8860   22.7250  -21.9390 O.2   137  ASN137     -0.2716
    143  ND2       -9.2940   21.3880  -23.0600 N.am  137  ASN137     -0.0877
    144  N         -7.4380   13.9490  -22.8740 N.3   139  LEU139     -0.1245
    145  CA        -8.4260   13.0220  -23.4220 C.3   139  LEU139      0.1561
    146  C         -8.0550   11.5670  -23.1770 C.2   139  LEU139      0.2260
    147  O         -6.8900   11.2370  -22.9730 O.2   139  LEU139     -0.2867
    148  CB        -8.5880   13.2610  -24.9220 C.3   139  LEU139      0.0270
    149  CG        -8.8380   14.7320  -25.2530 C.3   139  LEU139      0.0019
    150  CD1       -9.1780   14.8780  -26.7220 C.3   139  LEU139      0.0001
    151  CD2       -9.9670   15.2650  -24.3760 C.3   139  LEU139      0.0001
    152  N         -4.4830   17.2900  -25.3590 N.3   149  THR149     -0.1218
    153  CA        -4.9260   17.9320  -26.5920 C.3   149  THR149      0.1862
    154  C         -4.8730   19.4520  -26.4540 C.2   149  THR149      0.2287
    155  O         -4.5720   19.9800  -25.3800 O.2   149  THR149     -0.2866
    156  CB        -6.3680   17.5080  -26.9740 C.3   149  THR149      0.1770
    157  OG1       -6.6590   17.9520  -28.3080 O.3   149  THR149     -0.2211
    158  CG2       -7.3810   18.1250  -26.0210 C.3   149  THR149      0.0375
    159  N         -6.7010   23.2850  -27.8830 N.3   151  PHE151     -0.1241
    160  CA        -7.7640   23.9840  -28.5890 C.3   151  PHE151      0.1605
    161  C         -7.3780   25.4170  -28.9480 C.2   151  PHE151      0.2264
    162  O         -8.2440   26.2810  -29.1060 O.2   151  PHE151     -0.2867
    163  CB        -9.0480   23.9640  -27.7540 C.3   151  PHE151      0.0534
    164  CG        -9.6710   22.5970  -27.6400 C.ar  151  PHE151     -0.0203
    165  CD1      -10.5050   22.1160  -28.6380 C.ar  151  PHE151     -0.0042
    166  CD2       -9.3960   21.7790  -26.5550 C.ar  151  PHE151     -0.0042
    167  CE1      -11.0470   20.8450  -28.5570 C.ar  151  PHE151     -0.0003
    168  CE2       -9.9360   20.5090  -26.4720 C.ar  151  PHE151     -0.0003
    169  CZ       -10.7620   20.0420  -27.4770 C.ar  151  PHE151     -0.0000
@<TRIPOS>BOND
     1    48    49    1
     2    40    39    2
     3    39    38    1
     4    49    50    1
     5    49    52    1
     6    51    50    2
     7    37    38    1
     8    50    56   am
     9    53    52    1
    10    53    54    1
    11    38    41    1
    12    56    57    1
    13    57    60    1
    14    57    58    1
    15    61    60    1
    16    61    62    1
    17    22    21    2
    18    54    55    1
    19    64    62   am
    20    65    58   am
    21    65    66    1
    22    32    31    1
    23    32    33    2
    24    62    63    2
    25    58    59    2
    26    69    66    1
    27    69    70    1
    28    31    30    1
    29    31    34    1
    30    72    70    1
    31    21    20    1
    32    66    67    1
    33    70    71    1
    34    35    34    1
    35    34    36    1
    36    25    27   ar
    37    25    24   ar
    38    20    23    1
    39    20    19    1
    40    45    44    2
    41    27    29   ar
    42     7     6    1
    43    44    43    1
    44    68    67    2
    45    67    73   am
    46     1     2    1
    47    23    24    1
    48     6     5    1
    49     6     8    1
    50    47    46    1
    51    24    26   ar
    52    12    11    2
    53     5     2    1
    54    17    14    1
    55    17    18    1
    56    29    28   ar
    57    73    74    1
    58    43    46    1
    59    43    42    1
    60     2     3    1
    61    80    79    1
    62   162   161    2
    63   161   160    1
    64    26    28   ar
    65    14    13    1
    66    14    15    1
    67    11    13   am
    68    11    10    1
    69     9     3   am
    70     9    10    1
    71   165   167   ar
    72   165   164   ar
    73   160   159    1
    74   160   163    1
    75   167   169   ar
    76    86    87    1
    77    86    85    1
    78     3     4    2
    79   157   156    1
    80    74    75    1
    81    74    77    1
    82    87    81    1
    83    15    16    2
    84    75    81   am
    85    75    76    2
    86   163   164    1
    87    81    82    1
    88    85    82    1
    89    78    79    1
    90    78    77    1
    91   164   166   ar
    92    82    83    1
    93   169   168   ar
    94   156   153    1
    95   156   158    1
    96   150   149    1
    97   153   154    1
    98   153   152    1
    99   166   168   ar
   100   154   155    2
   101    83    84    2
   102    83    88   am
   103   149   148    1
   104   149   151    1
   105    88    89    1
   106   148   145    1
   107    99   100    1
   108    99    90   am
   109    96    94   ar
   110    96    98   ar
   111    94    93   ar
   112   100   101    1
   113    89    90    1
   114    89    92    1
   115   145   146    1
   116   145   144    1
   117    90    91    2
   118    98    97   ar
   119   146   147    2
   120   143   141   am
   121   101   102    2
   122   101   103   am
   123    93    92    1
   124    93    95   ar
   125   139   138    2
   126    97    95   ar
   127   141   140    1
   128   141   142    2
   129   103   104    1
   130   140   137    1
   131   138   137    1
   132   137   136    1
   133   128   127    2
   134   104   107    1
   135   104   105    1
   136   107   108    1
   137   136   127   am
   138   127   126    1
   139   105   106    2
   140   123   122   ar
   141   130   131    1
   142   130   129    1
   143   132   131    1
   144   132   133    2
   145   126   129    1
   146   126   125    1
   147   122   121    1
   148   122   124   ar
   149   121   118    1
   150   135   133    1
   151   133   134    1
   152   109   110    1
   153   117   118    1
   154   117   111   am
   155   118   119    1
   156   119   120    2
   157   113   110    1
   158   113   114    1
   159   110   111    1
   160   111   112    2
   161   116   114    1
   162   114   115    1
