@<TRIPOS>MOLECULE
tmp/5hgcA00.pdb
 136 128 0 0 0
SMALL
GASTEIGER

@<TRIPOS>ATOM
      1  N         19.0040   60.7900   32.6740 N.3    12  VAL12      -0.1231
      2  CA        20.4070   60.4090   32.4590 C.3    12  VAL12       0.1678
      3  C         21.2330   61.4870   31.7320 C.2    12  VAL12       0.2434
      4  O         22.3560   61.8120   32.1670 O.2    12  VAL12      -0.2733
      5  CB        20.4950   58.9980   31.8450 C.3    12  VAL12       0.0265
      6  CG1       21.8760   58.7540   31.3310 C.3    12  VAL12       0.0020
      7  CG2       20.1240   57.9230   32.8610 C.3    12  VAL12       0.0020
      8  N         20.6820   62.0930   30.6650 N.am   13  PRO13      -0.2729
      9  CA        21.5340   63.1290   30.0410 C.3    13  PRO13       0.1401
     10  C         21.6170   64.4090   30.8720 C.2    13  PRO13       0.2269
     11  O         22.6880   65.0540   30.9600 O.2    13  PRO13      -0.2865
     12  CB        20.8680   63.4080   28.6870 C.3    13  PRO13       0.0296
     13  CG        19.7190   62.4670   28.5820 C.3    13  PRO13       0.0237
     14  CD        19.4380   61.8390   29.9070 C.3    13  PRO13       0.0939
     15  N         24.0380   64.0330   33.7570 N.3    16  ALA16      -0.1245
     16  CA        25.4340   64.0120   33.2610 C.3    16  ALA16       0.1562
     17  C         25.9060   65.3700   32.8470 C.2    16  ALA16       0.2260
     18  O         26.9970   65.7780   33.2280 O.2    16  ALA16      -0.2867
     19  CB        25.6120   62.9980   32.1380 C.3    16  ALA16       0.0290
     20  N         29.0810   67.3500   34.6630 N.3    20  PHE20      -0.1241
     21  CA        30.2650   67.9250   34.0410 C.3    20  PHE20       0.1605
     22  C         30.3750   69.4710   33.9560 C.2    20  PHE20       0.2264
     23  O         31.5020   69.9970   34.0770 O.2    20  PHE20      -0.2867
     24  CB        30.6520   67.1570   32.7640 C.3    20  PHE20       0.0534
     25  CG        30.9330   65.7050   33.0450 C.ar   20  PHE20      -0.0203
     26  CD1       32.0910   65.3310   33.7330 C.ar   20  PHE20      -0.0042
     27  CD2       29.9940   64.7290   32.7270 C.ar   20  PHE20      -0.0042
     28  CE1       32.3180   63.9950   34.0630 C.ar   20  PHE20      -0.0003
     29  CE2       30.2170   63.3940   33.0600 C.ar   20  PHE20      -0.0003
     30  CZ        31.3760   63.0190   33.7240 C.ar   20  PHE20      -0.0000
     31  N         38.9390   51.1000   32.7220 N.3   226  ARG226     -0.1245
     32  CA        37.6900   50.9450   33.4300 C.3   226  ARG226      0.1563
     33  C         37.6320   49.6300   34.2240 C.2   226  ARG226      0.2260
     34  O         37.8370   48.5580   33.6680 O.2   226  ARG226     -0.2867
     35  CB        36.5250   51.0450   32.4540 C.3   226  ARG226      0.0307
     36  CG        35.1820   50.8980   33.1320 C.3   226  ARG226      0.0489
     37  CD        34.7390   49.4500   33.0560 C.3   226  ARG226      0.2205
     38  NE        34.0560   49.2410   31.7830 N.pl3 226  ARG226     -0.0865
     39  CZ        32.8870   49.7820   31.4720 C.cat 226  ARG226      0.5346
     40  NH1       32.2320   50.5520   32.3660 N.pl3 226  ARG226      0.1354
     41  NH2       32.3770   49.5750   30.2790 N.pl3 226  ARG226      0.1354
     42  N         30.7820   51.1990   38.5170 N.3   234  THR234     -0.1218
     43  CA        31.9770   51.0100   37.7180 C.3   234  THR234      0.1862
     44  C         32.8770   52.2460   37.8370 C.2   234  THR234      0.2287
     45  O         32.3790   53.3540   38.0370 O.2   234  THR234     -0.2866
     46  CB        31.5550   50.7240   36.2440 C.3   234  THR234      0.1770
     47  OG1       32.6770   50.2250   35.5090 O.3   234  THR234     -0.2211
     48  CG2       30.9270   51.9710   35.5520 C.3   234  THR234      0.0375
     49  N         35.8600   54.6090   35.9540 N.3   236  PHE236     -0.1241
     50  CA        36.7540   55.0420   34.8150 C.3   236  PHE236      0.1605
     51  C         37.9380   55.7950   35.3740 C.2   236  PHE236      0.2264
     52  O         37.7480   56.7750   36.0960 O.2   236  PHE236     -0.2867
     53  CB        36.0480   56.0010   33.8600 C.3   236  PHE236      0.0534
     54  CG        35.0250   55.3350   32.9680 C.ar  236  PHE236     -0.0203
     55  CD1       33.9030   54.6250   33.5280 C.ar  236  PHE236     -0.0042
     56  CD2       35.1280   55.4400   31.5670 C.ar  236  PHE236     -0.0042
     57  CE1       32.9320   54.0220   32.7060 C.ar  236  PHE236     -0.0003
     58  CE2       34.1600   54.8330   30.7400 C.ar  236  PHE236     -0.0003
     59  CZ        33.0610   54.1380   31.3050 C.ar  236  PHE236     -0.0000
     60  N         29.6710   64.6910   28.6900 N.3   254  LYS254     -0.1245
     61  CA        29.1110   63.3650   28.6110 C.3   254  LYS254      0.1561
     62  C         29.3090   62.6710   27.2710 C.2   254  LYS254      0.2260
     63  O         29.1730   61.4480   27.1660 O.2   254  LYS254     -0.2867
     64  CB        27.6380   63.3920   28.9720 C.3   254  LYS254      0.0271
     65  CG        26.7620   64.1580   28.0180 C.3   254  LYS254      0.0035
     66  CD        25.3930   63.4840   27.9880 C.3   254  LYS254      0.0206
     67  CE        24.2850   64.5060   27.7830 C.3   254  LYS254      0.1093
     68  NZ        24.5670   65.5730   26.7680 N.3   254  LYS254     -0.1314
     69  N         32.5190   60.9040   27.5720 N.3   257  ILE257     -0.1231
     70  CA        32.2830   59.6650   28.3230 C.3   257  ILE257      0.1692
     71  C         31.7260   58.5800   27.3940 C.2   257  ILE257      0.2591
     72  O         32.2240   57.4560   27.4300 O.2   257  ILE257     -0.2718
     73  CB        31.4040   59.8400   29.5950 C.3   257  ILE257      0.0266
     74  CG1       31.9900   60.8890   30.5830 C.3   257  ILE257      0.0019
     75  CG2       31.2410   58.5060   30.2910 C.3   257  ILE257      0.0020
     76  CD1       33.4120   60.5950   31.0540 C.3   257  ILE257      0.0001
     77  N         30.7340   58.9320   26.5730 N.am  258  GLN258     -0.1979
     78  CA        30.0950   57.9850   25.6760 C.3   258  GLN258      0.1601
     79  C         31.0630   57.4590   24.6110 C.2   258  GLN258      0.2287
     80  O         31.0170   56.2690   24.2770 O.2   258  GLN258     -0.2864
     81  CB        28.8700   58.5790   24.9800 C.3   258  GLN258      0.0394
     82  CG        28.1690   57.5440   24.1040 C.3   258  GLN258      0.0908
     83  CD        26.6690   57.6520   24.1660 C.2   258  GLN258      0.2608
     84  OE1       26.0780   58.7540   23.9660 O.2   258  GLN258     -0.2717
     85  NE2       26.0180   56.5130   24.4630 N.am  258  GLN258     -0.0878
     86  N         33.2700   54.8260   26.4730 N.3   261  SER261     -0.1217
     87  CA        32.6740   53.5560   26.7740 C.3   261  SER261      0.1889
     88  C         32.2920   52.7930   25.4870 C.2   261  SER261      0.2288
     89  O         32.2970   51.5660   25.5020 O.2   261  SER261     -0.2866
     90  CB        31.5080   53.7250   27.7330 C.3   261  SER261      0.2089
     91  OG        30.5090   54.5350   27.1520 O.3   261  SER261     -0.2183
     92  N         30.4960   55.5430   38.2480 N.3   355  PHE355     -0.1227
     93  CA        29.1110   55.5350   37.7520 C.3   355  PHE355      0.1736
     94  C         28.3240   54.3060   38.2530 C.2   355  PHE355      0.2595
     95  O         28.9270   53.2330   38.6200 O.2   355  PHE355     -0.2718
     96  CB        29.0380   55.5080   36.2260 C.3   355  PHE355      0.0547
     97  CG        29.8370   56.5870   35.5360 C.ar  355  PHE355     -0.0202
     98  CD1       31.1980   56.3680   35.1910 C.ar  355  PHE355     -0.0042
     99  CD2       29.2410   57.8170   35.2080 C.ar  355  PHE355     -0.0042
    100  CE1       31.9420   57.3460   34.5500 C.ar  355  PHE355     -0.0003
    101  CE2       29.9920   58.7880   34.5640 C.ar  355  PHE355     -0.0003
    102  CZ        31.3410   58.5510   34.2280 C.ar  355  PHE355     -0.0000
    103  N         26.9890   54.4450   38.2390 N.am  356  ASP356     -0.1960
    104  CA        26.1320   53.2630   38.3390 C.3   356  ASP356      0.1840
    105  C         25.6470   52.7780   36.9490 C.2   356  ASP356      0.2621
    106  O         25.0120   53.5630   36.2370 O.2   356  ASP356     -0.2715
    107  CB        24.9620   53.5180   39.2960 C.3   356  ASP356      0.1450
    108  CG        24.0070   52.3230   39.3970 C.2   356  ASP356      0.3671
    109  OD1       24.4800   51.1490   39.2820 O.co2 356  ASP356     -0.2456
    110  OD2       22.7710   52.5710   39.5720 O.co2 356  ASP356     -0.2456
    111  N         25.9320   51.5080   36.6000 N.am  357  ARG357     -0.1977
    112  CA        25.4870   50.8940   35.3330 C.3   357  ARG357      0.1597
    113  C         23.9830   50.6050   35.2410 C.2   357  ARG357      0.2287
    114  O         23.4530   50.6360   34.1350 O.2   357  ARG357     -0.2864
    115  CB        26.2690   49.6340   34.9570 C.3   357  ARG357      0.0334
    116  CG        27.7340   49.8280   34.6250 C.3   357  ARG357      0.0492
    117  CD        28.4070   48.4600   34.6200 C.3   357  ARG357      0.2205
    118  NE        28.7770   48.0710   35.9840 N.pl3 357  ARG357     -0.0865
    119  CZ        29.2690   46.8810   36.3370 C.cat 357  ARG357      0.5346
    120  NH1       29.4160   45.9370   35.3920 N.pl3 357  ARG357      0.1354
    121  NH2       29.5920   46.6300   37.6340 N.pl3 357  ARG357      0.1354
    122  N         22.7240   54.4840   34.9930 N.3   360  ASN360     -0.1240
    123  CA        23.5680   55.3660   34.2140 C.3   360  ASN360      0.1653
    124  C         23.7400   56.7460   34.8180 C.2   360  ASN360      0.2266
    125  O         23.5210   57.7530   34.1370 O.2   360  ASN360     -0.2867
    126  CB        23.0450   55.4990   32.7870 C.3   360  ASN360      0.1155
    127  CG        23.2550   54.2250   31.9690 C.2   360  ASN360      0.2627
    128  OD1       24.1520   53.4170   32.2470 O.2   360  ASN360     -0.2716
    129  ND2       22.4070   54.0320   30.9700 N.am  360  ASN360     -0.0877
    130  N         26.2780   59.3830   37.2350 N.3   362  THR362     -0.1218
    131  CA        27.5690   59.6750   37.8110 C.3   362  THR362      0.1862
    132  C         27.4590   59.8100   39.3190 C.2   362  THR362      0.2287
    133  O         26.7840   60.7210   39.8300 O.2   362  THR362     -0.2866
    134  CB        28.1570   60.9490   37.2040 C.3   362  THR362      0.1770
    135  OG1       27.8940   60.9440   35.7830 O.3   362  THR362     -0.2211
    136  CG2       29.6520   61.0310   37.4960 C.3   362  THR362      0.0375
@<TRIPOS>BOND
     1    84    83    2
     2    82    83    1
     3    82    81    1
     4    83    85   am
     5    80    79    2
     6    79    78    1
     7    81    78    1
     8    88    89    2
     9    88    87    1
    10    78    77    1
    11    86    87    1
    12    77    71   am
    13    68    67    1
    14    87    90    1
    15    91    90    1
    16    63    62    2
    17    62    61    1
    18    71    72    2
    19    71    70    1
    20    69    70    1
    21    67    66    1
    22    66    65    1
    23    65    64    1
    24    70    73    1
    25    13    12    1
    26    13    14    1
    27    61    60    1
    28    61    64    1
    29    12     9    1
    30    73    75    1
    31    73    74    1
    32    14     8    1
    33     9     8    1
    34     9    10    1
    35    41    39    1
    36    74    76    1
    37     8     3   am
    38    58    59   ar
    39    58    56   ar
    40    10    11    2
    41   129   127   am
    42    59    57   ar
    43     6     5    1
    44    39    38    2
    45    39    40    1
    46    56    54   ar
    47     3     4    2
    48     3     2    1
    49    38    37    1
    50     5     2    1
    51     5     7    1
    52   127   128    2
    53   127   126    1
    54    19    16    1
    55    35    36    1
    56    35    32    1
    57     2     1    1
    58    57    55   ar
    59    31    32    1
    60    27    25   ar
    61    27    29   ar
    62    24    25    1
    63    24    21    1
    64   126   123    1
    65    17    18    2
    66    17    16    1
    67    54    55   ar
    68    54    53    1
    69    25    26   ar
    70    37    36    1
    71    29    30   ar
    72    16    15    1
    73    32    33    1
    74    34    33    2
    75    30    28   ar
    76    26    28   ar
    77    53    50    1
    78    22    21    1
    79    22    23    2
    80    21    20    1
    81   114   113    2
    82   125   124    2
    83   123   124    1
    84   123   122    1
    85   102   100   ar
    86   102   101   ar
    87   100    98   ar
    88   101    99   ar
    89   117   116    1
    90   117   118    1
    91   116   115    1
    92    50    51    1
    93    50    49    1
    94   115   112    1
    95    98    97   ar
    96    99    97   ar
    97   113   112    1
    98   112   111    1
    99    51    52    2
   100   120   119    1
   101    47    46    1
   102    97    96    1
   103    48    46    1
   104   135   134    1
   105   118   119    2
   106    96    93    1
   107   106   105    2
   108    46    43    1
   109   119   121    1
   110   111   105   am
   111   105   104    1
   112   134   136    1
   113   134   131    1
   114   130   131    1
   115    43    44    1
   116    43    42    1
   117    93    92    1
   118    93    94    1
   119   131   132    1
   120    44    45    2
   121   103    94   am
   122   103   104    1
   123    94    95    2
   124   104   107    1
   125   109   108   ar
   126   107   108    1
   127   132   133    2
   128   108   110   ar
