@<TRIPOS>MOLECULE
tmp/5hgcA01.pdb
 90 83 0 0 0
SMALL
GASTEIGER

@<TRIPOS>ATOM
      1  N         11.1500   71.0050   45.3700 N.3    51  LEU51      -0.1245
      2  CA         9.8790   70.5180   45.9070 C.3    51  LEU51       0.1561
      3  C          9.1630   71.5680   46.7620 C.2    51  LEU51       0.2260
      4  O          7.9320   71.5410   46.8680 O.2    51  LEU51      -0.2867
      5  CB        10.1250   69.2600   46.7300 C.3    51  LEU51       0.0270
      6  CG         8.9890   68.3390   47.1150 C.3    51  LEU51       0.0019
      7  CD1        8.0740   68.1350   45.9290 C.3    51  LEU51       0.0001
      8  CD2        9.6160   67.0250   47.5490 C.3    51  LEU51       0.0001
      9  N          9.0160   77.9820   44.4230 N.3    54  ARG54      -0.1245
     10  CA         7.9590   78.4580   43.5430 C.3    54  ARG54       0.1563
     11  C          8.5520   79.4050   42.4990 C.2    54  ARG54       0.2260
     12  O          9.6460   79.9740   42.7140 O.2    54  ARG54      -0.2867
     13  CB         6.8050   79.1000   44.3520 C.3    54  ARG54       0.0307
     14  CG         6.0020   78.1410   45.2600 C.3    54  ARG54       0.0489
     15  CD         5.2370   76.9550   44.6060 C.3    54  ARG54       0.2205
     16  NE         4.5770   76.0810   45.6200 N.pl3  54  ARG54      -0.0865
     17  CZ         5.1290   75.0280   46.2840 C.cat  54  ARG54       0.5346
     18  NH1        6.4000   74.6250   46.0690 N.pl3  54  ARG54       0.1354
     19  NH2        4.3870   74.3400   47.1760 N.pl3  54  ARG54       0.1354
     20  N         12.2160   78.2420   41.6140 N.3    58  GLN58      -0.1245
     21  CA        12.0590   76.8830   41.2720 C.3    58  GLN58       0.1566
     22  C         12.6000   76.5620   39.8670 C.2    58  GLN58       0.2260
     23  O         13.3110   75.5360   39.6840 O.2    58  GLN58      -0.2867
     24  CB        10.5990   76.4910   41.4230 C.3    58  GLN58       0.0367
     25  CG        10.4400   75.0830   40.9960 C.3    58  GLN58       0.0905
     26  CD         9.0330   74.6440   40.9760 C.2    58  GLN58       0.2608
     27  OE1        8.2940   74.9150   40.0400 O.2    58  GLN58      -0.2717
     28  NE2        8.6570   73.9070   41.9940 N.am   58  GLN58      -0.0878
     29  N          7.9420   68.5680   35.6540 N.3    74  GLU74      -0.1231
     30  CA         8.4230   68.5550   37.0300 C.3    74  GLU74       0.1699
     31  C          8.0760   67.2290   37.7770 C.2    74  GLU74       0.2592
     32  O          8.9090   66.6950   38.5210 O.2    74  GLU74      -0.2718
     33  CB         7.9720   69.8070   37.7720 C.3    74  GLU74       0.0402
     34  CG         8.7020   70.0160   39.0880 C.3    74  GLU74       0.1161
     35  CD         7.9120   70.8240   40.1100 C.2    74  GLU74       0.3649
     36  OE1        7.1050   71.6870   39.6710 O.co2  74  GLU74      -0.2457
     37  OE2        8.1130   70.6020   41.3450 O.co2  74  GLU74      -0.2457
     38  N          6.8870   66.6810   37.5400 N.am   75  LYS75      -0.1980
     39  CA         6.4750   65.3680   38.0760 C.3    75  LYS75       0.1596
     40  C          7.5140   64.3070   37.7770 C.2    75  LYS75       0.2287
     41  O          7.8550   63.5050   38.6490 O.2    75  LYS75      -0.2864
     42  CB         5.1290   64.8740   37.4960 C.3    75  LYS75       0.0298
     43  CG         3.9810   65.8850   37.5650 C.3    75  LYS75       0.0038
     44  CD         3.9860   66.9240   36.4150 C.3    75  LYS75       0.0206
     45  CE         3.6770   68.3410   36.8860 C.3    75  LYS75       0.1093
     46  NZ         4.2400   69.3020   35.9230 N.3    75  LYS75      -0.1314
     47  N         10.9860   64.6670   39.8060 N.3    78  HIS78      -0.1226
     48  CA        10.8880   64.1390   41.1810 C.3    78  HIS78       0.1752
     49  C         10.7080   62.6190   41.1780 C.2    78  HIS78       0.2595
     50  O         11.2780   61.9040   42.0290 O.2    78  HIS78      -0.2718
     51  CB         9.7980   64.8370   41.9920 C.3    78  HIS78       0.0759
     52  CG         9.9880   66.3160   42.1250 C.ar   78  HIS78       0.0818
     53  ND1       11.0960   66.8800   42.7210 N.ar   78  HIS78      -0.2268
     54  CD2        9.2040   67.3550   41.7530 C.ar   78  HIS78       0.1154
     55  CE1       11.0120   68.2010   42.6750 C.ar   78  HIS78       0.1986
     56  NE2        9.8700   68.5190   42.0970 N.ar   78  HIS78      -0.2212
     57  N          9.9660   62.1060   40.2040 N.am   79  GLU79      -0.1979
     58  CA         9.7770   60.6490   40.0850 C.3    79  GLU79       0.1602
     59  C         11.1080   59.9950   39.7970 C.2    79  GLU79       0.2287
     60  O         11.4510   58.9630   40.4180 O.2    79  GLU79      -0.2864
     61  CB         8.8460   60.3230   38.9450 C.3    79  GLU79       0.0415
     62  CG         7.4860   59.8720   39.4010 C.3    79  GLU79       0.1163
     63  CD         6.3960   60.2700   38.4190 C.2    79  GLU79       0.3649
     64  OE1        6.6470   60.2910   37.1790 O.co2  79  GLU79      -0.2457
     65  OE2        5.2800   60.5670   38.9060 O.co2  79  GLU79      -0.2457
     66  N          3.4380   69.6060   54.5510 N.3   114  LYS114     -0.1245
     67  CA         3.3460   69.1710   53.1670 C.3   114  LYS114      0.1561
     68  C          4.7830   69.0080   52.6520 C.2   114  LYS114      0.2260
     69  O          5.1160   67.9850   52.0690 O.2   114  LYS114     -0.2867
     70  CB         2.5800   70.2150   52.3770 C.3   114  LYS114      0.0271
     71  CG         2.8390   70.2830   50.8790 C.3   114  LYS114      0.0035
     72  CD         2.2220   71.5770   50.3710 C.3   114  LYS114      0.0206
     73  CE         2.1430   71.6380   48.8410 C.3   114  LYS114      0.1093
     74  NZ         1.2390   70.5700   48.2820 N.3   114  LYS114     -0.1314
     75  N          6.4120   65.3480   51.5710 N.3   118  ASP118     -0.1239
     76  CA         6.8170   65.2230   50.1950 C.3   118  ASP118      0.1674
     77  C          8.3030   64.9530   50.0860 C.2   118  ASP118      0.2266
     78  O          8.7340   64.0350   49.3630 O.2   118  ASP118     -0.2867
     79  CB         6.4630   66.5170   49.5030 C.3   118  ASP118      0.1410
     80  CG         4.9340   66.6460   49.2400 C.2   118  ASP118      0.3668
     81  OD1        4.1840   65.6740   49.5720 O.co2 118  ASP118     -0.2456
     82  OD2        4.4910   67.6860   48.6790 O.co2 118  ASP118     -0.2456
     83  N          9.7940   61.4340   48.7710 N.3   122  LEU122     -0.1245
     84  CA        10.5520   61.4470   47.5250 C.3   122  LEU122      0.1561
     85  C         12.0610   61.3210   47.6940 C.2   122  LEU122      0.2260
     86  O         12.7250   60.6560   46.9060 O.2   122  LEU122     -0.2867
     87  CB        10.2210   62.6690   46.6830 C.3   122  LEU122      0.0270
     88  CG         8.8310   62.7080   46.0580 C.3   122  LEU122      0.0019
     89  CD1        8.5500   64.1290   45.5240 C.3   122  LEU122      0.0001
     90  CD2        8.7380   61.6740   44.9430 C.3   122  LEU122      0.0001
@<TRIPOS>BOND
     1    29    30    1
     2    46    45    1
     3    44    45    1
     4    44    43    1
     5    30    33    1
     6    30    31    1
     7    64    63   ar
     8    42    43    1
     9    42    39    1
    10    38    31   am
    11    38    39    1
    12    33    34    1
    13    40    39    1
    14    40    41    2
    15    31    32    2
    16    63    65   ar
    17    63    62    1
    18    61    62    1
    19    61    58    1
    20    34    35    1
    21    36    35   ar
    22    23    22    2
    23    59    58    1
    24    59    60    2
    25    47    48    1
    26    22    21    1
    27    27    26    2
    28    58    57    1
    29    35    37   ar
    30    57    49   am
    31    26    25    1
    32    26    28   am
    33    25    24    1
    34    49    48    1
    35    49    50    2
    36    48    51    1
    37    21    24    1
    38    21    20    1
    39    54    56   ar
    40    54    52   ar
    41    51    52    1
    42    56    55   ar
    43    52    53   ar
    44    11    12    2
    45    11    10    1
    46    55    53   ar
    47    10    13    1
    48    10     9    1
    49    13    14    1
    50    15    14    1
    51    15    16    1
    52    90    88    1
    53     1     2    1
    54    89    88    1
    55    16    17    2
    56     2     5    1
    57     2     3    1
    58     7     6    1
    59    88    87    1
    60    18    17    1
    61    17    19    1
    62    87    84    1
    63     5     6    1
    64     3     4    2
    65    86    85    2
    66     6     8    1
    67    84    85    1
    68    84    83    1
    69    74    73    1
    70    82    80   ar
    71    73    72    1
    72    80    79    1
    73    80    81   ar
    74    78    77    2
    75    79    76    1
    76    77    76    1
    77    76    75    1
    78    72    71    1
    79    71    70    1
    80    69    68    2
    81    70    67    1
    82    68    67    1
    83    67    66    1
