@<TRIPOS>MOLECULE
tmp/5hggC01.pdb
 142 144 0 0 0
SMALL
GASTEIGER

@<TRIPOS>ATOM
      1  N        211.2420   28.0580   79.6580 N.3    36  TRP36      -0.1227
      2  CA       211.7890   26.9150   78.9630 C.3    36  TRP36       0.1737
      3  C        212.0230   25.8170   79.9590 C.2    36  TRP36       0.2595
      4  O        212.5470   26.0930   81.0600 O.2    36  TRP36      -0.2718
      5  CB       213.1210   27.2620   78.3100 C.3    36  TRP36       0.0564
      6  CG       212.9850   28.1200   77.1070 C.ar   36  TRP36       0.0003
      7  CD1      213.1130   29.4810   77.0490 C.ar   36  TRP36       0.0946
      8  CD2      212.7800   27.6790   75.7630 C.ar   36  TRP36       0.0152
      9  NE1      212.9410   29.9110   75.7650 N.ar   36  TRP36      -0.2442
     10  CE2      212.7390   28.8310   74.9500 C.ar   36  TRP36       0.0810
     11  CE3      212.5880   26.4280   75.1720 C.ar   36  TRP36       0.0012
     12  CZ2      212.5660   28.7610   73.5810 C.ar   36  TRP36       0.0191
     13  CZ3      212.3810   26.3610   73.8200 C.ar   36  TRP36       0.0001
     14  CH2      212.3780   27.5180   73.0320 C.ar   36  TRP36       0.0015
     15  N        211.6960   24.5850   79.5450 N.am   37  PHE37      -0.1976
     16  CA       211.9760   23.3650   80.2790 C.3    37  PHE37       0.1639
     17  C        212.7750   22.4110   79.3790 C.2    37  PHE37       0.2290
     18  O        212.8360   22.5920   78.1770 O.2    37  PHE37      -0.2864
     19  CB       210.6810   22.6940   80.6730 C.3    37  PHE37       0.0560
     20  CG       209.8890   23.4500   81.7230 C.ar   37  PHE37      -0.0200
     21  CD1      209.1290   24.5530   81.3630 C.ar   37  PHE37      -0.0042
     22  CD2      209.8840   23.0300   83.0430 C.ar   37  PHE37      -0.0042
     23  CE1      208.3950   25.2450   82.3160 C.ar   37  PHE37      -0.0003
     24  CE2      209.1460   23.7070   83.9910 C.ar   37  PHE37      -0.0003
     25  CZ       208.4120   24.8270   83.6240 C.ar   37  PHE37      -0.0000
     26  N        211.8690   16.0070   83.9540 N.3    45  ARG45      -0.1245
     27  CA       211.7740   17.3580   83.3830 C.3    45  ARG45       0.1563
     28  C        212.3700   18.3700   84.3610 C.2    45  ARG45       0.2260
     29  O        212.2490   18.2010   85.5790 O.2    45  ARG45      -0.2867
     30  CB       210.3310   17.7400   83.1810 C.3    45  ARG45       0.0307
     31  CG       210.1600   18.8540   82.1830 C.3    45  ARG45       0.0489
     32  CD       208.6810   19.0740   81.9730 C.3    45  ARG45       0.2205
     33  NE       208.0530   19.6090   83.1740 N.pl3  45  ARG45      -0.0865
     34  CZ       206.7400   19.6420   83.3840 C.cat  45  ARG45       0.5346
     35  NH1      205.8770   19.0890   82.5110 N.pl3  45  ARG45       0.1354
     36  NH2      206.2870   20.2010   84.4920 N.pl3  45  ARG45       0.1354
     37  N        213.0570   22.6760   84.8430 N.3    47  GLY47      -0.1210
     38  CA       213.0200   24.0770   84.4570 C.3    47  GLY47       0.1956
     39  C        214.4260   24.5920   84.1090 C.2    47  GLY47       0.2612
     40  O        215.4190   24.2380   84.7390 O.2    47  GLY47      -0.2717
     41  N        214.5120   25.3690   83.0470 N.am   48  VAL48      -0.1965
     42  CA       215.7800   25.9010   82.5500 C.3    48  VAL48       0.1727
     43  C        215.8560   27.4260   82.7640 C.2    48  VAL48       0.2617
     44  O        216.8210   27.9450   83.3030 O.2    48  VAL48      -0.2715
     45  CB       215.8860   25.6020   81.0250 C.3    48  VAL48       0.0290
     46  CG1      217.0630   26.2820   80.4140 C.3    48  VAL48       0.0023
     47  CG2      216.0120   24.1060   80.8050 C.3    48  VAL48       0.0023
     48  N        214.8130   28.1320   82.3440 N.am   49  SER49      -0.1936
     49  CA       214.8130   29.5760   82.3830 C.3    49  SER49       0.2055
     50  C        213.4010   30.1100   82.2830 C.2    49  SER49       0.2643
     51  O        212.5220   29.4550   81.7120 O.2    49  SER49      -0.2714
     52  CB       215.6510   30.1420   81.2040 C.3    49  SER49       0.2130
     53  OG       215.8250   31.5110   81.4050 O.3    49  SER49      -0.2179
     54  N        213.1830   31.3100   82.8160 N.am   50  CYS50      -0.1967
     55  CA       211.9410   31.9990   82.5640 C.3    50  CYS50       0.1712
     56  C        212.0960   33.4980   82.5810 C.2    50  CYS50       0.2296
     57  O        213.0720   34.0100   83.0930 O.2    50  CYS50      -0.2864
     58  CB       210.8360   31.5240   83.5130 C.3    50  CYS50       0.0983
     59  SG       211.0930   31.8600   85.2600 S.3    50  CYS50      -0.0798
     60  N        214.9690   34.4000   85.3080 N.3    59  ASN59      -0.1225
     61  CA       215.5000   33.4010   86.2520 C.3    59  ASN59       0.1785
     62  C        216.1150   32.2180   85.5000 C.2    59  ASN59       0.2597
     63  O        215.6670   31.8740   84.3930 O.2    59  ASN59      -0.2718
     64  CB       214.3870   32.8930   87.1650 C.3    59  ASN59       0.1169
     65  CG       213.7880   34.0040   88.0800 C.2    59  ASN59       0.2627
     66  OD1      212.6170   34.2230   88.0970 O.2    59  ASN59      -0.2716
     67  ND2      214.5880   34.6410   88.8170 N.am   59  ASN59      -0.0877
     68  N        217.1390   31.6010   86.0940 N.am   60  TYR60      -0.1962
     69  CA       217.9120   30.5320   85.4570 C.3    60  TYR60       0.1771
     70  C        218.1590   29.4340   86.4570 C.2    60  TYR60       0.2619
     71  O        218.4670   29.7240   87.6130 O.2    60  TYR60      -0.2715
     72  CB       219.2580   31.0450   84.9670 C.3    60  TYR60       0.0574
     73  CG       219.0440   32.0870   83.9060 C.ar   60  TYR60      -0.0198
     74  CD1      218.9000   31.7170   82.5440 C.ar   60  TYR60      -0.0009
     75  CD2      218.9440   33.4270   84.2370 C.ar   60  TYR60      -0.0009
     76  CE1      218.6480   32.6700   81.5650 C.ar   60  TYR60       0.0417
     77  CE2      218.7440   34.3840   83.2340 C.ar   60  TYR60       0.0417
     78  CZ       218.5710   33.9640   81.8980 C.ar   60  TYR60       0.1957
     79  OH       218.3390   34.8910   80.9010 O.3    60  TYR60      -0.2866
     80  N        218.1000   28.1910   85.9840 N.am   61  ALA61      -0.1977
     81  CA       218.4840   27.0730   86.8010 C.3    61  ALA61       0.1597
     82  C        219.9840   27.1110   87.0220 C.2    61  ALA61       0.2287
     83  O        220.7220   27.6360   86.1690 O.2    61  ALA61      -0.2864
     84  CB       218.0780   25.7580   86.1290 C.3    61  ALA61       0.0319
     85  N        201.9590   29.7760   83.2400 N.3   100  HIS100     -0.1227
     86  CA       201.6750   28.7120   84.2370 C.3   100  HIS100      0.1737
     87  C        201.9120   29.2480   85.6420 C.2   100  HIS100      0.2438
     88  O        202.9470   29.8950   85.8640 O.2   100  HIS100     -0.2733
     89  CB       202.6240   27.5690   84.0470 C.3   100  HIS100      0.0758
     90  CG       202.4620   26.8740   82.7560 C.ar  100  HIS100      0.0818
     91  ND1      201.8070   25.6770   82.6600 N.ar  100  HIS100     -0.2268
     92  CD2      202.8540   27.2060   81.4980 C.ar  100  HIS100      0.1154
     93  CE1      201.7790   25.3030   81.3980 C.ar  100  HIS100      0.1986
     94  NE2      202.4060   26.2150   80.6740 N.ar  100  HIS100     -0.2212
     95  N        201.0360   28.9120   86.6130 N.am  101  PRO101     -0.2718
     96  CA       201.2960   29.3140   87.9920 C.3   101  PRO101      0.1535
     97  C        202.6670   28.8750   88.4550 C.2   101  PRO101      0.2599
     98  O        203.0760   27.7410   88.2270 O.2   101  PRO101     -0.2715
     99  CB       200.1840   28.5880   88.8090 C.3   101  PRO101      0.0310
    100  CG       199.0840   28.4830   87.8220 C.3   101  PRO101      0.0237
    101  CD       199.7580   28.1860   86.5070 C.3   101  PRO101      0.0939
    102  N        203.3960   29.8030   89.0440 N.am  102  GLY102     -0.1941
    103  CA       204.7360   29.5260   89.5400 C.3   102  GLY102      0.2014
    104  C        205.8700   29.7470   88.5720 C.2   102  GLY102      0.2639
    105  O        207.0020   29.7580   88.9890 O.2   102  GLY102     -0.2714
    106  N        205.5910   29.8920   87.2780 N.am  103  LEU103     -0.1963
    107  CA       206.6170   30.0130   86.2880 C.3   103  LEU103      0.1728
    108  C        206.8580   31.5010   86.0210 C.2   103  LEU103      0.2616
    109  O        206.1660   32.1160   85.1860 O.2   103  LEU103     -0.2715
    110  CB       206.2050   29.2830   85.0130 C.3   103  LEU103      0.0311
    111  CG       207.1970   29.3210   83.8620 C.3   103  LEU103      0.0022
    112  CD1      208.5180   28.6520   84.2090 C.3   103  LEU103      0.0001
    113  CD2      206.5510   28.6420   82.6740 C.3   103  LEU103      0.0001
    114  N        207.7880   32.0800   86.7830 N.am  104  CYS104     -0.1968
    115  CA       208.0440   33.5150   86.7810 C.3   104  CYS104      0.1712
    116  C        206.7620   34.3340   87.0360 C.2   104  CYS104      0.2296
    117  O        206.6100   35.4450   86.5420 O.2   104  CYS104     -0.2864
    118  CB       208.6940   33.9550   85.4610 C.3   104  CYS104      0.0983
    119  SG       210.4930   33.9140   85.4860 S.3   104  CYS104     -0.0798
    120  N        198.3210   28.3140   80.5190 N.3   115  GLU115     -0.1245
    121  CA       198.9400   27.0200   80.7020 C.3   115  GLU115      0.1567
    122  C        199.2290   26.3510   79.3570 C.2   115  GLU115      0.2260
    123  O        198.9150   25.1750   79.1610 O.2   115  GLU115     -0.2867
    124  CB       198.0710   26.1160   81.6360 C.3   115  GLU115      0.0388
    125  CG       197.8790   26.7120   83.0110 C.3   115  GLU115      0.1160
    126  CD       197.1960   25.7590   83.9990 C.2   115  GLU115      0.3649
    127  OE1      196.0440   25.3730   83.8080 O.co2 115  GLU115     -0.2457
    128  OE2      197.8120   25.3940   85.0090 O.co2 115  GLU115     -0.2457
    129  N        201.6280   24.8210   76.3760 N.3   117  TRP117     -0.1241
    130  CA       202.9120   24.1610   76.0990 C.3   117  TRP117      0.1605
    131  C        203.1860   24.0750   74.5960 C.2   117  TRP117      0.2264
    132  O        202.2700   23.8910   73.7940 O.2   117  TRP117     -0.2867
    133  CB       202.8820   22.7130   76.6110 C.3   117  TRP117      0.0550
    134  CG       202.9920   22.5580   78.0830 C.ar  117  TRP117      0.0003
    135  CD1      201.9620   22.2880   78.9440 C.ar  117  TRP117      0.0946
    136  CD2      204.1900   22.5870   78.8840 C.ar  117  TRP117      0.0152
    137  NE1      202.4400   22.2050   80.2240 N.ar  117  TRP117     -0.2442
    138  CE2      203.7980   22.3650   80.2160 C.ar  117  TRP117      0.0810
    139  CE3      205.5540   22.7960   78.6070 C.ar  117  TRP117      0.0012
    140  CZ2      204.7220   22.3560   81.2850 C.ar  117  TRP117      0.0191
    141  CZ3      206.4690   22.7460   79.6490 C.ar  117  TRP117      0.0001
    142  CH2      206.0460   22.5400   80.9810 C.ar  117  TRP117      0.0015
@<TRIPOS>BOND
     1    14    12   ar
     2    14    13   ar
     3    12    10   ar
     4   132   131    2
     5    13    11   ar
     6   131   130    1
     7    10     8   ar
     8    10     9   ar
     9    11     8   ar
    10     8     6   ar
    11     9     7   ar
    12   130   129    1
    13   130   133    1
    14   133   134    1
    15     7     6   ar
    16     6     5    1
    17   134   136   ar
    18   134   135   ar
    19    18    17    2
    20     5     2    1
    21   139   136   ar
    22   139   141   ar
    23   136   138   ar
    24   135   137   ar
    25     2     1    1
    26     2     3    1
    27   123   122    2
    28   122   121    1
    29    17    16    1
    30    15     3   am
    31    15    16    1
    32   141   142   ar
    33     3     4    2
    34   138   137   ar
    35   138   140   ar
    36    16    19    1
    37    46    45    1
    38   120   121    1
    39    19    20    1
    40    94    93   ar
    41    94    92   ar
    42   121   124    1
    43    47    45    1
    44    79    78    1
    45   142   140   ar
    46    45    42    1
    47    52    53    1
    48    52    49    1
    49    21    20   ar
    50    21    23   ar
    51    93    91   ar
    52    92    90   ar
    53    76    78   ar
    54    76    74   ar
    55   124   125    1
    56    51    50    2
    57    20    22   ar
    58    78    77   ar
    59    32    31    1
    60    32    33    1
    61    31    30    1
    62    50    49    1
    63    50    54   am
    64    23    25   ar
    65    48    49    1
    66    48    43   am
    67    35    34    1
    68    74    73   ar
    69    42    43    1
    70    42    41    1
    71    55    56    1
    72    55    54    1
    73    55    58    1
    74    56    57    2
    75    91    90   ar
    76   113   111    1
    77    90    89    1
    78    43    44    2
    79   125   126    1
    80    22    24   ar
    81    41    39   am
    82    33    34    2
    83    30    27    1
    84    77    75   ar
    85    85    86    1
    86    27    26    1
    87    27    28    1
    88    34    36    1
    89    58    59    1
    90    25    24   ar
    91   127   126   ar
    92   111   112    1
    93   111   110    1
    94    73    75   ar
    95    73    72    1
    96   126   128   ar
    97    89    86    1
    98    39    38    1
    99    39    40    2
   100    86    87    1
   101    28    29    2
   102    63    62    2
   103    38    37    1
   104    72    69    1
   105   110   107    1
   106   109   108    2
   107    59   119    1
   108    60    61    1
   109    69    68    1
   110    69    70    1
   111   118   119    1
   112   118   115    1
   113    62    68   am
   114    62    61    1
   115    87    88    2
   116    87    95   am
   117    80    70   am
   118    80    81    1
   119   108   107    1
   120   108   114   am
   121    84    81    1
   122    83    82    2
   123    61    64    1
   124   107   106    1
   125    70    71    2
   126   101    95    1
   127   101   100    1
   128   117   116    2
   129    95    96    1
   130   115   114    1
   131   115   116    1
   132    81    82    1
   133    64    65    1
   134   106   104   am
   135   100    99    1
   136    96    97    1
   137    96    99    1
   138    65    66    2
   139    65    67   am
   140    98    97    2
   141    97   102   am
   142   104   105    2
   143   104   103    1
   144   102   103    1
