@<TRIPOS>MOLECULE
tmp/5hgiA00.pdb
 117 114 0 0 0
SMALL
GASTEIGER

@<TRIPOS>ATOM
      1  N        -12.0490   -4.8410  -16.2610 N.3   241  GLU241     -0.1231
      2  CA       -12.9190   -4.4780  -15.1400 C.3   241  GLU241      0.1699
      3  C        -13.7790   -5.6570  -14.7060 C.2   241  GLU241      0.2592
      4  O        -13.9750   -5.8840  -13.5070 O.2   241  GLU241     -0.2718
      5  CB       -13.8050   -3.2850  -15.5120 C.3   241  GLU241      0.0402
      6  CG       -14.3940   -2.5030  -14.3080 C.3   241  GLU241      0.1161
      7  CD       -15.6790   -3.1080  -13.7030 C.2   241  GLU241      0.3649
      8  OE1      -16.2940   -4.0060  -14.3250 O.co2 241  GLU241     -0.2457
      9  OE2      -16.0750   -2.6720  -12.5930 O.co2 241  GLU241     -0.2457
     10  N        -14.3010   -6.4210  -15.6690 N.am  242  LEU242     -0.1980
     11  CA       -15.1210   -7.5830  -15.3300 C.3   242  LEU242      0.1596
     12  C        -14.2610   -8.7470  -14.8570 C.2   242  LEU242      0.2287
     13  O        -14.5230   -9.3370  -13.8040 O.2   242  LEU242     -0.2864
     14  CB       -15.9790   -8.0060  -16.5230 C.3   242  LEU242      0.0297
     15  CG       -16.7080   -9.3410  -16.3450 C.3   242  LEU242      0.0022
     16  CD1      -17.7020   -9.2730  -15.2030 C.3   242  LEU242      0.0001
     17  CD2      -17.3930   -9.8130  -17.6240 C.3   242  LEU242      0.0001
     18  N        -12.9470   -8.6200  -11.3680 N.3   245  LYS245     -0.1245
     19  CA       -13.9450   -8.9690  -10.3630 C.3   245  LYS245      0.1561
     20  C        -14.1620  -10.4760  -10.3000 C.2   245  LYS245      0.2260
     21  O        -14.1600  -11.0650   -9.2120 O.2   245  LYS245     -0.2867
     22  CB       -15.2620   -8.2530  -10.6510 C.3   245  LYS245      0.0271
     23  CG       -15.2350   -6.7580  -10.4590 C.3   245  LYS245      0.0035
     24  CD       -16.5990   -6.1580  -10.7670 C.3   245  LYS245      0.0206
     25  CE       -17.6640   -6.7130   -9.8390 C.3   245  LYS245      0.1093
     26  NZ       -19.0170   -6.1490  -10.1090 N.3   245  LYS245     -0.1314
     27  N        -16.5050  -10.7540   -3.3910 N.3   253  LYS253     -0.1231
     28  CA       -16.3780   -9.6970   -4.3860 C.3   253  LYS253      0.1693
     29  C        -16.6010  -10.1860   -5.8140 C.2   253  LYS253      0.2592
     30  O        -16.6020   -9.3690   -6.7390 O.2   253  LYS253     -0.2718
     31  CB       -14.9990   -9.0360   -4.2790 C.3   253  LYS253      0.0285
     32  CG       -14.7910   -8.2840   -2.9560 C.3   253  LYS253      0.0035
     33  CD       -13.3610   -7.7060   -2.8830 C.3   253  LYS253      0.0206
     34  CE       -13.1340   -7.5520   -1.4010 C.3   253  LYS253      0.1093
     35  NZ       -11.8390   -6.9540   -1.0410 N.3   253  LYS253     -0.1314
     36  N        -16.8020  -11.4880   -6.0200 N.am  254  ARG254     -0.1966
     37  CA       -17.0030  -11.9190   -7.4000 C.3   254  ARG254      0.1714
     38  C        -18.4560  -11.7120   -7.8210 C.2   254  ARG254      0.2458
     39  O        -19.3710  -11.9440   -7.0260 O.2   254  ARG254     -0.2730
     40  CB       -16.6310  -13.3910   -7.5680 C.3   254  ARG254      0.0347
     41  CG       -15.2140  -13.7040   -7.1390 C.3   254  ARG254      0.0492
     42  CD       -14.8770  -15.1810   -7.2520 C.3   254  ARG254      0.2205
     43  NE       -13.6810  -15.4590   -6.4630 N.pl3 254  ARG254     -0.0865
     44  CZ       -13.3890  -16.6310   -5.9120 C.cat 254  ARG254      0.5346
     45  NH1      -14.2070  -17.6670   -6.0630 N.pl3 254  ARG254      0.1354
     46  NH2      -12.2790  -16.7570   -5.1980 N.pl3 254  ARG254      0.1354
     47  N        -18.6990  -11.2870   -9.0580 N.am  255  PRO255     -0.2727
     48  CA       -20.0810  -11.0910   -9.5070 C.3   255  PRO255      0.1402
     49  C        -20.7960  -12.4140   -9.7130 C.2   255  PRO255      0.2269
     50  O        -20.1880  -13.4270  -10.0630 O.2   255  PRO255     -0.2865
     51  CB       -19.9290  -10.3500  -10.8410 C.3   255  PRO255      0.0296
     52  CG       -18.4660  -10.0770  -11.0170 C.3   255  PRO255      0.0237
     53  CD       -17.7220  -11.0020  -10.1220 C.3   255  PRO255      0.0939
     54  N        -25.0530  -10.9150  -12.7610 N.3   259  HIS259     -0.1241
     55  CA       -24.3040   -9.6690  -12.9100 C.3   259  HIS259      0.1621
     56  C        -23.4350   -9.7170  -14.1570 C.2   259  HIS259      0.2264
     57  O        -23.4480   -8.7910  -14.9780 O.2   259  HIS259     -0.2867
     58  CB       -23.4330   -9.3940  -11.6830 C.3   259  HIS259      0.0745
     59  CG       -24.2040   -9.0820  -10.4430 C.ar  259  HIS259      0.0817
     60  ND1      -24.5960  -10.0560   -9.5510 N.ar  259  HIS259     -0.2268
     61  CD2      -24.6400   -7.9060   -9.9310 C.ar  259  HIS259      0.1154
     62  CE1      -25.2520   -9.4970   -8.5490 C.ar  259  HIS259      0.1986
     63  NE2      -25.2940   -8.1930   -8.7550 N.ar  259  HIS259     -0.2212
     64  N        -23.0860   -7.0900  -17.7620 N.3   263  HIS263     -0.1241
     65  CA       -21.9050   -6.2420  -17.7660 C.3   263  HIS263      0.1621
     66  C        -21.6370   -5.6730  -19.1580 C.2   263  HIS263      0.2264
     67  O        -21.8800   -6.3380  -20.1690 O.2   263  HIS263     -0.2867
     68  CB       -20.6910   -7.0260  -17.2770 C.3   263  HIS263      0.0745
     69  CG       -19.4870   -6.1760  -17.0200 C.ar  263  HIS263      0.0817
     70  ND1      -18.5520   -5.8980  -17.9950 N.ar  263  HIS263     -0.2268
     71  CD2      -19.0860   -5.5080  -15.9120 C.ar  263  HIS263      0.1154
     72  CE1      -17.6180   -5.1100  -17.4940 C.ar  263  HIS263      0.1986
     73  NE2      -17.9160   -4.8610  -16.2300 N.ar  263  HIS263     -0.2212
     74  N        -19.8350    3.5580  -15.8340 N.3   376  TYR376     -0.1227
     75  CA       -20.5770    2.3910  -15.3650 C.3   376  TYR376      0.1736
     76  C        -20.4190    2.2090  -13.8610 C.2   376  TYR376      0.2595
     77  O        -21.4030    1.9930  -13.1440 O.2   376  TYR376     -0.2718
     78  CB       -20.1160    1.1400  -16.1180 C.3   376  TYR376      0.0548
     79  CG       -20.8830   -0.1280  -15.7800 C.ar  376  TYR376     -0.0200
     80  CD1      -22.2280   -0.2640  -16.1030 C.ar  376  TYR376     -0.0009
     81  CD2      -20.2530   -1.1970  -15.1570 C.ar  376  TYR376     -0.0009
     82  CE1      -22.9250   -1.4260  -15.8010 C.ar  376  TYR376      0.0417
     83  CE2      -20.9410   -2.3630  -14.8560 C.ar  376  TYR376      0.0417
     84  CZ       -22.2770   -2.4700  -15.1790 C.ar  376  TYR376      0.1957
     85  OH       -22.9650   -3.6230  -14.8800 O.3   376  TYR376     -0.2866
     86  N        -19.1840    2.2960  -13.3640 N.am  377  ARG377     -0.1980
     87  CA       -18.9530    2.1950  -11.9250 C.3   377  ARG377      0.1597
     88  C        -19.6630    3.3130  -11.1760 C.2   377  ARG377      0.2287
     89  O        -20.3570    3.0690  -10.1840 O.2   377  ARG377     -0.2864
     90  CB       -17.4530    2.2330  -11.6310 C.3   377  ARG377      0.0334
     91  CG       -16.7240    0.9230  -11.8680 C.3   377  ARG377      0.0492
     92  CD       -15.2100    1.1280  -11.9540 C.3   377  ARG377      0.2205
     93  NE       -14.4750   -0.0720  -11.5630 N.pl3 377  ARG377     -0.0865
     94  CZ       -13.3000   -0.4360  -12.0670 C.cat 377  ARG377      0.5346
     95  NH1      -12.7110   -1.5480  -11.6390 N.pl3 377  ARG377      0.1354
     96  NH2      -12.7210    0.3010  -13.0100 N.pl3 377  ARG377      0.1354
     97  N        -23.5370    3.2220  -10.6900 N.3   380  GLU380     -0.1245
     98  CA       -24.1690    2.1550   -9.9260 C.3   380  GLU380      0.1567
     99  C        -25.1100    2.7210   -8.8710 C.2   380  GLU380      0.2260
    100  O        -26.0700    2.0510   -8.4750 O.2   380  GLU380     -0.2867
    101  CB       -23.1180    1.2550   -9.2770 C.3   380  GLU380      0.0388
    102  CG       -23.7340    0.1110   -8.4770 C.3   380  GLU380      0.1160
    103  CD       -22.8850   -1.1470   -8.4850 C.2   380  GLU380      0.3649
    104  OE1      -21.7490   -1.0930   -9.0000 O.co2 380  GLU380     -0.2457
    105  OE2      -23.3580   -2.1900   -7.9790 O.co2 380  GLU380     -0.2457
    106  N        -27.8120   -2.8330  -15.3030 N.3   392  TYR392     -0.1241
    107  CA       -27.4370   -3.4540  -14.0490 C.3   392  TYR392      0.1605
    108  C        -28.4430   -4.5440  -13.7070 C.2   392  TYR392      0.2264
    109  O        -29.6290   -4.4540  -14.0400 O.2   392  TYR392     -0.2867
    110  CB       -27.3660   -2.4220  -12.9160 C.3   392  TYR392      0.0534
    111  CG       -26.4360   -1.2490  -13.1800 C.ar  392  TYR392     -0.0201
    112  CD1      -25.1290   -1.2540  -12.6990 C.ar  392  TYR392     -0.0009
    113  CD2      -26.8650   -0.1380  -13.9060 C.ar  392  TYR392     -0.0009
    114  CE1      -24.2720   -0.1860  -12.9300 C.ar  392  TYR392      0.0417
    115  CE2      -26.0150    0.9410  -14.1420 C.ar  392  TYR392      0.0417
    116  CZ       -24.7170    0.9120  -13.6490 C.ar  392  TYR392      0.1957
    117  OH       -23.8660    1.9730  -13.8790 O.3   392  TYR392     -0.2866
@<TRIPOS>BOND
     1    67    66    2
     2    66    65    1
     3    70    72   ar
     4    70    69   ar
     5    65    64    1
     6    65    68    1
     7    17    15    1
     8    72    73   ar
     9    68    69    1
    10    69    71   ar
    11    14    15    1
    12    14    11    1
    13    15    16    1
    14     1     2    1
    15    73    71   ar
    16    78    79    1
    17    78    75    1
    18    80    82   ar
    19    80    79   ar
    20    74    75    1
    21    82    84   ar
    22    79    81   ar
    23    10    11    1
    24    10     3   am
    25     5     2    1
    26     5     6    1
    27    75    76    1
    28    11    12    1
    29   106   107    1
    30    84    85    1
    31    84    83   ar
    32    81    83   ar
    33     2     3    1
    34    57    56    2
    35    12    13    2
    36     3     4    2
    37     8     7   ar
    38     6     7    1
    39    56    55    1
    40   115   113   ar
    41   115   116   ar
    42   107   108    1
    43   107   110    1
    44   109   108    2
    45   113   111   ar
    46   117   116    1
    47    76    86   am
    48    76    77    2
    49     7     9   ar
    50   116   114   ar
    51    86    87    1
    52   111   110    1
    53   111   112   ar
    54    96    94    1
    55   114   112   ar
    56    55    54    1
    57    55    58    1
    58    94    95    1
    59    94    93    2
    60    92    91    1
    61    92    93    1
    62    87    90    1
    63    87    88    1
    64    91    90    1
    65    58    59    1
    66    18    19    1
    67    88    89    2
    68    52    51    1
    69    52    53    1
    70    51    48    1
    71    24    23    1
    72    24    25    1
    73    97    98    1
    74    22    23    1
    75    22    19    1
    76    59    61   ar
    77    59    60   ar
    78    19    20    1
    79    20    21    2
    80    53    47    1
    81    26    25    1
    82    50    49    2
    83    61    63   ar
    84    98   101    1
    85    98    99    1
    86    49    48    1
    87    60    62   ar
    88    48    47    1
    89   101   102    1
    90    47    38   am
    91   104   103   ar
    92    99   100    2
    93    63    62   ar
    94   103   102    1
    95   103   105   ar
    96    38    37    1
    97    38    39    2
    98    40    37    1
    99    40    41    1
   100    37    36    1
   101    42    41    1
   102    42    43    1
   103    30    29    2
   104    43    44    2
   105    45    44    1
   106    36    29   am
   107    44    46    1
   108    29    28    1
   109    28    31    1
   110    28    27    1
   111    31    32    1
   112    32    33    1
   113    33    34    1
   114    34    35    1
