@<TRIPOS>MOLECULE
tmp/5hgqC00.pdb
 124 117 0 0 0
SMALL
GASTEIGER

@<TRIPOS>ATOM
      1  N         31.6120  -31.5450  -25.3890 N.3   203  GLY203     -0.1210
      2  CA        32.8950  -32.2190  -25.4010 C.3   203  GLY203      0.1956
      3  C         34.0010  -31.3360  -24.8670 C.2   203  GLY203      0.2612
      4  O         34.3110  -30.2760  -25.4120 O.2   203  GLY203     -0.2717
      5  N         34.5860  -31.7900  -23.7620 N.am  204  ALA204     -0.1965
      6  CA        35.6200  -31.0480  -23.0560 C.3   204  ALA204      0.1728
      7  C         36.3960  -32.0240  -22.1860 C.2   204  ALA204      0.2616
      8  O         35.9720  -33.1590  -21.9600 O.2   204  ALA204     -0.2715
      9  CB        35.0200  -29.9180  -22.2140 C.3   204  ALA204      0.0334
     10  N         37.5400  -31.5610  -21.6920 N.am  205  THR205     -0.1951
     11  CA        38.4230  -32.3900  -20.8770 C.3   205  THR205      0.1897
     12  C         38.1580  -32.1370  -19.3940 C.2   205  THR205      0.2313
     13  O         38.9650  -31.5440  -18.6760 O.2   205  THR205     -0.2863
     14  CB        39.8810  -32.1120  -21.2330 C.3   205  THR205      0.1794
     15  OG1       40.2470  -30.8140  -20.7470 O.3   205  THR205     -0.2208
     16  CG2       40.0830  -32.1560  -22.7400 C.3   205  THR205      0.0378
     17  N         30.2310  -28.6990  -22.1730 N.3   225  ALA225     -0.1245
     18  CA        30.4720  -27.6930  -23.2020 C.3   225  ALA225      0.1562
     19  C         29.3950  -27.7780  -24.2770 C.2   225  ALA225      0.2260
     20  O         28.9380  -28.8770  -24.6150 O.2   225  ALA225     -0.2867
     21  CB        31.8550  -27.8710  -23.8290 C.3   225  ALA225      0.0290
     22  N         29.8860  -27.4510  -27.3370 N.3   227  GLU227     -0.1245
     23  CA        30.6840  -27.4760  -28.5630 C.3   227  GLU227      0.1567
     24  C         30.0390  -28.2920  -29.6770 C.2   227  GLU227      0.2260
     25  O         29.7010  -27.7570  -30.7440 O.2   227  GLU227     -0.2867
     26  CB        32.0760  -28.0290  -28.2600 C.3   227  GLU227      0.0388
     27  CG        33.0060  -27.9600  -29.4490 C.3   227  GLU227      0.1160
     28  CD        34.4560  -28.1280  -29.0790 C.2   227  GLU227      0.3649
     29  OE1       35.3010  -28.2240  -29.9960 O.co2 227  GLU227     -0.2457
     30  OE2       34.7570  -28.1590  -27.8690 O.co2 227  GLU227     -0.2457
     31  N         30.8630  -28.6610  -14.4950 N.3   249  ARG249     -0.1245
     32  CA        32.0570  -29.4840  -14.4170 C.3   249  ARG249      0.1563
     33  C         32.2530  -29.9230  -12.9760 C.2   249  ARG249      0.2260
     34  O         32.0920  -29.1250  -12.0500 O.2   249  ARG249     -0.2867
     35  CB        33.2840  -28.7160  -14.9250 C.3   249  ARG249      0.0307
     36  CG        33.0640  -28.1050  -16.3000 C.3   249  ARG249      0.0489
     37  CD        34.3480  -27.6610  -16.9760 C.3   249  ARG249      0.2205
     38  NE        34.0770  -27.1730  -18.3260 N.pl3 249  ARG249     -0.0865
     39  CZ        35.0100  -26.8200  -19.2040 C.cat 249  ARG249      0.5346
     40  NH1       36.2930  -26.8900  -18.8780 N.pl3 249  ARG249      0.1354
     41  NH2       34.6570  -26.3860  -20.4060 N.pl3 249  ARG249      0.1354
     42  N         30.5790  -19.4070  -25.8300 N.3   265  GLU265     -0.1245
     43  CA        31.2240  -20.0720  -26.9490 C.3   265  GLU265      0.1567
     44  C         30.5450  -19.6160  -28.2290 C.2   265  GLU265      0.2260
     45  O         29.3170  -19.5000  -28.2810 O.2   265  GLU265     -0.2867
     46  CB        31.1440  -21.6000  -26.7930 C.3   265  GLU265      0.0388
     47  CG        31.7810  -22.1130  -25.5010 C.3   265  GLU265      0.1160
     48  CD        31.9790  -23.6180  -25.4870 C.2   265  GLU265      0.3649
     49  OE1       31.7930  -24.2600  -26.5420 O.co2 265  GLU265     -0.2457
     50  OE2       32.3360  -24.1590  -24.4180 O.co2 265  GLU265     -0.2457
     51  N         31.0390  -19.9720  -32.7880 N.3   267  TYR267     -0.1241
     52  CA        31.7060  -20.6200  -33.9050 C.3   267  TYR267      0.1605
     53  C         31.4730  -19.8030  -35.1660 C.2   267  TYR267      0.2264
     54  O         30.3410  -19.3950  -35.4550 O.2   267  TYR267     -0.2867
     55  CB        31.2320  -22.0760  -34.0600 C.3   267  TYR267      0.0534
     56  CG        31.7850  -22.9370  -32.9460 C.ar  267  TYR267     -0.0201
     57  CD1       31.3930  -22.7300  -31.6310 C.ar  267  TYR267     -0.0009
     58  CD2       32.7440  -23.9050  -33.1940 C.ar  267  TYR267     -0.0009
     59  CE1       31.9130  -23.4630  -30.6070 C.ar  267  TYR267      0.0417
     60  CE2       33.2700  -24.6590  -32.1620 C.ar  267  TYR267      0.0417
     61  CZ        32.8460  -24.4260  -30.8720 C.ar  267  TYR267      0.1957
     62  OH        33.3480  -25.1400  -29.8220 O.3   267  TYR267     -0.2866
     63  N         45.0990  -25.0580  -32.2900 N.3   405  ARG405     -0.1245
     64  CA        44.5600  -24.5150  -31.0520 C.3   405  ARG405      0.1563
     65  C         45.4350  -23.3820  -30.5260 C.2   405  ARG405      0.2260
     66  O         46.6490  -23.3520  -30.7440 O.2   405  ARG405     -0.2867
     67  CB        44.4650  -25.6200  -29.9980 C.3   405  ARG405      0.0307
     68  CG        43.8540  -25.1990  -28.6660 C.3   405  ARG405      0.0489
     69  CD        43.7120  -26.3930  -27.7440 C.3   405  ARG405      0.2205
     70  NE        43.6070  -26.0050  -26.3400 N.pl3 405  ARG405     -0.0865
     71  CZ        43.7890  -26.8400  -25.3240 C.cat 405  ARG405      0.5346
     72  NH1       44.0870  -28.1130  -25.5520 N.pl3 405  ARG405      0.1354
     73  NH2       43.6770  -26.4040  -24.0780 N.pl3 405  ARG405      0.1354
     74  N         39.7830  -20.3070  -25.0010 N.3   417  ASN417     -0.1240
     75  CA        40.2650  -21.4940  -25.6950 C.3   417  ASN417      0.1653
     76  C         39.6050  -21.5220  -27.0620 C.2   417  ASN417      0.2266
     77  O         38.3740  -21.4790  -27.1580 O.2   417  ASN417     -0.2867
     78  CB        39.9470  -22.7740  -24.9150 C.3   417  ASN417      0.1155
     79  CG        40.8660  -23.9270  -25.2840 C.2   417  ASN417      0.2627
     80  OD1       41.3820  -23.9930  -26.4020 O.2   417  ASN417     -0.2716
     81  ND2       41.0750  -24.8430  -24.3450 N.am  417  ASN417     -0.0877
     82  N         40.1760  -22.8830  -31.4790 N.3   419  TYR419     -0.1241
     83  CA        40.9420  -23.6400  -32.4620 C.3   419  TYR419      0.1605
     84  C         40.2460  -23.5670  -33.8110 C.2   419  TYR419      0.2264
     85  O         39.1160  -23.0940  -33.9270 O.2   419  TYR419     -0.2867
     86  CB        41.1800  -25.1030  -32.0510 C.3   419  TYR419      0.0534
     87  CG        40.1190  -25.8190  -31.2360 C.ar  419  TYR419     -0.0201
     88  CD1       39.0850  -26.5160  -31.8500 C.ar  419  TYR419     -0.0009
     89  CD2       40.2010  -25.8630  -29.8510 C.ar  419  TYR419     -0.0009
     90  CE1       38.1410  -27.1980  -31.0980 C.ar  419  TYR419      0.0417
     91  CE2       39.2640  -26.5390  -29.0990 C.ar  419  TYR419      0.0417
     92  CZ        38.2370  -27.2020  -29.7260 C.ar  419  TYR419      0.1957
     93  OH        37.3100  -27.8730  -28.9680 O.3   419  TYR419     -0.2866
     94  N         38.4250  -25.6700  -36.3140 N.3   421  GLU421     -0.1245
     95  CA        37.6990  -26.8980  -36.0400 C.3   421  GLU421      0.1567
     96  C         38.0310  -27.9900  -37.0420 C.2   421  GLU421      0.2260
     97  O         38.1900  -27.7410  -38.2410 O.2   421  GLU421     -0.2867
     98  CB        36.1970  -26.6270  -36.0320 C.3   421  GLU421      0.0388
     99  CG        35.7980  -25.6030  -34.9900 C.3   421  GLU421      0.1160
    100  CD        36.0860  -26.0850  -33.5810 C.2   421  GLU421      0.3649
    101  OE1       36.2530  -27.3060  -33.3880 O.co2 421  GLU421     -0.2457
    102  OE2       36.1700  -25.2460  -32.6650 O.co2 421  GLU421     -0.2457
    103  N         36.4040  -22.1780  -33.9750 N.3   454  GLY454     -0.1210
    104  CA        35.6450  -22.2180  -32.7440 C.3   454  GLY454      0.1956
    105  C         36.3520  -21.4730  -31.6300 C.2   454  GLY454      0.2612
    106  O         37.5820  -21.4420  -31.5630 O.2   454  GLY454     -0.2717
    107  N         35.5520  -20.9030  -30.7320 N.am  455  TRP455     -0.1962
    108  CA        36.0790  -19.9860  -29.7360 C.3   455  TRP455      0.1771
    109  C         35.2350  -20.0900  -28.4730 C.2   455  TRP455      0.2620
    110  O         34.0150  -20.2520  -28.5500 O.2   455  TRP455     -0.2715
    111  CB        36.0760  -18.5620  -30.2990 C.3   455  TRP455      0.0590
    112  CG        36.8180  -17.5480  -29.5040 C.ar  455  TRP455      0.0006
    113  CD1       38.0970  -17.1260  -29.7180 C.ar  455  TRP455      0.0946
    114  CD2       36.3230  -16.7880  -28.3980 C.ar  455  TRP455      0.0152
    115  NE1       38.4370  -16.1640  -28.8020 N.ar  455  TRP455     -0.2442
    116  CE2       37.3650  -15.9360  -27.9800 C.ar  455  TRP455      0.0810
    117  CE3       35.1070  -16.7520  -27.7100 C.ar  455  TRP455      0.0012
    118  CZ2       37.2280  -15.0590  -26.9100 C.ar  455  TRP455      0.0191
    119  CZ3       34.9700  -15.8770  -26.6530 C.ar  455  TRP455      0.0001
    120  CH2       36.0250  -15.0400  -26.2640 C.ar  455  TRP455      0.0015
    121  N         35.8870  -19.9990  -27.3220 N.am  456  GLY456     -0.1954
    122  CA        35.1900  -20.0810  -26.0500 C.3   456  GLY456      0.1869
    123  C         35.9320  -19.3160  -24.9800 C.2   456  GLY456      0.2309
    124  O         37.1520  -19.1420  -25.0500 O.2   456  GLY456     -0.2863
@<TRIPOS>BOND
     1    97    96    2
     2    96    95    1
     3    94    95    1
     4    95    98    1
     5    98    99    1
     6    54    53    2
     7    53    52    1
     8    99   100    1
     9    55    52    1
    10    55    56    1
    11   103   104    1
    12    85    84    2
    13    52    51    1
    14    84    83    1
    15   100   101   ar
    16   100   102   ar
    17    58    56   ar
    18    58    60   ar
    19    56    57   ar
    20   104   105    1
    21    83    86    1
    22    83    82    1
    23    63    64    1
    24    60    61   ar
    25    86    87    1
    26    88    87   ar
    27    88    90   ar
    28    57    59   ar
    29   105   106    2
    30   105   107   am
    31    87    89   ar
    32    90    92   ar
    33    64    65    1
    34    64    67    1
    35    61    59   ar
    36    61    62    1
    37    66    65    2
    38    25    24    2
    39   107   108    1
    40   111   108    1
    41   111   112    1
    42    67    68    1
    43    29    28   ar
    44    89    91   ar
    45   108   109    1
    46    92    91   ar
    47    92    93    1
    48   113   112   ar
    49   113   115   ar
    50    24    23    1
    51   112   114   ar
    52    27    28    1
    53    27    26    1
    54    28    30   ar
    55   115   116   ar
    56    68    69    1
    57    23    26    1
    58    23    22    1
    59   110   109    2
    60   109   121   am
    61   114   116   ar
    62   114   117   ar
    63    45    44    2
    64    44    43    1
    65   116   118   ar
    66    69    70    1
    67   117   119   ar
    68   121   122    1
    69    77    76    2
    70    76    75    1
    71    43    46    1
    72    43    42    1
    73   118   120   ar
    74    46    47    1
    75   119   120   ar
    76    49    48   ar
    77    80    79    2
    78    70    71    2
    79   122   123    1
    80    75    74    1
    81    75    78    1
    82    72    71    1
    83    47    48    1
    84    48    50   ar
    85     4     3    2
    86     2     1    1
    87     2     3    1
    88    71    73    1
    89    79    78    1
    90    79    81   am
    91   124   123    2
    92     3     5   am
    93    20    19    2
    94    19    18    1
    95    21    18    1
    96     5     6    1
    97    18    17    1
    98     6     9    1
    99     6     7    1
   100    16    14    1
   101     7     8    2
   102     7    10   am
   103    10    11    1
   104    14    11    1
   105    14    15    1
   106    11    12    1
   107    41    39    1
   108    12    13    2
   109    39    40    1
   110    39    38    2
   111    38    37    1
   112    37    36    1
   113    36    35    1
   114    35    32    1
   115    31    32    1
   116    32    33    1
   117    33    34    2
