@<TRIPOS>MOLECULE
tmp/5hgqC01.pdb
 162 152 0 0 0
SMALL
GASTEIGER

@<TRIPOS>ATOM
      1  N         27.8440  -24.0140  -17.7990 N.3   247  VAL247     -0.1245
      2  CA        28.5390  -25.2690  -18.0250 C.3   247  VAL247      0.1561
      3  C         28.8060  -25.8900  -16.6610 C.2   247  VAL247      0.2260
      4  O         29.1110  -25.1840  -15.6890 O.2   247  VAL247     -0.2867
      5  CB        29.8500  -25.0410  -18.8020 C.3   247  VAL247      0.0252
      6  CG1       30.8760  -26.1030  -18.4630 C.3   247  VAL247      0.0019
      7  CG2       29.5900  -24.9930  -20.2950 C.3   247  VAL247      0.0019
      8  N         30.8630  -28.6610  -14.4950 N.3   249  ARG249     -0.1245
      9  CA        32.0570  -29.4840  -14.4170 C.3   249  ARG249      0.1563
     10  C         32.2530  -29.9230  -12.9760 C.2   249  ARG249      0.2260
     11  O         32.0920  -29.1250  -12.0500 O.2   249  ARG249     -0.2867
     12  CB        33.2840  -28.7160  -14.9250 C.3   249  ARG249      0.0307
     13  CG        33.0640  -28.1050  -16.3000 C.3   249  ARG249      0.0489
     14  CD        34.3480  -27.6610  -16.9760 C.3   249  ARG249      0.2205
     15  NE        34.0770  -27.1730  -18.3260 N.pl3 249  ARG249     -0.0865
     16  CZ        35.0100  -26.8200  -19.2040 C.cat 249  ARG249      0.5346
     17  NH1       36.2930  -26.8900  -18.8780 N.pl3 249  ARG249      0.1354
     18  NH2       34.6570  -26.3860  -20.4060 N.pl3 249  ARG249      0.1354
     19  N         34.8000  -30.7130  -11.2810 N.3   251  GLU251     -0.1245
     20  CA        36.0860  -30.4440  -10.6610 C.3   251  GLU251      0.1567
     21  C         35.8740  -29.6480   -9.3800 C.2   251  GLU251      0.2260
     22  O         34.9640  -28.8190   -9.2920 O.2   251  GLU251     -0.2867
     23  CB        36.9850  -29.6830  -11.6360 C.3   251  GLU251      0.0388
     24  CG        37.2140  -30.4250  -12.9430 C.3   251  GLU251      0.1160
     25  CD        37.7280  -29.5360  -14.0550 C.2   251  GLU251      0.3649
     26  OE1       37.4290  -28.3270  -14.0370 O.co2 251  GLU251     -0.2457
     27  OE2       38.4400  -30.0510  -14.9450 O.co2 251  GLU251     -0.2457
     28  N         39.6470  -19.8860   -8.2450 N.3   256  THR256     -0.1203
     29  CA        39.4390  -19.6530   -9.6660 C.3   256  THR256      0.1994
     30  C         38.5190  -20.6810  -10.3080 C.2   256  THR256      0.2618
     31  O         38.3320  -20.6470  -11.5280 O.2   256  THR256     -0.2717
     32  CB        40.7830  -19.6380  -10.4010 C.3   256  THR256      0.1784
     33  OG1       41.6050  -20.7040   -9.9120 O.3   256  THR256     -0.2211
     34  CG2       41.4890  -18.3130  -10.1790 C.3   256  THR256      0.0376
     35  N         37.9360  -21.5880   -9.5280 N.am  257  HIS257     -0.1961
     36  CA        37.1080  -22.6570  -10.0670 C.3   257  HIS257      0.1787
     37  C         35.7900  -22.7420   -9.3140 C.2   257  HIS257      0.2620
     38  O         35.7470  -22.5910   -8.0890 O.2   257  HIS257     -0.2715
     39  CB        37.8370  -24.0060  -10.0200 C.3   257  HIS257      0.0785
     40  CG        39.0460  -24.0690  -10.9020 C.ar  257  HIS257      0.0821
     41  ND1       40.2410  -23.4640  -10.5760 N.ar  257  HIS257     -0.2267
     42  CD2       39.2390  -24.6580  -12.1060 C.ar  257  HIS257      0.1154
     43  CE1       41.1190  -23.6820  -11.5380 C.ar  257  HIS257      0.1986
     44  NE2       40.5360  -24.4030  -12.4790 N.ar  257  HIS257     -0.2212
     45  N         34.7160  -22.9890  -10.0650 N.am  258  ASN258     -0.1972
     46  CA        33.3810  -23.2430   -9.5550 C.3   258  ASN258      0.1688
     47  C         32.7780  -24.3690  -10.3820 C.2   258  ASN258      0.2292
     48  O         32.9240  -24.3730  -11.6120 O.2   258  ASN258     -0.2864
     49  CB        32.4950  -21.9940   -9.6610 C.3   258  ASN258      0.1181
     50  CG        31.2910  -22.0490   -8.7460 C.2   258  ASN258      0.2629
     51  OD1       31.4190  -22.2700   -7.5420 O.2   258  ASN258     -0.2716
     52  ND2       30.1070  -21.8580   -9.3170 N.am  258  ASN258     -0.0877
     53  N         29.8100  -22.8000  -14.0750 N.3   261  PHE261     -0.1241
     54  CA        30.2990  -21.4780  -14.4410 C.3   261  PHE261      0.1605
     55  C         29.7330  -21.0620  -15.7890 C.2   261  PHE261      0.2264
     56  O         29.3590  -21.8940  -16.6150 O.2   261  PHE261     -0.2867
     57  CB        31.8340  -21.4230  -14.4780 C.3   261  PHE261      0.0534
     58  CG        32.4500  -22.2370  -15.5840 C.ar  261  PHE261     -0.0203
     59  CD1       32.6000  -23.6070  -15.4520 C.ar  261  PHE261     -0.0042
     60  CD2       32.8830  -21.6300  -16.7540 C.ar  261  PHE261     -0.0042
     61  CE1       33.1710  -24.3570  -16.4630 C.ar  261  PHE261     -0.0003
     62  CE2       33.4520  -22.3770  -17.7700 C.ar  261  PHE261     -0.0003
     63  CZ        33.5960  -23.7420  -17.6250 C.ar  261  PHE261     -0.0000
     64  N         29.8650  -19.8100  -19.4250 N.3   263  SER263     -0.1217
     65  CA        30.7810  -19.8910  -20.5500 C.3   263  SER263      0.1889
     66  C         30.1370  -19.2720  -21.7800 C.2   263  SER263      0.2288
     67  O         28.9320  -19.4220  -22.0070 O.2   263  SER263     -0.2866
     68  CB        31.1740  -21.3430  -20.8430 C.3   263  SER263      0.2089
     69  OG        31.6040  -21.4890  -22.1850 O.3   263  SER263     -0.2183
     70  N         30.5790  -19.4070  -25.8300 N.3   265  GLU265     -0.1245
     71  CA        31.2240  -20.0720  -26.9490 C.3   265  GLU265      0.1567
     72  C         30.5450  -19.6160  -28.2290 C.2   265  GLU265      0.2260
     73  O         29.3170  -19.5000  -28.2810 O.2   265  GLU265     -0.2867
     74  CB        31.1440  -21.6000  -26.7930 C.3   265  GLU265      0.0388
     75  CG        31.7810  -22.1130  -25.5010 C.3   265  GLU265      0.1160
     76  CD        31.9790  -23.6180  -25.4870 C.2   265  GLU265      0.3649
     77  OE1       31.7930  -24.2600  -26.5420 O.co2 265  GLU265     -0.2457
     78  OE2       32.3360  -24.1590  -24.4180 O.co2 265  GLU265     -0.2457
     79  N         45.4180  -20.8560  -26.6830 N.3   407  GLU407     -0.1245
     80  CA        44.7970  -20.4330  -25.4410 C.3   407  GLU407      0.1567
     81  C         45.1990  -18.9920  -25.1670 C.2   407  GLU407      0.2260
     82  O         46.2070  -18.5020  -25.6830 O.2   407  GLU407     -0.2867
     83  CB        45.2170  -21.3350  -24.2730 C.3   407  GLU407      0.0388
     84  CG        44.5420  -22.6980  -24.2670 C.3   407  GLU407      0.1160
     85  CD        45.0240  -23.5810  -23.1330 C.2   407  GLU407      0.3649
     86  OE1       46.1790  -24.0550  -23.1950 O.co2 407  GLU407     -0.2457
     87  OE2       44.2480  -23.8030  -22.1820 O.co2 407  GLU407     -0.2457
     88  N         43.7770  -19.1860  -17.6540 N.3   414  GLU414     -0.1231
     89  CA        43.2740  -19.3790  -19.0090 C.3   414  GLU414      0.1699
     90  C         41.8270  -18.9040  -19.0680 C.2   414  GLU414      0.2592
     91  O         40.9560  -19.4650  -18.3960 O.2   414  GLU414     -0.2718
     92  CB        43.3880  -20.8510  -19.4030 C.3   414  GLU414      0.0402
     93  CG        42.8510  -21.8110  -18.3380 C.3   414  GLU414      0.1161
     94  CD        43.0730  -23.2700  -18.6700 C.2   414  GLU414      0.3649
     95  OE1       43.9830  -23.5730  -19.4680 O.co2 414  GLU414     -0.2457
     96  OE2       42.3310  -24.1170  -18.1310 O.co2 414  GLU414     -0.2457
     97  N         41.5610  -17.8660  -19.8600 N.am  415  ILE415     -0.1966
     98  CA        40.1940  -17.3640  -19.9780 C.3   415  ILE415      0.1727
     99  C         39.5810  -17.6370  -21.3420 C.2   415  ILE415      0.2616
    100  O         38.3520  -17.5060  -21.4890 O.2   415  ILE415     -0.2715
    101  CB        40.1000  -15.8600  -19.6410 C.3   415  ILE415      0.0290
    102  CG1       40.7090  -15.0050  -20.7460 C.3   415  ILE415      0.0022
    103  CG2       40.7860  -15.5710  -18.3170 C.3   415  ILE415      0.0023
    104  CD1       40.6110  -13.5180  -20.4810 C.3   415  ILE415      0.0001
    105  N         40.3740  -18.0570  -22.3250 N.am  416  VAL416     -0.1963
    106  CA        39.9000  -18.2780  -23.6850 C.3   416  VAL416      0.1727
    107  C         40.5540  -19.5400  -24.2320 C.2   416  VAL416      0.2616
    108  O         41.7280  -19.8150  -23.9640 O.2   416  VAL416     -0.2715
    109  CB        40.2150  -17.0720  -24.6000 C.3   416  VAL416      0.0290
    110  CG1       39.8210  -17.3570  -26.0360 C.3   416  VAL416      0.0023
    111  CG2       39.5150  -15.8100  -24.1090 C.3   416  VAL416      0.0023
    112  N         39.7830  -20.3070  -25.0010 N.am  417  ASN417     -0.1972
    113  CA        40.2650  -21.4940  -25.6950 C.3   417  ASN417      0.1688
    114  C         39.6050  -21.5220  -27.0620 C.2   417  ASN417      0.2292
    115  O         38.3740  -21.4790  -27.1580 O.2   417  ASN417     -0.2864
    116  CB        39.9470  -22.7740  -24.9150 C.3   417  ASN417      0.1181
    117  CG        40.8660  -23.9270  -25.2840 C.2   417  ASN417      0.2629
    118  OD1       41.3820  -23.9930  -26.4020 O.2   417  ASN417     -0.2716
    119  ND2       41.0750  -24.8430  -24.3450 N.am  417  ASN417     -0.0877
    120  N         35.8870  -19.9990  -27.3220 N.3   456  GLY456     -0.1210
    121  CA        35.1900  -20.0810  -26.0500 C.3   456  GLY456      0.1956
    122  C         35.9320  -19.3160  -24.9800 C.2   456  GLY456      0.2612
    123  O         37.1520  -19.1420  -25.0500 O.2   456  GLY456     -0.2717
    124  N         35.1860  -18.8540  -23.9800 N.am  457  MET457     -0.1965
    125  CA        35.7430  -18.0150  -22.9300 C.3   457  MET457      0.1736
    126  C         34.9560  -18.2180  -21.6470 C.2   457  MET457      0.2617
    127  O         33.7230  -18.2970  -21.6690 O.2   457  MET457     -0.2715
    128  CB        35.7280  -16.5350  -23.3190 C.3   457  MET457      0.0427
    129  CG        35.9300  -15.5760  -22.1600 C.3   457  MET457      0.0599
    130  SD        35.8900  -13.8470  -22.6600 S.3   457  MET457     -0.1393
    131  CE        34.1970  -13.6920  -23.2170 C.3   457  MET457      0.0692
    132  N         35.6790  -18.2950  -20.5320 N.am  458  GLY458     -0.1955
    133  CA        35.0420  -18.2580  -19.2300 C.3   458  GLY458      0.1869
    134  C         34.5490  -16.8560  -18.9200 C.2   458  GLY458      0.2309
    135  O         35.3490  -15.9060  -18.8730 O.2   458  GLY458     -0.2863
    136  N         32.8420  -15.8790  -16.0440 N.3   460  ASP460     -0.1225
    137  CA        33.1010  -15.5590  -14.6450 C.3   460  ASP460      0.1805
    138  C         34.5550  -15.1750  -14.4130 C.2   460  ASP460      0.2597
    139  O         34.8490  -14.3900  -13.5060 O.2   460  ASP460     -0.2718
    140  CB        32.7190  -16.7420  -13.7570 C.3   460  ASP460      0.1424
    141  CG        33.1300  -18.1360  -13.9700 C.2   460  ASP460      0.3668
    142  OD1       33.9150  -18.4030  -14.9100 O.co2 460  ASP460     -0.2456
    143  OD2       32.3870  -18.9330  -13.3060 O.co2 460  ASP460     -0.2456
    144  N         35.4750  -15.7250  -15.2090 N.am  461  ARG461     -0.1979
    145  CA        36.8950  -15.4560  -15.0120 C.3   461  ARG461      0.1597
    146  C         37.2950  -14.1000  -15.5880 C.2   461  ARG461      0.2287
    147  O         38.0710  -13.3610  -14.9660 O.2   461  ARG461     -0.2864
    148  CB        37.7190  -16.5820  -15.6370 C.3   461  ARG461      0.0334
    149  CG        39.1690  -16.6170  -15.2090 C.3   461  ARG461      0.0492
    150  CD        39.7650  -17.9910  -15.4640 C.3   461  ARG461      0.2205
    151  NE        39.2720  -18.9840  -14.5120 N.pl3 461  ARG461     -0.0865
    152  CZ        39.6880  -20.2460  -14.4650 C.cat 461  ARG461      0.5346
    153  NH1       40.6070  -20.6760  -15.3180 N.pl3 461  ARG461      0.1354
    154  NH2       39.1850  -21.0800  -13.5660 N.pl3 461  ARG461      0.1354
    155  N         36.7980  -16.3660   -7.2790 N.3   472  ILE472     -0.1245
    156  CA        35.6670  -16.3910   -8.2020 C.3   472  ILE472      0.1561
    157  C         34.3470  -16.2230   -7.4650 C.2   472  ILE472      0.2260
    158  O         33.3470  -15.8100   -8.0650 O.2   472  ILE472     -0.2867
    159  CB        35.6720  -17.6900   -9.0320 C.3   472  ILE472      0.0252
    160  CG1       34.7130  -17.5760  -10.2190 C.3   472  ILE472      0.0019
    161  CG2       35.3120  -18.8890   -8.1630 C.3   472  ILE472      0.0019
    162  CD1       34.8250  -18.7120  -11.2090 C.3   472  ILE472      0.0001
@<TRIPOS>BOND
     1    73    72    2
     2    72    71    1
     3   120   121    1
     4   115   114    2
     5   114   113    1
     6    71    74    1
     7    71    70    1
     8    74    75    1
     9    79    80    1
    10    77    76   ar
    11   118   117    2
    12   121   122    1
    13   110   109    1
    14   113   112    1
    15   113   116    1
    16    82    81    2
    17    75    76    1
    18    76    78   ar
    19    80    81    1
    20    80    83    1
    21   117   116    1
    22   117   119   am
    23   123   122    2
    24   112   107   am
    25   122   124   am
    26   109   111    1
    27   109   106    1
    28    83    84    1
    29    84    85    1
    30   107   108    2
    31   107   106    1
    32   124   125    1
    33   106   105    1
    34   128   125    1
    35   128   129    1
    36   131   130    1
    37    86    85   ar
    38    85    87   ar
    39   125   126    1
    40   130   129    1
    41   105    99   am
    42    69    68    1
    43    67    66    2
    44    66    65    1
    45   127   126    2
    46   126   132   am
    47   100    99    2
    48    99    98    1
    49    68    65    1
    50   102   104    1
    51   102   101    1
    52    65    64    1
    53   132   133    1
    54    18    16    1
    55     7     5    1
    56    98    97    1
    57    98   101    1
    58    97    90   am
    59   101   103    1
    60    95    94   ar
    61    92    89    1
    62    92    93    1
    63   133   134    1
    64    16    17    1
    65    16    15    2
    66    90    89    1
    67    90    91    2
    68    89    88    1
    69   134   135    2
    70     5     6    1
    71     5     2    1
    72    94    93    1
    73    94    96   ar
    74    15    14    1
    75     2     1    1
    76     2     3    1
    77    62    63   ar
    78    62    60   ar
    79    63    61   ar
    80    14    13    1
    81    60    58   ar
    82     3     4    2
    83    56    55    2
    84    61    59   ar
    85    13    12    1
    86   136   137    1
    87    55    54    1
    88   148   149    1
    89   148   145    1
    90   146   145    1
    91   146   147    2
    92    58    59   ar
    93    58    57    1
    94   150   149    1
    95   150   151    1
    96   153   152    1
    97   144   145    1
    98   144   138   am
    99    27    25   ar
   100    12     9    1
   101   142   141   ar
   102   137   138    1
   103   137   140    1
   104   151   152    2
   105     8     9    1
   106    57    54    1
   107   152   154    1
   108    54    53    1
   109     9    10    1
   110   138   139    2
   111    25    26   ar
   112    25    24    1
   113   141   140    1
   114   141   143   ar
   115    10    11    2
   116    24    23    1
   117    44    42   ar
   118    44    43   ar
   119    42    40   ar
   120    23    20    1
   121    48    47    2
   122    43    41   ar
   123    31    30    2
   124    19    20    1
   125   162   160    1
   126    40    41   ar
   127    40    39    1
   128    20    21    1
   129    32    34    1
   130    32    33    1
   131    32    29    1
   132    47    46    1
   133    30    29    1
   134    30    35   am
   135   160   159    1
   136    36    39    1
   137    36    35    1
   138    36    37    1
   139    45    46    1
   140    45    37   am
   141    29    28    1
   142    49    46    1
   143    49    50    1
   144    21    22    2
   145    52    50   am
   146    37    38    2
   147   159   156    1
   148   159   161    1
   149    50    51    2
   150   156   157    1
   151   156   155    1
   152   158   157    2
