@<TRIPOS>MOLECULE
tmp/5hguA00.pdb
 202 188 0 0 0
SMALL
GASTEIGER

@<TRIPOS>ATOM
      1  N        -11.5390   23.3380   99.1140 N.3    12  PHE12      -0.1241
      2  CA       -11.1210   22.3040   98.1860 C.3    12  PHE12       0.1605
      3  C         -9.8270   22.7600   97.5670 C.2    12  PHE12       0.2264
      4  O         -9.6790   23.9380   97.1960 O.2    12  PHE12      -0.2867
      5  CB       -12.1800   22.0450   97.1190 C.3    12  PHE12       0.0534
      6  CG       -11.7740   21.0390   96.1010 C.ar   12  PHE12      -0.0203
      7  CD1      -12.0140   19.6960   96.3140 C.ar   12  PHE12      -0.0042
      8  CD2      -11.1330   21.4340   94.9200 C.ar   12  PHE12      -0.0042
      9  CE1      -11.6420   18.7590   95.3720 C.ar   12  PHE12      -0.0003
     10  CE2      -10.7430   20.5050   93.9800 C.ar   12  PHE12      -0.0003
     11  CZ       -10.9950   19.1640   94.2000 C.ar   12  PHE12      -0.0000
     12  N         -6.1480   21.0110   95.2720 N.3    14  ALA14      -0.1245
     13  CA        -5.2890   19.9670   94.7640 C.3    14  ALA14       0.1562
     14  C         -3.9350   20.5940   94.5850 C.2    14  ALA14       0.2260
     15  O         -3.8230   21.7270   94.1290 O.2    14  ALA14      -0.2867
     16  CB        -5.8100   19.3940   93.4570 C.3    14  ALA14       0.0290
     17  N         -2.8380   23.7510   92.2180 N.3    23  PHE23      -0.1227
     18  CA        -3.3370   23.7050   90.8430 C.3    23  PHE23       0.1736
     19  C         -4.6810   24.4160   90.7730 C.2    23  PHE23       0.2595
     20  O         -4.9760   25.1470   89.8300 O.2    23  PHE23      -0.2718
     21  CB        -3.5200   22.2660   90.3900 C.3    23  PHE23       0.0547
     22  CG        -2.2700   21.4500   90.4820 C.ar   23  PHE23      -0.0202
     23  CD1       -1.1600   21.8100   89.7570 C.ar   23  PHE23      -0.0042
     24  CD2       -2.2090   20.3490   91.3260 C.ar   23  PHE23      -0.0042
     25  CE1        0.0380   21.0650   89.8360 C.ar   23  PHE23      -0.0003
     26  CE2       -1.0420   19.5840   91.4060 C.ar   23  PHE23      -0.0003
     27  CZ         0.0860   19.9410   90.6810 C.ar   23  PHE23      -0.0000
     28  N         -5.5060   24.1140   91.7730 N.am   24  VAL24      -0.1980
     29  CA        -6.8450   24.6950   91.9150 C.3    24  VAL24       0.1595
     30  C         -7.1220   24.8450   93.3930 C.2    24  VAL24       0.2287
     31  O         -6.5330   24.1270   94.2400 O.2    24  VAL24      -0.2864
     32  CB        -7.9430   23.8430   91.2540 C.3    24  VAL24       0.0276
     33  CG1       -7.7120   23.7120   89.7190 C.3    24  VAL24       0.0022
     34  CG2       -7.9960   22.4700   91.8740 C.3    24  VAL24       0.0022
     35  N        -12.7270   25.4890   86.4830 N.3    65  PHE65      -0.1241
     36  CA       -11.4230   25.7220   87.0510 C.3    65  PHE65       0.1605
     37  C        -10.4910   26.1940   85.9250 C.2    65  PHE65       0.2264
     38  O        -10.4670   25.6140   84.8430 O.2    65  PHE65      -0.2867
     39  CB       -10.8390   24.4420   87.6810 C.3    65  PHE65       0.0534
     40  CG       -11.2130   24.1950   89.0990 C.ar   65  PHE65      -0.0203
     41  CD1      -10.9420   25.1240   90.0890 C.ar   65  PHE65      -0.0042
     42  CD2      -11.7450   23.0010   89.4710 C.ar   65  PHE65      -0.0042
     43  CE1      -11.2410   24.8600   91.3780 C.ar   65  PHE65      -0.0003
     44  CE2      -12.0460   22.7530   90.7840 C.ar   65  PHE65      -0.0003
     45  CZ       -11.7920   23.6590   91.7130 C.ar   65  PHE65      -0.0000
     46  N         -6.7020   26.1570   85.8960 N.3    67  ALA67      -0.1245
     47  CA        -5.6880   25.5660   86.7510 C.3    67  ALA67       0.1562
     48  C         -4.3660   26.2530   86.5230 C.2    67  ALA67       0.2260
     49  O         -4.0520   26.6830   85.3970 O.2    67  ALA67      -0.2867
     50  CB        -5.5510   23.9800   86.4840 C.3    67  ALA67       0.0290
     51  N         -0.7620   25.3330   86.1220 N.3    69  LEU69      -0.1245
     52  CA         0.1260   24.2070   85.8670 C.3    69  LEU69       0.1561
     53  C          1.5780   24.6280   85.7480 C.2    69  LEU69       0.2260
     54  O          2.3740   23.9260   85.1440 O.2    69  LEU69      -0.2867
     55  CB        -0.2890   23.4830   84.5890 C.3    69  LEU69       0.0270
     56  CG        -1.6990   22.9560   84.5770 C.3    69  LEU69       0.0019
     57  CD1       -1.8440   22.0620   83.4040 C.3    69  LEU69       0.0001
     58  CD2       -1.9900   22.1930   85.8090 C.3    69  LEU69       0.0001
     59  N         -4.8970   15.8840   97.3420 N.3    76  VAL76      -0.1245
     60  CA        -6.1810   16.5230   97.2450 C.3    76  VAL76       0.1561
     61  C         -6.7020   16.6940   98.6950 C.2    76  VAL76       0.2260
     62  O         -6.6400   15.7660   99.5050 O.2    76  VAL76      -0.2867
     63  CB        -7.1420   15.7150   96.3670 C.3    76  VAL76       0.0252
     64  CG1       -8.5280   16.3860   96.3210 C.3    76  VAL76       0.0019
     65  CG2       -6.6090   15.6120   94.9670 C.3    76  VAL76       0.0019
     66  N        -15.4620   10.3470   93.8780 N.3    92  SER92      -0.1217
     67  CA       -14.9090   11.1440   92.7940 C.3    92  SER92       0.1889
     68  C        -14.6140   10.3020   91.5730 C.2    92  SER92       0.2288
     69  O        -13.9270    9.2520   91.6760 O.2    92  SER92      -0.2866
     70  CB       -13.6390   11.8370   93.2400 C.3    92  SER92       0.2089
     71  OG       -13.8310   12.4000   94.5070 O.3    92  SER92      -0.2183
     72  N        -13.2320   10.4640   87.6440 N.3    94  VAL94      -0.1245
     73  CA       -12.5150   11.1810   86.6260 C.3    94  VAL94       0.1561
     74  C        -12.9180   10.5900   85.3160 C.2    94  VAL94       0.2260
     75  O        -12.8630    9.3610   85.1400 O.2    94  VAL94      -0.2867
     76  CB       -10.9910   11.0760   86.7920 C.3    94  VAL94       0.0252
     77  CG1      -10.2890   11.8070   85.6400 C.3    94  VAL94       0.0019
     78  CG2      -10.5810   11.5830   88.1190 C.3    94  VAL94       0.0019
     79  N        -11.3230    6.8160   86.4210 N.3   102  VAL102     -0.1245
     80  CA       -11.0340    6.6290   87.8430 C.3   102  VAL102      0.1561
     81  C        -12.3170    6.7000   88.6430 C.2   102  VAL102      0.2260
     82  O        -13.1420    7.5650   88.3690 O.2   102  VAL102     -0.2867
     83  CB       -10.0650    7.7130   88.3760 C.3   102  VAL102      0.0252
     84  CG1       -9.6780    7.4380   89.8200 C.3   102  VAL102      0.0019
     85  CG2       -8.8270    7.8270   87.5360 C.3   102  VAL102      0.0019
     86  N        -12.7950    7.0050   92.8610 N.3   104  LYS104     -0.1245
     87  CA       -12.2160    7.0280   94.1960 C.3   104  LYS104      0.1561
     88  C        -13.3550    7.2280   95.1980 C.2   104  LYS104      0.2260
     89  O        -14.1440    8.1800   95.0870 O.2   104  LYS104     -0.2867
     90  CB       -11.1750    8.1510   94.2890 C.3   104  LYS104      0.0271
     91  CG       -10.4990    8.2540   95.6340 C.3   104  LYS104      0.0035
     92  CD        -9.3300    9.2600   95.6120 C.3   104  LYS104      0.0206
     93  CE        -9.3290   10.0860   96.8660 C.3   104  LYS104      0.1093
     94  NZ        -8.0990   10.8540   97.1130 N.3   104  LYS104     -0.1314
     95  N         -3.2980   11.9280   95.3600 N.3   126  MET126     -0.1230
     96  CA        -3.9710   12.1220   94.0830 C.3   126  MET126      0.1702
     97  C         -3.8130   10.8160   93.2890 C.2   126  MET126      0.2592
     98  O         -2.7680   10.1910   93.3440 O.2   126  MET126     -0.2718
     99  CB        -3.3610   13.3340   93.3550 C.3   126  MET126      0.0401
    100  CG        -3.9090   13.6410   92.0090 C.3   126  MET126      0.0596
    101  SD        -3.0390   15.0510   91.2690 S.3   126  MET126     -0.1393
    102  CE        -3.6130   16.3940   92.3070 C.3   126  MET126      0.0692
    103  N         -4.8420   10.3800   92.5720 N.am  127  CYS127     -0.1970
    104  CA        -4.7270    9.1750   91.7480 C.3   127  CYS127      0.1712
    105  C         -3.5990    9.3520   90.7560 C.2   127  CYS127      0.2296
    106  O         -3.3010   10.4710   90.3080 O.2   127  CYS127     -0.2864
    107  CB        -6.0410    8.8680   91.0000 C.3   127  CYS127      0.0983
    108  SG        -6.6560   10.1720   89.9340 S.3   127  CYS127     -0.0798
    109  N         -4.2120   10.9510   87.2420 N.3   130  LEU130     -0.1245
    110  CA        -4.0640   12.4010   87.2500 C.3   130  LEU130      0.1561
    111  C         -2.6140   12.8850   87.3830 C.2   130  LEU130      0.2260
    112  O         -2.2450   13.8870   86.7420 O.2   130  LEU130     -0.2867
    113  CB        -4.8920   13.0140   88.3790 C.3   130  LEU130      0.0270
    114  CG        -6.4040   13.0500   88.2170 C.3   130  LEU130      0.0019
    115  CD1       -7.0430   13.7440   89.4010 C.3   130  LEU130      0.0001
    116  CD2       -6.7870   13.7670   86.9960 C.3   130  LEU130      0.0001
    117  N         -1.1370   12.3320   84.0450 N.3   133  PHE133     -0.1227
    118  CA        -1.7720   13.2680   83.1380 C.3   133  PHE133      0.1736
    119  C         -1.1910   14.6760   83.3230 C.2   133  PHE133      0.2595
    120  O         -0.8830   15.3720   82.3560 O.2   133  PHE133     -0.2718
    121  CB        -3.2600   13.3080   83.3910 C.3   133  PHE133      0.0547
    122  CG        -4.0050   14.1820   82.4450 C.ar  133  PHE133     -0.0202
    123  CD1       -3.9130   13.9800   81.0760 C.ar  133  PHE133     -0.0042
    124  CD2       -4.8450   15.1720   82.9170 C.ar  133  PHE133     -0.0042
    125  CE1       -4.6390   14.7820   80.2080 C.ar  133  PHE133     -0.0003
    126  CE2       -5.5790   15.9690   82.0490 C.ar  133  PHE133     -0.0003
    127  CZ        -5.4770   15.7680   80.7010 C.ar  133  PHE133     -0.0000
    128  N         -1.0580   15.0950   84.5760 N.am  134  LEU134     -0.1980
    129  CA        -0.4680   16.4000   84.8460 C.3   134  LEU134      0.1596
    130  C          0.9900   16.4890   84.3260 C.2   134  LEU134      0.2287
    131  O          1.3940   17.5190   83.8140 O.2   134  LEU134     -0.2864
    132  CB        -0.5040   16.7190   86.3180 C.3   134  LEU134      0.0297
    133  CG        -1.8570   17.1500   86.9050 C.3   134  LEU134      0.0022
    134  CD1       -1.7510   17.3480   88.4010 C.3   134  LEU134      0.0001
    135  CD2       -2.3390   18.4420   86.2780 C.3   134  LEU134      0.0001
    136  N          0.7240   17.0170   80.6090 N.3   137  LEU137     -0.1245
    137  CA         0.0430   18.2400   80.2850 C.3   137  LEU137      0.1561
    138  C          0.9530   19.4470   80.3860 C.2   137  LEU137      0.2260
    139  O          0.9720   20.3160   79.5100 O.2   137  LEU137     -0.2867
    140  CB        -1.1360   18.4050   81.2190 C.3   137  LEU137      0.0270
    141  CG        -2.2820   19.2940   80.7920 C.3   137  LEU137      0.0019
    142  CD1       -2.8390   18.9700   79.4290 C.3   137  LEU137      0.0001
    143  CD2       -3.3530   19.1000   81.8210 C.3   137  LEU137      0.0001
    144  N         -7.8220   19.4170   77.5940 N.3   150  LEU150     -0.1245
    145  CA        -8.6740   19.4450   78.7790 C.3   150  LEU150      0.1561
    146  C        -10.1770   19.5130   78.4570 C.2   150  LEU150      0.2260
    147  O        -11.0170   19.1610   79.2990 O.2   150  LEU150     -0.2867
    148  CB        -8.2830   20.6210   79.6610 C.3   150  LEU150      0.0270
    149  CG        -7.0000   20.3560   80.4910 C.3   150  LEU150      0.0019
    150  CD1       -6.5290   21.6310   81.0820 C.3   150  LEU150      0.0001
    151  CD2       -7.1920   19.3740   81.6430 C.3   150  LEU150      0.0001
    152  N        -11.7860   16.2840   79.5510 N.3   153  PHE153     -0.1241
    153  CA       -11.4260   15.8020   80.8700 C.3   153  PHE153      0.1605
    154  C        -12.2950   16.4290   81.9150 C.2   153  PHE153      0.2264
    155  O        -12.3780   17.6560   82.0020 O.2   153  PHE153     -0.2867
    156  CB        -9.9760   16.1250   81.1270 C.3   153  PHE153      0.0534
    157  CG        -9.5460   15.9050   82.5140 C.ar  153  PHE153     -0.0203
    158  CD1       -9.0530   14.6710   82.9010 C.ar  153  PHE153     -0.0042
    159  CD2       -9.6090   16.9320   83.4490 C.ar  153  PHE153     -0.0042
    160  CE1       -8.6430   14.4620   84.1860 C.ar  153  PHE153     -0.0003
    161  CE2       -9.1980   16.7240   84.7440 C.ar  153  PHE153     -0.0003
    162  CZ        -8.7180   15.4940   85.1100 C.ar  153  PHE153     -0.0000
    163  N        -14.3740   15.8610   86.0080 N.3   155  ILE155     -0.1245
    164  CA       -14.5770   15.1680   87.2530 C.3   155  ILE155      0.1561
    165  C        -15.9860   15.3450   87.7820 C.2   155  ILE155      0.2260
    166  O        -16.5670   16.4200   87.6750 O.2   155  ILE155     -0.2867
    167  CB       -13.5540   15.6350   88.2740 C.3   155  ILE155      0.0252
    168  CG1      -12.1580   15.4300   87.6620 C.3   155  ILE155      0.0019
    169  CG2      -13.7600   14.8640   89.5620 C.3   155  ILE155      0.0019
    170  CD1      -11.0530   15.9020   88.4700 C.3   155  ILE155      0.0001
    171  N        -17.9900   14.7560   91.3150 N.3   157  GLN157     -0.1245
    172  CA       -17.9750   14.3760   92.7370 C.3   157  GLN157      0.1566
    173  C        -19.3670   14.2520   93.3170 C.2   157  GLN157      0.2260
    174  O        -20.1850   15.1670   93.1900 O.2   157  GLN157     -0.2867
    175  CB       -17.2030   15.3890   93.5520 C.3   157  GLN157      0.0367
    176  CG       -15.6980   15.3660   93.4060 C.3   157  GLN157      0.0905
    177  CD       -15.0170   16.1970   94.4700 C.2   157  GLN157      0.2608
    178  OE1      -15.5490   17.2090   94.9060 O.2   157  GLN157     -0.2717
    179  NE2      -13.8440   15.7640   94.9040 N.am  157  GLN157     -0.0878
    180  N        -16.9690   19.1270   87.5300 N.3   173  TYR173     -0.1241
    181  CA       -15.8020   19.9970   87.3260 C.3   173  TYR173      0.1605
    182  C        -15.2800   19.9870   85.8910 C.2   173  TYR173      0.2264
    183  O        -15.0600   18.9210   85.2900 O.2   173  TYR173     -0.2867
    184  CB       -14.6560   19.5920   88.2500 C.3   173  TYR173      0.0534
    185  CG       -14.9490   19.6620   89.7180 C.ar  173  TYR173     -0.0201
    186  CD1      -14.7470   20.8290   90.4170 C.ar  173  TYR173     -0.0009
    187  CD2      -15.3860   18.5460   90.4190 C.ar  173  TYR173     -0.0009
    188  CE1      -14.9680   20.8940   91.7860 C.ar  173  TYR173      0.0417
    189  CE2      -15.6350   18.6100   91.7870 C.ar  173  TYR173      0.0417
    190  CZ       -15.4110   19.7860   92.4670 C.ar  173  TYR173      0.1957
    191  OH       -15.6420   19.8740   93.8260 O.3   173  TYR173     -0.2866
    192  N        -12.3070   22.0880   83.2050 N.3   175  PHE175     -0.1241
    193  CA       -10.9790   22.6430   83.3350 C.3   175  PHE175      0.1605
    194  C        -10.4580   23.3570   82.0920 C.2   175  PHE175      0.2264
    195  O        -10.6240   22.9150   80.9470 O.2   175  PHE175     -0.2867
    196  CB        -9.9910   21.5610   83.6760 C.3   175  PHE175      0.0534
    197  CG       -10.2760   20.8850   84.9670 C.ar  175  PHE175     -0.0203
    198  CD1      -11.1430   19.8210   85.0070 C.ar  175  PHE175     -0.0042
    199  CD2       -9.6620   21.3080   86.1390 C.ar  175  PHE175     -0.0042
    200  CE1      -11.4300   19.2110   86.1780 C.ar  175  PHE175     -0.0003
    201  CE2       -9.9100   20.7010   87.3130 C.ar  175  PHE175     -0.0003
    202  CZ       -10.8060   19.6240   87.3400 C.ar  175  PHE175     -0.0000
@<TRIPOS>BOND
     1   144   145    1
     2   146   145    1
     3   146   147    2
     4   145   148    1
     5   142   141    1
     6   139   138    2
     7   152   153    1
     8   148   149    1
     9   125   127   ar
    10   125   123   ar
    11   137   138    1
    12   137   136    1
    13   137   140    1
    14   149   150    1
    15   149   151    1
    16   127   126   ar
    17   141   140    1
    18   141   143    1
    19   153   156    1
    20   153   154    1
    21   195   194    2
    22   123   122   ar
    23   156   157    1
    24   154   155    2
    25   126   124   ar
    26   194   193    1
    27   120   119    2
    28   122   124   ar
    29   122   121    1
    30   157   158   ar
    31   157   159   ar
    32   158   160   ar
    33   118   119    1
    34   118   121    1
    35   118   117    1
    36   192   193    1
    37   119   128   am
    38   193   196    1
    39    57    56    1
    40   159   161   ar
    41   196   197    1
    42   131   130    2
    43   160   162   ar
    44   130   129    1
    45   128   129    1
    46    56    55    1
    47    56    58    1
    48    55    52    1
    49   161   162   ar
    50    38    37    2
    51   129   132    1
    52   197   198   ar
    53   197   199   ar
    54   198   200   ar
    55    75    74    2
    56    54    53    2
    57   183   182    2
    58    74    73    1
    59    49    48    2
    60    77    76    1
    61    53    52    1
    62    52    51    1
    63   182   181    1
    64    46    47    1
    65    37    36    1
    66   163   164    1
    67   199   201   ar
    68   200   202   ar
    69   135   133    1
    70   132   133    1
    71    79    80    1
    72    35    36    1
    73    50    47    1
    74    48    47    1
    75    73    76    1
    76    73    72    1
    77   112   111    2
    78    76    78    1
    79   133   134    1
    80   116   114    1
    81    36    39    1
    82   109   110    1
    83   110   111    1
    84   110   113    1
    85   164   165    1
    86   164   167    1
    87   201   202   ar
    88   181   180    1
    89   181   184    1
    90    85    83    1
    91   168   167    1
    92   168   170    1
    93   166   165    2
    94    39    40    1
    95    80    83    1
    96    80    81    1
    97   114   113    1
    98   114   115    1
    99   184   185    1
   100   167   169    1
   101    82    81    2
   102    83    84    1
   103    40    42   ar
   104    40    41   ar
   105    42    44   ar
   106   185   186   ar
   107   185   187   ar
   108    33    32    1
   109    23    25   ar
   110    23    22   ar
   111    20    19    2
   112    25    27   ar
   113   108   107    1
   114    41    43   ar
   115   106   105    2
   116    21    22    1
   117    21    18    1
   118   186   188   ar
   119   187   189   ar
   120    22    24   ar
   121    27    26   ar
   122   105   104    1
   123    19    18    1
   124    19    28   am
   125    44    45   ar
   126    18    17    1
   127   107   104    1
   128    32    34    1
   129    32    29    1
   130   101   100    1
   131   101   102    1
   132   171   172    1
   133    24    26   ar
   134    43    45   ar
   135    68    69    2
   136    68    67    1
   137   104   103    1
   138    28    29    1
   139   188   190   ar
   140   189   190   ar
   141    29    30    1
   142   100    99    1
   143   190   191    1
   144   103    97   am
   145   172   173    1
   146   172   175    1
   147    67    70    1
   148    67    66    1
   149    86    87    1
   150   174   173    2
   151    70    71    1
   152    97    98    2
   153    97    96    1
   154    99    96    1
   155    30    31    2
   156   176   175    1
   157   176   177    1
   158    16    13    1
   159    10    11   ar
   160    10     8   ar
   161    96    95    1
   162    15    14    2
   163    87    90    1
   164    87    88    1
   165    11     9   ar
   166    90    91    1
   167   177   179   am
   168   177   178    2
   169    14    13    1
   170    13    12    1
   171     8     6   ar
   172    65    63    1
   173    89    88    2
   174     9     7   ar
   175    92    91    1
   176    92    93    1
   177     6     7   ar
   178     6     5    1
   179    64    63    1
   180    63    60    1
   181    93    94    1
   182     5     2    1
   183     4     3    2
   184    60    59    1
   185    60    61    1
   186     3     2    1
   187     2     1    1
   188    61    62    2
