@<TRIPOS>MOLECULE
tmp/5hgzA02.pdb
 104 101 0 0 0
SMALL
GASTEIGER

@<TRIPOS>ATOM
      1  N         -4.7470   50.2820   19.2560 N.3    41  SER41      -0.1202
      2  CA        -3.8290   49.3550   19.8600 C.3    41  SER41       0.2020
      3  C         -2.4800   50.0210   20.1600 C.2    41  SER41       0.2618
      4  O         -1.8500   49.6800   21.1220 O.2    41  SER41      -0.2717
      5  CB        -3.6450   48.0990   18.9880 C.3    41  SER41       0.2103
      6  OG        -3.1710   48.4340   17.7040 O.3    41  SER41      -0.2182
      7  N         -2.0360   50.9090   19.2850 N.am   42  TRP42      -0.1975
      8  CA        -0.7600   51.5920   19.4470 C.3    42  TRP42       0.1640
      9  C         -0.7540   52.4510   20.6920 C.2    42  TRP42       0.2290
     10  O          0.1640   52.3910   21.4550 O.2    42  TRP42      -0.2864
     11  CB        -0.5330   52.4590   18.2230 C.3    42  TRP42       0.0576
     12  CG         0.8070   53.0250   18.0520 C.ar   42  TRP42       0.0006
     13  CD1        1.8570   52.4260   17.4920 C.ar   42  TRP42       0.0946
     14  CD2        1.2190   54.3380   18.3840 C.ar   42  TRP42       0.0152
     15  NE1        2.9200   53.2660   17.4470 N.ar   42  TRP42      -0.2442
     16  CE2        2.5480   54.4600   17.9930 C.ar   42  TRP42       0.0810
     17  CE3        0.5890   55.4330   18.9600 C.ar   42  TRP42       0.0012
     18  CZ2        3.2750   55.6110   18.1810 C.ar   42  TRP42       0.0191
     19  CZ3        1.3210   56.5770   19.1410 C.ar   42  TRP42       0.0001
     20  CH2        2.6420   56.6610   18.7520 C.ar   42  TRP42       0.0015
     21  N         -0.6410   50.2040   23.7160 N.3    45  ASP45      -0.1225
     22  CA         0.6510   49.5930   23.9350 C.3    45  ASP45       0.1805
     23  C          1.7200   50.5690   24.4810 C.2    45  ASP45       0.2597
     24  O          2.3820   50.2770   25.4330 O.2    45  ASP45      -0.2718
     25  CB         1.1760   48.9570   22.6450 C.3    45  ASP45       0.1424
     26  CG         0.3390   47.7740   22.1610 C.2    45  ASP45       0.3668
     27  OD1       -0.4580   47.2190   22.9260 O.co2  45  ASP45      -0.2456
     28  OD2        0.5250   47.4010   20.9950 O.co2  45  ASP45      -0.2456
     29  N          1.8270   51.7360   23.8710 N.am   46  ILE46      -0.1980
     30  CA         2.8800   52.6810   24.2310 C.3    46  ILE46       0.1595
     31  C          2.7490   53.2400   25.6450 C.2    46  ILE46       0.2287
     32  O          3.7220   53.5220   26.2890 O.2    46  ILE46      -0.2864
     33  CB         3.1160   53.7650   23.1660 C.3    46  ILE46       0.0276
     34  CG1        1.9830   54.7790   23.1320 C.3    46  ILE46       0.0022
     35  CG2        3.3730   53.1170   21.8070 C.3    46  ILE46       0.0022
     36  CD1        2.3750   56.0990   22.5190 C.3    46  ILE46       0.0001
     37  N          7.7020   47.1910   28.0860 N.3    51  LYS51      -0.1231
     38  CA         8.7750   46.9580   27.1350 C.3    51  LYS51       0.1693
     39  C          9.1860   48.2290   26.4000 C.2    51  LYS51       0.2592
     40  O         10.2720   48.2990   25.8830 O.2    51  LYS51      -0.2718
     41  CB         8.4590   45.8260   26.1810 C.3    51  LYS51       0.0285
     42  CG         7.6260   46.2030   24.9880 C.3    51  LYS51       0.0035
     43  CD         7.2280   44.9400   24.2480 C.3    51  LYS51       0.0206
     44  CE         6.5420   45.2840   22.9680 C.3    51  LYS51       0.1093
     45  NZ         6.6180   44.1130   22.0640 N.3    51  LYS51      -0.1314
     46  N          8.2780   49.1930   26.3310 N.am   52  PHE52      -0.1976
     47  CA         8.5690   50.4860   25.7430 C.3    52  PHE52       0.1639
     48  C          9.1670   51.4720   26.7250 C.2    52  PHE52       0.2290
     49  O          8.8050   51.5060   27.8560 O.2    52  PHE52      -0.2864
     50  CB         7.3240   51.0960   25.1170 C.3    52  PHE52       0.0560
     51  CG         6.7120   50.2510   24.0640 C.ar   52  PHE52      -0.0200
     52  CD1        7.3080   50.1320   22.8390 C.ar   52  PHE52      -0.0042
     53  CD2        5.5470   49.5860   24.3000 C.ar   52  PHE52      -0.0042
     54  CE1        6.7620   49.3520   21.8640 C.ar   52  PHE52      -0.0003
     55  CE2        4.9920   48.7950   23.3220 C.ar   52  PHE52      -0.0003
     56  CZ         5.6040   48.6800   22.1040 C.ar   52  PHE52      -0.0000
     57  N         11.5180   51.3240   21.6010 N.3    70  GLU70      -0.1245
     58  CA        11.6530   49.9680   22.0970 C.3    70  GLU70       0.1567
     59  C         13.0720   49.4080   21.9120 C.2    70  GLU70       0.2260
     60  O         13.5410   49.3190   20.8180 O.2    70  GLU70      -0.2867
     61  CB        10.6210   49.0540   21.4360 C.3    70  GLU70       0.0388
     62  CG        10.5650   47.6860   22.1000 C.3    70  GLU70       0.1160
     63  CD         9.7310   46.6430   21.3860 C.2    70  GLU70       0.3649
     64  OE1        9.0620   46.9290   20.4060 O.co2  70  GLU70      -0.2457
     65  OE2        9.7740   45.5110   21.8590 O.co2  70  GLU70      -0.2457
     66  N         15.0950   46.2010   21.7590 N.3    72  LYS72      -0.1245
     67  CA        14.6750   44.8530   21.4280 C.3    72  LYS72       0.1561
     68  C         15.7880   44.0660   20.7610 C.2    72  LYS72       0.2260
     69  O         16.7180   44.6320   20.2890 O.2    72  LYS72      -0.2867
     70  CB        13.4390   44.8950   20.5370 C.3    72  LYS72       0.0271
     71  CG        13.6770   45.5710   19.2100 C.3    72  LYS72       0.0035
     72  CD        12.3380   45.8230   18.5510 C.3    72  LYS72       0.0206
     73  CE        12.5170   46.4690   17.2130 C.3    72  LYS72       0.1093
     74  NZ        11.2160   46.8690   16.6470 N.3    72  LYS72      -0.1314
     75  N         11.9200   44.4680   11.7850 N.3    78  HIS78      -0.1241
     76  CA        11.0950   44.0360   10.6750 C.3    78  HIS78       0.1621
     77  C         11.9070   43.8810    9.4150 C.2    78  HIS78       0.2264
     78  O         12.8980   44.4980    9.2480 O.2    78  HIS78      -0.2867
     79  CB         9.9400   44.9890   10.4770 C.3    78  HIS78       0.0745
     80  CG         8.9810   44.9850   11.6130 C.ar   78  HIS78       0.0817
     81  ND1        7.8580   45.7680   11.6360 N.ar   78  HIS78      -0.2268
     82  CD2        8.9950   44.3130   12.7810 C.ar   78  HIS78       0.1154
     83  CE1        7.2000   45.5520   12.7560 C.ar   78  HIS78       0.1986
     84  NE2        7.8750   44.6830   13.4710 N.ar   78  HIS78      -0.2212
     85  N         14.4000   51.0710   18.5510 N.3    97  TYR97      -0.1241
     86  CA        13.5560   51.6170   17.5180 C.3    97  TYR97       0.1605
     87  C         12.8030   52.7730   18.1030 C.2    97  TYR97       0.2264
     88  O         12.1910   52.6180   19.1140 O.2    97  TYR97      -0.2867
     89  CB        12.5490   50.5810   17.0270 C.3    97  TYR97       0.0534
     90  CG        11.6230   51.0910   15.9390 C.ar   97  TYR97      -0.0201
     91  CD1       12.1220   51.6240   14.7850 C.ar   97  TYR97      -0.0009
     92  CD2       10.2610   51.0590   16.1020 C.ar   97  TYR97      -0.0009
     93  CE1       11.2910   52.1010   13.8050 C.ar   97  TYR97       0.0417
     94  CE2        9.4140   51.5320   15.1210 C.ar   97  TYR97       0.0417
     95  CZ         9.9430   52.0550   13.9750 C.ar   97  TYR97       0.1957
     96  OH         9.1180   52.5300   12.9960 O.3    97  TYR97      -0.2866
     97  N          9.6460   54.6030   17.8090 N.3    99  LEU99      -0.1245
     98  CA         8.2920   54.5830   17.2840 C.3    99  LEU99       0.1561
     99  C          7.7770   55.9850   16.9840 C.2    99  LEU99       0.2260
    100  O          7.1120   56.1940   16.0220 O.2    99  LEU99      -0.2867
    101  CB         7.3510   53.8830   18.2590 C.3    99  LEU99       0.0270
    102  CG         7.4770   52.3700   18.4800 C.3    99  LEU99       0.0019
    103  CD1        8.6630   51.9750   19.3240 C.3    99  LEU99       0.0001
    104  CD2        6.2080   51.8430   19.1130 C.3    99  LEU99       0.0001
@<TRIPOS>BOND
     1    78    77    2
     2    77    76    1
     3    79    76    1
     4    79    80    1
     5    76    75    1
     6    80    81   ar
     7    80    82   ar
     8    81    83   ar
     9    83    84   ar
    10    82    84   ar
    11    96    95    1
    12    93    95   ar
    13    93    91   ar
    14    95    94   ar
    15    91    90   ar
    16    94    92   ar
    17    90    92   ar
    18    90    89    1
    19   100    99    2
    20    74    73    1
    21    99    98    1
    22    89    86    1
    23    73    72    1
    24    98    97    1
    25    98   101    1
    26    15    13   ar
    27    15    16   ar
    28    13    12   ar
    29    86    87    1
    30    86    85    1
    31     6     5    1
    32    16    18   ar
    33    16    14   ar
    34    12    11    1
    35    12    14   ar
    36    87    88    2
    37    18    20   ar
    38    11     8    1
    39   101   102    1
    40    14    17   ar
    41   102   104    1
    42   102   103    1
    43    72    71    1
    44    20    19   ar
    45    17    19   ar
    46     5     2    1
    47    71    70    1
    48     1     2    1
    49     7     8    1
    50     7     3   am
    51     8     9    1
    52     2     3    1
    53     3     4    2
    54    69    68    2
    55    64    63   ar
    56    70    67    1
    57     9    10    2
    58    68    67    1
    59    60    59    2
    60    28    26   ar
    61    63    65   ar
    62    63    62    1
    63    67    66    1
    64    61    58    1
    65    61    62    1
    66    57    58    1
    67    35    33    1
    68    54    56   ar
    69    54    52   ar
    70    59    58    1
    71    45    44    1
    72    56    55   ar
    73    26    25    1
    74    26    27   ar
    75    36    34    1
    76    25    22    1
    77    52    51   ar
    78    44    43    1
    79    34    33    1
    80    33    30    1
    81    55    53   ar
    82    21    22    1
    83    29    30    1
    84    29    23   am
    85    22    23    1
    86    51    53   ar
    87    51    50    1
    88    30    31    1
    89    43    42    1
    90    23    24    2
    91    42    41    1
    92    50    47    1
    93    31    32    2
    94    47    46    1
    95    47    48    1
    96    40    39    2
    97    41    38    1
    98    46    39   am
    99    39    38    1
   100    48    49    2
   101    38    37    1
