@<TRIPOS>MOLECULE
tmp/5hgzA01.pdb
 111 112 0 0 0
SMALL
GASTEIGER

@<TRIPOS>ATOM
      1  N          0.5000   66.1910   15.7520 N.3    33  TRP33      -0.1227
      2  CA         1.9070   66.0620   15.3650 C.3    33  TRP33       0.1737
      3  C          2.1870   65.4070   14.0320 C.2    33  TRP33       0.2595
      4  O          3.1270   65.7400   13.3550 O.2    33  TRP33      -0.2718
      5  CB         2.6910   65.2980   16.4330 C.3    33  TRP33       0.0564
      6  CG         2.8010   66.0090   17.6950 C.ar   33  TRP33       0.0003
      7  CD1        2.6490   67.3310   17.8770 C.ar   33  TRP33       0.0946
      8  CD2        3.0810   65.4530   18.9760 C.ar   33  TRP33       0.0152
      9  NE1        2.8170   67.6440   19.1910 N.ar   33  TRP33      -0.2442
     10  CE2        3.0840   66.5050   19.8910 C.ar   33  TRP33       0.0810
     11  CE3        3.3300   64.1680   19.4400 C.ar   33  TRP33       0.0012
     12  CZ2        3.3290   66.3190   21.2380 C.ar   33  TRP33       0.0191
     13  CZ3        3.5600   63.9910   20.7820 C.ar   33  TRP33       0.0001
     14  CH2        3.5570   65.0590   21.6590 C.ar   33  TRP33       0.0015
     15  N          1.4060   64.3880   13.7380 N.am   34  PHE34      -0.1963
     16  CA         1.6470   63.5190   12.6100 C.3    34  PHE34       0.1756
     17  C          0.4330   63.4850   11.6910 C.2    34  PHE34       0.2461
     18  O         -0.6760   63.4180   12.1540 O.2    34  PHE34      -0.2730
     19  CB         1.9360   62.1090   13.1160 C.3    34  PHE34       0.0574
     20  CG         2.9160   62.0540   14.2480 C.ar   34  PHE34      -0.0200
     21  CD1        4.2340   62.4020   14.0520 C.ar   34  PHE34      -0.0042
     22  CD2        2.5180   61.6410   15.4960 C.ar   34  PHE34      -0.0042
     23  CE1        5.1340   62.3450   15.0800 C.ar   34  PHE34      -0.0003
     24  CE2        3.4100   61.5950   16.5290 C.ar   34  PHE34      -0.0003
     25  CZ         4.7210   61.9520   16.3180 C.ar   34  PHE34      -0.0000
     26  N          0.6640   63.5180   10.3850 N.am   35  PRO35      -0.2716
     27  CA        -0.4360   63.4790    9.4210 C.3    35  PRO35       0.1536
     28  C         -0.9530   62.0710    9.2040 C.2    35  PRO35       0.2598
     29  O         -1.9660   61.8870    8.5810 O.2    35  PRO35      -0.2715
     30  CB         0.2000   64.0070    8.1460 C.3    35  PRO35       0.0310
     31  CG         1.6250   63.5940    8.2670 C.3    35  PRO35       0.0237
     32  CD         1.9620   63.7020    9.7220 C.3    35  PRO35       0.0939
     33  N         -0.2070   61.0980    9.6840 N.am   36  ILE36      -0.1978
     34  CA        -0.6340   59.7150    9.6500 C.3    36  ILE36       0.1596
     35  C         -1.5620   59.4320   10.8310 C.2    36  ILE36       0.2287
     36  O         -1.7400   60.2710   11.6680 O.2    36  ILE36      -0.2864
     37  CB         0.5370   58.7190    9.6100 C.3    36  ILE36       0.0276
     38  CG1        1.3390   58.7640   10.8980 C.3    36  ILE36       0.0022
     39  CG2        1.4400   58.9870    8.4220 C.3    36  ILE36       0.0022
     40  CD1        2.3600   57.6660   10.9700 C.3    36  ILE36       0.0001
     41  N         -2.6060   56.5080   13.8570 N.3    38  TYR38      -0.1241
     42  CA        -2.2960   55.3240   14.6380 C.3    38  TYR38       0.1605
     43  C         -3.5470   54.7000   15.2220 C.2    38  TYR38       0.2264
     44  O         -4.4360   55.3790   15.6670 O.2    38  TYR38      -0.2867
     45  CB        -1.3390   55.6570   15.7750 C.3    38  TYR38       0.0534
     46  CG         0.0560   55.9860   15.3430 C.ar   38  TYR38      -0.0201
     47  CD1        0.9210   55.0090   14.9120 C.ar   38  TYR38      -0.0009
     48  CD2        0.5070   57.2700   15.3800 C.ar   38  TYR38      -0.0009
     49  CE1        2.1990   55.3170   14.5100 C.ar   38  TYR38       0.0417
     50  CE2        1.7760   57.5870   14.9870 C.ar   38  TYR38       0.0417
     51  CZ         2.6140   56.6060   14.5610 C.ar   38  TYR38       0.1957
     52  OH         3.8790   56.9400   14.1900 O.3    38  TYR38      -0.2866
     53  N          9.6460   54.6030   17.8090 N.3    99  LEU99      -0.1231
     54  CA         8.2920   54.5830   17.2840 C.3    99  LEU99       0.1693
     55  C          7.7770   55.9850   16.9840 C.2    99  LEU99       0.2592
     56  O          7.1120   56.1940   16.0220 O.2    99  LEU99      -0.2718
     57  CB         7.3510   53.8830   18.2590 C.3    99  LEU99       0.0284
     58  CG         7.4770   52.3700   18.4800 C.3    99  LEU99       0.0019
     59  CD1        8.6630   51.9750   19.3240 C.3    99  LEU99       0.0001
     60  CD2        6.2080   51.8430   19.1130 C.3    99  LEU99       0.0001
     61  N          8.0770   56.9230   17.8670 N.am  100  SER100     -0.1952
     62  CA         7.5350   58.2580   17.7680 C.3   100  SER100      0.1924
     63  C          8.3880   59.3050   18.4740 C.2   100  SER100      0.2314
     64  O          8.9460   59.0390   19.5070 O.2   100  SER100     -0.2863
     65  CB         6.1460   58.2440   18.3970 C.3   100  SER100      0.2116
     66  OG         5.4430   59.4250   18.1220 O.3   100  SER100     -0.2180
     67  N         11.8320   55.7720   11.3030 N.3   138  HIS138     -0.1226
     68  CA        11.3230   56.1050    9.9930 C.3   138  HIS138      0.1752
     69  C         10.7150   57.4990    9.9630 C.2   138  HIS138      0.2596
     70  O         10.1040   57.9260   10.9160 O.2   138  HIS138     -0.2718
     71  CB        10.2680   55.0890    9.5660 C.3   138  HIS138      0.0759
     72  CG        10.7710   53.6870    9.5270 C.ar  138  HIS138      0.0818
     73  ND1       10.4040   52.7460   10.4540 N.ar  138  HIS138     -0.2268
     74  CD2       11.6400   53.0780    8.6930 C.ar  138  HIS138      0.1154
     75  CE1       11.0020   51.6060   10.1720 C.ar  138  HIS138      0.1986
     76  NE2       11.7620   51.7820    9.1140 N.ar  138  HIS138     -0.2212
     77  N         10.8870   58.1780    8.8350 N.am  139  VAL139     -0.1966
     78  CA        10.2160   59.4390    8.5680 C.3   139  VAL139      0.1727
     79  C          9.5900   59.4510    7.1710 C.2   139  VAL139      0.2616
     80  O         10.0270   58.7650    6.2910 O.2   139  VAL139     -0.2715
     81  CB        11.1730   60.6620    8.6790 C.3   139  VAL139      0.0290
     82  CG1       11.7760   60.7370   10.0630 C.3   139  VAL139      0.0023
     83  CG2       12.2880   60.6020    7.6570 C.3   139  VAL139      0.0023
     84  N          8.5860   60.2900    6.9860 N.am  140  LEU140     -0.1977
     85  CA         8.0930   60.6140    5.6560 C.3   140  LEU140      0.1596
     86  C          9.1920   61.3090    4.8330 C.2   140  LEU140      0.2287
     87  O          9.9040   62.1140    5.3430 O.2   140  LEU140     -0.2864
     88  CB         6.8730   61.5280    5.7480 C.3   140  LEU140      0.0297
     89  CG         5.5970   60.8540    6.2030 C.3   140  LEU140      0.0022
     90  CD1        4.7400   61.9000    6.8970 C.3   140  LEU140      0.0001
     91  CD2        4.8320   60.2540    5.0250 C.3   140  LEU140      0.0001
     92  N          9.2430   65.0230    5.0420 N.3   143  ASN143     -0.1240
     93  CA         9.4070   65.6650    6.3430 C.3   143  ASN143      0.1653
     94  C         10.7840   66.2670    6.5410 C.2   143  ASN143      0.2266
     95  O         11.5930   65.7460    7.2520 O.2   143  ASN143     -0.2867
     96  CB         9.0870   64.6610    7.4420 C.3   143  ASN143      0.1155
     97  CG         8.8750   65.3070    8.7990 C.2   143  ASN143      0.2627
     98  OD1        9.2590   66.4260    9.0360 O.2   143  ASN143     -0.2716
     99  ND2        8.2880   64.5620    9.6860 N.am  143  ASN143     -0.0877
    100  N          3.7570   54.7320    4.1350 N.3   165  TYR165     -0.1241
    101  CA         2.8090   55.4190    4.9880 C.3   165  TYR165      0.1605
    102  C          1.4900   55.6720    4.2660 C.2   165  TYR165      0.2264
    103  O          1.4330   55.6080    3.0690 O.2   165  TYR165     -0.2867
    104  CB         3.3720   56.7750    5.3880 C.3   165  TYR165      0.0534
    105  CG         4.5550   56.7780    6.3260 C.ar  165  TYR165     -0.0201
    106  CD1        4.4000   56.4930    7.6710 C.ar  165  TYR165     -0.0009
    107  CD2        5.8000   57.0950    5.8750 C.ar  165  TYR165     -0.0009
    108  CE1        5.4690   56.5440    8.5340 C.ar  165  TYR165      0.0417
    109  CE2        6.8610   57.1540    6.7250 C.ar  165  TYR165      0.0417
    110  CZ         6.6820   56.8740    8.0460 C.ar  165  TYR165      0.1957
    111  OH         7.7410   56.9440    8.8610 O.3   165  TYR165     -0.2866
@<TRIPOS>BOND
     1   103   102    2
     2   100   101    1
     3   102   101    1
     4    86    87    2
     5    86    85    1
     6   101   104    1
     7    91    89    1
     8    92    93    1
     9   104   105    1
    10    85    88    1
    11    85    84    1
    12    88    89    1
    13   107   105   ar
    14   107   109   ar
    15    89    90    1
    16    80    79    2
    17   105   106   ar
    18    93    94    1
    19    93    96    1
    20    94    95    2
    21   109   110   ar
    22    84    79   am
    23    79    78    1
    24    96    97    1
    25    83    81    1
    26   106   108   ar
    27   110   108   ar
    28   110   111    1
    29    30    31    1
    30    30    27    1
    31    31    32    1
    32    39    37    1
    33    78    81    1
    34    78    77    1
    35    29    28    2
    36    81    82    1
    37    74    76   ar
    38    74    72   ar
    39    97    98    2
    40    97    99   am
    41    77    69   am
    42    76    75   ar
    43    28    27    1
    44    28    33   am
    45    27    26    1
    46    72    71    1
    47    72    73   ar
    48    71    68    1
    49    37    34    1
    50    37    38    1
    51    34    33    1
    52    34    35    1
    53    32    26    1
    54    69    68    1
    55    69    70    2
    56    68    67    1
    57    75    73   ar
    58    26    17   am
    59    35    36    2
    60    38    40    1
    61    17    18    2
    62    17    16    1
    63    16    19    1
    64    16    15    1
    65    19    20    1
    66     4     3    2
    67    15     3   am
    68    41    42    1
    69     3     2    1
    70    21    20   ar
    71    21    23   ar
    72    52    51    1
    73    20    22   ar
    74    49    51   ar
    75    49    47   ar
    76    51    50   ar
    77    42    43    1
    78    42    45    1
    79    47    46   ar
    80    50    48   ar
    81    23    25   ar
    82    43    44    2
    83    46    48   ar
    84    46    45    1
    85     2     1    1
    86     2     5    1
    87    22    24   ar
    88    56    55    2
    89    25    24   ar
    90     5     6    1
    91    55    54    1
    92    55    61   am
    93    54    53    1
    94    54    57    1
    95     6     7   ar
    96     6     8   ar
    97    62    61    1
    98    62    65    1
    99    62    63    1
   100     7     9   ar
   101    66    65    1
   102    57    58    1
   103    63    64    2
   104    58    60    1
   105    58    59    1
   106     8    11   ar
   107     8    10   ar
   108     9    10   ar
   109    11    13   ar
   110    10    12   ar
   111    13    14   ar
   112    12    14   ar
