@<TRIPOS>MOLECULE
tmp/5hgzA00.pdb
 236 236 0 0 0
SMALL
GASTEIGER

@<TRIPOS>ATOM
      1  N          0.5000   66.1910   15.7520 N.3    33  TRP33      -0.1227
      2  CA         1.9070   66.0620   15.3650 C.3    33  TRP33       0.1737
      3  C          2.1870   65.4070   14.0320 C.2    33  TRP33       0.2595
      4  O          3.1270   65.7400   13.3550 O.2    33  TRP33      -0.2718
      5  CB         2.6910   65.2980   16.4330 C.3    33  TRP33       0.0564
      6  CG         2.8010   66.0090   17.6950 C.ar   33  TRP33       0.0003
      7  CD1        2.6490   67.3310   17.8770 C.ar   33  TRP33       0.0946
      8  CD2        3.0810   65.4530   18.9760 C.ar   33  TRP33       0.0152
      9  NE1        2.8170   67.6440   19.1910 N.ar   33  TRP33      -0.2442
     10  CE2        3.0840   66.5050   19.8910 C.ar   33  TRP33       0.0810
     11  CE3        3.3300   64.1680   19.4400 C.ar   33  TRP33       0.0012
     12  CZ2        3.3290   66.3190   21.2380 C.ar   33  TRP33       0.0191
     13  CZ3        3.5600   63.9910   20.7820 C.ar   33  TRP33       0.0001
     14  CH2        3.5570   65.0590   21.6590 C.ar   33  TRP33       0.0015
     15  N          1.4060   64.3880   13.7380 N.am   34  PHE34      -0.1976
     16  CA         1.6470   63.5190   12.6100 C.3    34  PHE34       0.1639
     17  C          0.4330   63.4850   11.6910 C.2    34  PHE34       0.2290
     18  O         -0.6760   63.4180   12.1540 O.2    34  PHE34      -0.2864
     19  CB         1.9360   62.1090   13.1160 C.3    34  PHE34       0.0560
     20  CG         2.9160   62.0540   14.2480 C.ar   34  PHE34      -0.0200
     21  CD1        4.2340   62.4020   14.0520 C.ar   34  PHE34      -0.0042
     22  CD2        2.5180   61.6410   15.4960 C.ar   34  PHE34      -0.0042
     23  CE1        5.1340   62.3450   15.0800 C.ar   34  PHE34      -0.0003
     24  CE2        3.4100   61.5950   16.5290 C.ar   34  PHE34      -0.0003
     25  CZ         4.7210   61.9520   16.3180 C.ar   34  PHE34      -0.0000
     26  N         -2.6060   56.5080   13.8570 N.3    38  TYR38      -0.1241
     27  CA        -2.2960   55.3240   14.6380 C.3    38  TYR38       0.1605
     28  C         -3.5470   54.7000   15.2220 C.2    38  TYR38       0.2264
     29  O         -4.4360   55.3790   15.6670 O.2    38  TYR38      -0.2867
     30  CB        -1.3390   55.6570   15.7750 C.3    38  TYR38       0.0534
     31  CG         0.0560   55.9860   15.3430 C.ar   38  TYR38      -0.0201
     32  CD1        0.9210   55.0090   14.9120 C.ar   38  TYR38      -0.0009
     33  CD2        0.5070   57.2700   15.3800 C.ar   38  TYR38      -0.0009
     34  CE1        2.1990   55.3170   14.5100 C.ar   38  TYR38       0.0417
     35  CE2        1.7760   57.5870   14.9870 C.ar   38  TYR38       0.0417
     36  CZ         2.6140   56.6060   14.5610 C.ar   38  TYR38       0.1957
     37  OH         3.8790   56.9400   14.1900 O.3    38  TYR38      -0.2866
     38  N         12.8520   53.9190   17.4380 N.3    98  ILE98      -0.1231
     39  CA        12.0280   55.0370   17.8500 C.3    98  ILE98       0.1692
     40  C         10.6940   54.9870   17.0940 C.2    98  ILE98       0.2592
     41  O         10.6410   55.2410   15.9170 O.2    98  ILE98      -0.2718
     42  CB        12.7230   56.3960   17.6110 C.3    98  ILE98       0.0266
     43  CG1       14.1070   56.4390   18.2550 C.3    98  ILE98       0.0019
     44  CG2       11.8400   57.5280   18.1170 C.3    98  ILE98       0.0020
     45  CD1       14.8660   57.7140   17.9730 C.3    98  ILE98       0.0001
     46  N          9.6460   54.6030   17.8090 N.am   99  LEU99      -0.1966
     47  CA         8.2920   54.5830   17.2840 C.3    99  LEU99       0.1728
     48  C          7.7770   55.9850   16.9840 C.2    99  LEU99       0.2617
     49  O          7.1120   56.1940   16.0220 O.2    99  LEU99      -0.2715
     50  CB         7.3510   53.8830   18.2590 C.3    99  LEU99       0.0311
     51  CG         7.4770   52.3700   18.4800 C.3    99  LEU99       0.0022
     52  CD1        8.6630   51.9750   19.3240 C.3    99  LEU99       0.0001
     53  CD2        6.2080   51.8430   19.1130 C.3    99  LEU99       0.0001
     54  N          8.0770   56.9230   17.8670 N.am  100  SER100     -0.1936
     55  CA         7.5350   58.2580   17.7680 C.3   100  SER100      0.2055
     56  C          8.3880   59.3050   18.4740 C.2   100  SER100      0.2643
     57  O          8.9460   59.0390   19.5070 O.2   100  SER100     -0.2714
     58  CB         6.1460   58.2440   18.3970 C.3   100  SER100      0.2130
     59  OG         5.4430   59.4250   18.1220 O.3   100  SER100     -0.2179
     60  N          8.4470   60.4890   17.8930 N.am  101  LEU101     -0.1963
     61  CA         8.9800   61.6700   18.5250 C.3   101  LEU101      0.1728
     62  C          8.1270   62.8720   18.1170 C.2   101  LEU101      0.2617
     63  O          7.9210   63.0850   16.9670 O.2   101  LEU101     -0.2715
     64  CB        10.4380   61.8850   18.1110 C.3   101  LEU101      0.0311
     65  CG        11.0900   63.1740   18.6100 C.3   101  LEU101      0.0022
     66  CD1       11.2440   63.1360   20.1200 C.3   101  LEU101      0.0001
     67  CD2       12.4340   63.3970   17.9650 C.3   101  LEU101      0.0001
     68  N          7.6580   63.6440   19.0760 N.am  102  GLY102     -0.1940
     69  CA         6.8740   64.8280   18.7900 C.3   102  GLY102      0.2014
     70  C          6.9550   65.8730   19.8790 C.2   102  GLY102      0.2638
     71  O          7.1000   65.5360   21.0230 O.2   102  GLY102     -0.2714
     72  N          6.8060   67.1290   19.4850 N.am  103  VAL103     -0.1977
     73  CA         6.7700   68.2510   20.4020 C.3   103  VAL103      0.1596
     74  C          5.6400   69.1810   19.9470 C.2   103  VAL103      0.2287
     75  O          5.4860   69.4180   18.7820 O.2   103  VAL103     -0.2864
     76  CB         8.1080   69.0200   20.4000 C.3   103  VAL103      0.0276
     77  CG1        8.0170   70.2840   21.2250 C.3   103  VAL103      0.0022
     78  CG2        9.2480   68.1450   20.8990 C.3   103  VAL103      0.0022
     79  N          5.8590   74.8320   21.2080 N.3   107  PHE107     -0.1227
     80  CA         7.0870   74.6670   21.9740 C.3   107  PHE107      0.1736
     81  C          8.3280   74.2420   21.1660 C.2   107  PHE107      0.2595
     82  O          9.3610   73.9770   21.7190 O.2   107  PHE107     -0.2718
     83  CB         6.8650   73.6360   23.0730 C.3   107  PHE107      0.0547
     84  CG         5.8860   74.0430   24.1150 C.ar  107  PHE107     -0.0202
     85  CD1        4.5450   74.1250   23.8350 C.ar  107  PHE107     -0.0042
     86  CD2        6.3010   74.2690   25.3900 C.ar  107  PHE107     -0.0042
     87  CE1        3.6420   74.4850   24.8040 C.ar  107  PHE107     -0.0003
     88  CE2        5.4050   74.6260   26.3680 C.ar  107  PHE107     -0.0003
     89  CZ         4.0790   74.7390   26.0740 C.ar  107  PHE107     -0.0000
     90  N          8.2040   74.1830   19.8600 N.am  108  ARG108     -0.1966
     91  CA         9.3040   73.7470   19.0200 C.3   108  ARG108      0.1729
     92  C         10.4680   74.7300   18.9510 C.2   108  ARG108      0.2616
     93  O         10.3130   75.8920   19.2110 O.2   108  ARG108     -0.2715
     94  CB         8.7920   73.4090   17.6250 C.3   108  ARG108      0.0348
     95  CG         7.9970   72.1280   17.6080 C.3   108  ARG108      0.0492
     96  CD         7.3870   71.7930   16.2620 C.3   108  ARG108      0.2205
     97  NE         6.4170   70.7420   16.4140 N.pl3 108  ARG108     -0.0865
     98  CZ         5.4960   70.4140   15.5370 C.cat 108  ARG108      0.5346
     99  NH1        5.4300   71.0230   14.3780 N.pl3 108  ARG108      0.1354
    100  NH2        4.6600   69.4680   15.8120 N.pl3 108  ARG108      0.1354
    101  N         11.6370   74.2200   18.5940 N.am  109  LYS109     -0.1963
    102  CA        12.8480   75.0120   18.4610 C.3   109  LYS109      0.1728
    103  C         13.2890   75.6700   19.7670 C.2   109  LYS109      0.2616
    104  O         13.8070   76.7580   19.7680 O.2   109  LYS109     -0.2715
    105  CB        12.7400   76.0290   17.3100 C.3   109  LYS109      0.0311
    106  CG        12.2790   75.4220   15.9990 C.3   109  LYS109      0.0038
    107  CD        12.3870   76.3960   14.8320 C.3   109  LYS109      0.0206
    108  CE        13.8100   76.4910   14.3210 C.3   109  LYS109      0.1093
    109  NZ        13.9960   77.5550   13.3070 N.3   109  LYS109     -0.1314
    110  N         13.0230   74.9750   20.8680 N.am  110  HIS110     -0.1959
    111  CA        13.5600   75.2740   22.1790 C.3   110  HIS110      0.1787
    112  C         14.4190   74.1680   22.7710 C.2   110  HIS110      0.2621
    113  O         14.7540   74.2240   23.9210 O.2   110  HIS110     -0.2715
    114  CB        12.4400   75.5970   23.1530 C.3   110  HIS110      0.0785
    115  CG        11.6770   76.8190   22.7850 C.ar  110  HIS110      0.0821
    116  ND1       12.1580   78.0820   23.0020 N.ar  110  HIS110     -0.2267
    117  CD2       10.4890   76.9690   22.1640 C.ar  110  HIS110      0.1154
    118  CE1       11.2820   78.9640   22.5640 C.ar  110  HIS110      0.1986
    119  NE2       10.2590   78.3130   22.0540 N.ar  110  HIS110     -0.2212
    120  N         14.7590   73.1720   21.9740 N.am  111  GLY111     -0.1940
    121  CA        15.5860   72.0860   22.4510 C.3   111  GLY111      0.2014
    122  C         14.8740   70.8950   23.0660 C.2   111  GLY111      0.2639
    123  O         15.5330   69.9960   23.5370 O.2   111  GLY111     -0.2714
    124  N         13.5510   70.8970   23.0900 N.am  112  ILE112     -0.1963
    125  CA        12.8240   69.7700   23.6660 C.3   112  ILE112      0.1727
    126  C         13.0160   68.4570   22.8930 C.2   112  ILE112      0.2617
    127  O         13.3060   67.4380   23.4690 O.2   112  ILE112     -0.2715
    128  CB        11.3360   70.0980   23.8640 C.3   112  ILE112      0.0290
    129  CG1       11.1930   71.2870   24.8070 C.3   112  ILE112      0.0022
    130  CG2       10.5680   68.9000   24.4150 C.3   112  ILE112      0.0023
    131  CD1        9.7860   71.8360   24.8670 C.3   112  ILE112      0.0001
    132  N         12.9400   68.5120   21.5810 N.am  113  GLY113     -0.1940
    133  CA        13.1670   67.3090   20.8180 C.3   113  GLY113      0.2014
    134  C         14.5630   66.7840   21.0650 C.2   113  GLY113      0.2639
    135  O         14.7490   65.6060   21.2580 O.2   113  GLY113     -0.2714
    136  N         15.5260   67.6860   21.1090 N.am  114  SER114     -0.1949
    137  CA        16.9000   67.2880   21.3590 C.3   114  SER114      0.1924
    138  C         17.0880   66.6190   22.7170 C.2   114  SER114      0.2314
    139  O         17.7290   65.6130   22.8200 O.2   114  SER114     -0.2863
    140  CB        17.8350   68.4950   21.2650 C.3   114  SER114      0.2116
    141  OG        17.9220   68.9640   19.9480 O.3   114  SER114     -0.2180
    142  N         14.7850   54.5970   12.9910 N.3   137  LEU137     -0.1231
    143  CA        13.4640   55.1740   12.9320 C.3   137  LEU137      0.1693
    144  C         13.0850   55.4250   11.4920 C.2   137  LEU137      0.2592
    145  O         13.8750   55.2920   10.6030 O.2   137  LEU137     -0.2718
    146  CB        13.3700   56.4520   13.7610 C.3   137  LEU137      0.0284
    147  CG        14.1530   57.7290   13.4380 C.3   137  LEU137      0.0019
    148  CD1       15.6420   57.6420   13.6580 C.3   137  LEU137      0.0001
    149  CD2       13.7640   58.4430   12.1570 C.3   137  LEU137      0.0001
    150  N         11.8320   55.7720   11.3030 N.am  138  HIS138     -0.1962
    151  CA        11.3230   56.1050    9.9930 C.3   138  HIS138      0.1787
    152  C         10.7150   57.4990    9.9630 C.2   138  HIS138      0.2620
    153  O         10.1040   57.9260   10.9160 O.2   138  HIS138     -0.2715
    154  CB        10.2680   55.0890    9.5660 C.3   138  HIS138      0.0785
    155  CG        10.7710   53.6870    9.5270 C.ar  138  HIS138      0.0821
    156  ND1       10.4040   52.7460   10.4540 N.ar  138  HIS138     -0.2267
    157  CD2       11.6400   53.0780    8.6930 C.ar  138  HIS138      0.1154
    158  CE1       11.0020   51.6060   10.1720 C.ar  138  HIS138      0.1986
    159  NE2       11.7620   51.7820    9.1140 N.ar  138  HIS138     -0.2212
    160  N         10.8870   58.1780    8.8350 N.am  139  VAL139     -0.1977
    161  CA        10.2160   59.4390    8.5680 C.3   139  VAL139      0.1596
    162  C          9.5900   59.4510    7.1710 C.2   139  VAL139      0.2287
    163  O         10.0270   58.7650    6.2910 O.2   139  VAL139     -0.2864
    164  CB        11.1730   60.6620    8.6790 C.3   139  VAL139      0.0276
    165  CG1       11.7760   60.7370   10.0630 C.3   139  VAL139      0.0022
    166  CG2       12.2880   60.6020    7.6570 C.3   139  VAL139      0.0022
    167  N          9.2430   65.0230    5.0420 N.3   143  ASN143     -0.1240
    168  CA         9.4070   65.6650    6.3430 C.3   143  ASN143      0.1653
    169  C         10.7840   66.2670    6.5410 C.2   143  ASN143      0.2266
    170  O         11.5930   65.7460    7.2520 O.2   143  ASN143     -0.2867
    171  CB         9.0870   64.6610    7.4420 C.3   143  ASN143      0.1155
    172  CG         8.8750   65.3070    8.7990 C.2   143  ASN143      0.2627
    173  OD1        9.2590   66.4260    9.0360 O.2   143  ASN143     -0.2716
    174  ND2        8.2880   64.5620    9.6860 N.am  143  ASN143     -0.0877
    175  N         11.7150   68.9090    8.1540 N.3   145  THR145     -0.1203
    176  CA        12.0320   69.3240    9.4980 C.3   145  THR145      0.1994
    177  C         12.6130   68.1460   10.2980 C.2   145  THR145      0.2617
    178  O         13.6130   68.2760   10.9360 O.2   145  THR145     -0.2717
    179  CB        10.7850   69.8670   10.1890 C.3   145  THR145      0.1784
    180  OG1       10.2850   70.9730    9.4510 O.3   145  THR145     -0.2211
    181  CG2       11.1100   70.3260   11.5690 C.3   145  THR145      0.0376
    182  N         11.9990   66.9850   10.1820 N.am  146  ALA146     -0.1979
    183  CA        12.4950   65.8010   10.8620 C.3   146  ALA146      0.1597
    184  C         13.8060   65.3190   10.2690 C.2   146  ALA146      0.2287
    185  O         14.7000   64.9490   10.9840 O.2   146  ALA146     -0.2864
    186  CB        11.4570   64.7040   10.8900 C.3   146  ALA146      0.0319
    187  N         16.1620   67.0350    8.7490 N.3   148  ASN148     -0.1225
    188  CA        17.2220   67.9100    9.1870 C.3   148  ASN148      0.1785
    189  C         17.5840   67.6710   10.6510 C.2   148  ASN148      0.2597
    190  O         18.7220   67.6710   11.0070 O.2   148  ASN148     -0.2718
    191  CB        16.8420   69.3660    8.9680 C.3   148  ASN148      0.1169
    192  CG        16.7600   69.7370    7.5000 C.2   148  ASN148      0.2627
    193  OD1       17.3420   69.0910    6.6730 O.2   148  ASN148     -0.2716
    194  ND2       16.0220   70.7750    7.1930 N.am  148  ASN148     -0.0877
    195  N         16.5820   67.4550   11.4800 N.am  149  PHE149     -0.1962
    196  CA        16.8240   67.2560   12.8830 C.3   149  PHE149      0.1771
    197  C         17.6630   66.0140   13.0960 C.2   149  PHE149      0.2619
    198  O         18.6280   66.0340   13.8110 O.2   149  PHE149     -0.2715
    199  CB        15.4680   67.0800   13.5750 C.3   149  PHE149      0.0574
    200  CG        15.5480   66.6950   15.0300 C.ar  149  PHE149     -0.0200
    201  CD1       15.4310   65.3850   15.4020 C.ar  149  PHE149     -0.0042
    202  CD2       15.6780   67.6510   16.0100 C.ar  149  PHE149     -0.0042
    203  CE1       15.4920   65.0200   16.7230 C.ar  149  PHE149     -0.0003
    204  CE2       15.7210   67.2940   17.3330 C.ar  149  PHE149     -0.0003
    205  CZ        15.6310   65.9810   17.6920 C.ar  149  PHE149     -0.0000
    206  N         17.2860   64.9360   12.4400 N.am  150  TYR150     -0.1974
    207  CA        18.0320   63.7030   12.5590 C.3   150  TYR150      0.1639
    208  C         19.4310   63.7050   11.9260 C.2   150  TYR150      0.2290
    209  O         20.3870   63.2340   12.5010 O.2   150  TYR150     -0.2864
    210  CB        17.1780   62.5400   12.0820 C.3   150  TYR150      0.0560
    211  CG        16.1410   62.0840   13.0850 C.ar  150  TYR150     -0.0198
    212  CD1       16.5090   61.5740   14.3090 C.ar  150  TYR150     -0.0009
    213  CD2       14.7990   62.1310   12.7900 C.ar  150  TYR150     -0.0009
    214  CE1       15.5670   61.1360   15.2070 C.ar  150  TYR150      0.0417
    215  CE2       13.8600   61.6990   13.6940 C.ar  150  TYR150      0.0417
    216  CZ        14.2550   61.1990   14.8960 C.ar  150  TYR150      0.1957
    217  OH        13.3160   60.7540   15.7800 O.3   150  TYR150     -0.2866
    218  N         21.2850   66.3040   11.4590 N.3   152  ASN152     -0.1225
    219  CA        22.1370   67.1740   12.2510 C.3   152  ASN152      0.1785
    220  C         22.5580   66.5420   13.5740 C.2   152  ASN152      0.2597
    221  O         23.4040   67.0380   14.2580 O.2   152  ASN152     -0.2718
    222  CB        21.4790   68.5260   12.4530 C.3   152  ASN152      0.1169
    223  CG        21.4800   69.3510   11.1910 C.2   152  ASN152      0.2627
    224  OD1       22.2230   69.0800   10.3000 O.2   152  ASN152     -0.2716
    225  ND2       20.6370   70.3470   11.1300 N.am  152  ASN152     -0.0877
    226  N         21.9130   65.4490   13.9250 N.am  153  ARG153     -0.1979
    227  CA        22.2750   64.6560   15.0880 C.3   153  ARG153      0.1597
    228  C         22.9480   63.3190   14.7010 C.2   153  ARG153      0.2287
    229  O         22.9310   62.3770   15.4260 O.2   153  ARG153     -0.2864
    230  CB        21.0800   64.5100   16.0140 C.3   153  ARG153      0.0334
    231  CG        20.7510   65.8180   16.7240 C.3   153  ARG153      0.0492
    232  CD        19.2880   66.0630   17.0450 C.3   153  ARG153      0.2205
    233  NE        19.1360   67.4330   17.5060 N.pl3 153  ARG153     -0.0865
    234  CZ        19.1010   68.4970   16.7170 C.cat 153  ARG153      0.5346
    235  NH1       19.1440   68.3660   15.4120 N.pl3 153  ARG153      0.1354
    236  NH2       19.0050   69.7050   17.2420 N.pl3 153  ARG153      0.1354
@<TRIPOS>BOND
     1   167   168    1
     2   163   162    2
     3   168   169    1
     4   168   171    1
     5   169   170    2
     6   193   192    2
     7   162   161    1
     8   194   192   am
     9   171   172    1
    10   192   191    1
    11   166   164    1
    12   175   176    1
    13   161   164    1
    14   161   160    1
    15   164   165    1
    16   157   159   ar
    17   157   155   ar
    18   187   188    1
    19   172   173    2
    20   172   174   am
    21   160   152   am
    22   191   188    1
    23   159   158   ar
    24   188   189    1
    25   180   179    1
    26   176   179    1
    27   176   177    1
    28   155   154    1
    29   155   156   ar
    30   154   151    1
    31   152   151    1
    32   152   153    2
    33   151   150    1
    34   158   156   ar
    35   182   177   am
    36   182   183    1
    37   179   181    1
    38   184   183    1
    39   184   185    2
    40   177   178    2
    41   224   223    2
    42   145   144    2
    43   189   190    2
    44   189   195   am
    45   183   186    1
    46   225   223   am
    47   223   222    1
    48   150   144   am
    49   218   219    1
    50   195   196    1
    51   144   143    1
    52    17    18    2
    53    17    16    1
    54   208   209    2
    55   208   207    1
    56   210   207    1
    57   210   211    1
    58   149   147    1
    59   219   222    1
    60   219   220    1
    61   206   207    1
    62   206   197   am
    63    16    19    1
    64    16    15    1
    65   213   211   ar
    66   213   215   ar
    67   196   197    1
    68   196   199    1
    69   143   142    1
    70   143   146    1
    71   211   212   ar
    72   197   198    2
    73    19    20    1
    74   109   108    1
    75     4     3    2
    76   147   148    1
    77   147   146    1
    78   220   226   am
    79   220   221    2
    80   199   200    1
    81   215   216   ar
    82    15     3   am
    83    26    27    1
    84   226   227    1
    85     3     2    1
    86    21    20   ar
    87    21    23   ar
    88    37    36    1
    89    20    22   ar
    90   212   214   ar
    91   108   107    1
    92    99    98    1
    93    34    36   ar
    94    34    32   ar
    95    36    35   ar
    96    27    28    1
    97    27    30    1
    98   228   227    1
    99   228   229    2
   100   107   106    1
   101   216   214   ar
   102   216   217    1
   103    32    31   ar
   104    35    33   ar
   105   200   201   ar
   106   200   202   ar
   107    23    25   ar
   108   227   230    1
   109    28    29    2
   110    31    33   ar
   111    31    30    1
   112     2     1    1
   113     2     5    1
   114   201   203   ar
   115   235   234    1
   116    22    24   ar
   117    98   100    1
   118    98    97    2
   119    41    40    2
   120   106   105    1
   121   202   204   ar
   122   230   231    1
   123    49    48    2
   124    96    97    1
   125    96    95    1
   126    25    24   ar
   127     5     6    1
   128   234   236    1
   129   234   233    2
   130   203   205   ar
   131   231   232    1
   132    63    62    2
   133    48    47    1
   134    48    54   am
   135   232   233    1
   136    40    46   am
   137    40    39    1
   138    47    46    1
   139    47    50    1
   140   105   102    1
   141   204   205   ar
   142    38    39    1
   143    95    94    1
   144    42    39    1
   145    42    44    1
   146    42    43    1
   147    94    91    1
   148     6     7   ar
   149     6     8   ar
   150    55    54    1
   151    55    58    1
   152    55    56    1
   153     7     9   ar
   154    60    56   am
   155    60    61    1
   156    67    65    1
   157    45    43    1
   158    64    61    1
   159    64    65    1
   160    62    61    1
   161    62    68   am
   162    59    58    1
   163    50    51    1
   164   102   101    1
   165   102   103    1
   166    56    57    2
   167    51    53    1
   168    51    52    1
   169   101    92   am
   170    65    66    1
   171    75    74    2
   172    69    68    1
   173    69    70    1
   174    92    91    1
   175    92    93    2
   176     8    11   ar
   177     8    10   ar
   178    91    90    1
   179     9    10   ar
   180    11    13   ar
   181    72    70   am
   182    72    73    1
   183   103   104    2
   184   103   110   am
   185    90    81   am
   186    70    71    2
   187    10    12   ar
   188    74    73    1
   189   141   140    1
   190    76    73    1
   191    76    78    1
   192    76    77    1
   193    13    14   ar
   194   133   134    1
   195   133   132    1
   196   110   111    1
   197   134   136   am
   198   134   135    2
   199   136   137    1
   200    81    82    2
   201    81    80    1
   202    79    80    1
   203    12    14   ar
   204   140   137    1
   205   137   138    1
   206   132   126   am
   207   120   121    1
   208   120   112   am
   209    80    83    1
   210   119   117   ar
   211   119   118   ar
   212   117   115   ar
   213   111   112    1
   214   111   114    1
   215   121   122    1
   216   118   116   ar
   217   138   139    2
   218   112   113    2
   219   115   116   ar
   220   115   114    1
   221   126   127    2
   222   126   125    1
   223   122   124   am
   224   122   123    2
   225    83    84    1
   226   124   125    1
   227   125   128    1
   228    85    84   ar
   229    85    87   ar
   230   128   130    1
   231   128   129    1
   232    84    86   ar
   233    87    89   ar
   234   129   131    1
   235    86    88   ar
   236    89    88   ar
