@<TRIPOS>MOLECULE
tmp/5hh0A00.pdb
 77 74 0 0 0
SMALL
GASTEIGER

@<TRIPOS>ATOM
      1  N        -11.8130    1.9270    8.2230 N.3     3  SER3       -0.1217
      2  CA       -11.4410    1.1320    7.0720 C.3     3  SER3        0.1889
      3  C        -12.5390    1.1330    6.0370 C.2     3  SER3        0.2288
      4  O        -12.2730    1.1240    4.8500 O.2     3  SER3       -0.2866
      5  CB       -11.1680   -0.3050    7.5090 C.3     3  SER3        0.2089
      6  OG       -12.0840   -0.7010    8.5090 O.3     3  SER3       -0.2183
      7  N         -6.8320    8.0570    0.9750 N.3   105  LYS105     -0.1231
      8  CA        -6.6360    6.7270    0.4230 C.3   105  LYS105      0.1693
      9  C         -7.7850    5.7610    0.6780 C.2   105  LYS105      0.2592
     10  O         -7.5830    4.5670    0.7820 O.2   105  LYS105     -0.2718
     11  CB        -5.3230    6.1460    0.9210 C.3   105  LYS105      0.0285
     12  CG        -4.1650    7.0770    0.6590 C.3   105  LYS105      0.0035
     13  CD        -3.0220    6.8040    1.6030 C.3   105  LYS105      0.0206
     14  CE        -1.7930    6.4300    0.8230 C.3   105  LYS105      0.1093
     15  NZ        -0.5650    6.6780    1.6280 N.3   105  LYS105     -0.1314
     16  N         -8.9870    6.2970    0.7900 N.am  106  HIS106     -0.1962
     17  CA       -10.1870    5.4980    0.8150 C.3   106  HIS106      0.1787
     18  C        -11.0380    5.7160   -0.4200 C.2   106  HIS106      0.2620
     19  O        -12.1120    5.1790   -0.5130 O.2   106  HIS106     -0.2715
     20  CB       -10.9980    5.7740    2.0710 C.3   106  HIS106      0.0785
     21  CG       -10.2970    5.3860    3.3290 C.ar  106  HIS106      0.0821
     22  ND1       -9.1600    6.0190    3.7660 N.ar  106  HIS106     -0.2267
     23  CD2      -10.5610    4.4210    4.2370 C.ar  106  HIS106      0.1154
     24  CE1       -8.7570    5.4680    4.8930 C.ar  106  HIS106      0.1986
     25  NE2       -9.5950    4.5010    5.2050 N.ar  106  HIS106     -0.2212
     26  N        -10.5250    6.4770   -1.3730 N.am  107  GLY107     -0.1954
     27  CA       -11.2450    6.7990   -2.5880 C.3   107  GLY107      0.1869
     28  C        -12.1060    8.0490   -2.5990 C.2   107  GLY107      0.2309
     29  O        -12.8000    8.2980   -3.5580 O.2   107  GLY107     -0.2863
     30  N        -11.1700   11.3320   -2.5930 N.3   109  GLY109     -0.1210
     31  CA       -10.6860   12.3320   -3.5140 C.3   109  GLY109      0.1956
     32  C        -11.0540   12.0140   -4.9390 C.2   109  GLY109      0.2612
     33  O        -11.4410   12.8690   -5.6830 O.2   109  GLY109     -0.2717
     34  N        -10.9380   10.7510   -5.3040 N.am  110  SER110     -0.1952
     35  CA       -11.2850   10.3360   -6.6410 C.3   110  SER110      0.1924
     36  C        -12.7660   10.5570   -6.9050 C.2   110  SER110      0.2314
     37  O        -13.1430   10.9700   -7.9630 O.2   110  SER110     -0.2863
     38  CB       -10.9250    8.8760   -6.8610 C.3   110  SER110      0.2116
     39  OG        -9.5420    8.6790   -6.7660 O.3   110  SER110     -0.2180
     40  N          1.1460   13.3710   -7.0800 N.3   144  ASN144     -0.1225
     41  CA         1.0370   11.9880   -7.4560 C.3   144  ASN144      0.1785
     42  C         -0.4030   11.6710   -7.8130 C.2   144  ASN144      0.2597
     43  O         -0.6670   11.0370   -8.8010 O.2   144  ASN144     -0.2718
     44  CB         1.5190   11.1160   -6.2970 C.3   144  ASN144      0.1169
     45  CG         1.5740    9.6490   -6.6410 C.2   144  ASN144      0.2627
     46  OD1        0.7550    8.8680   -6.1880 O.2   144  ASN144     -0.2716
     47  ND2        2.5580    9.2670   -7.4180 N.am  144  ASN144     -0.0877
     48  N         -1.3310   12.1600   -7.0110 N.am  145  PHE145     -0.1976
     49  CA        -2.7360   11.8540   -7.2230 C.3   145  PHE145      0.1639
     50  C         -3.2050   12.4020   -8.5520 C.2   145  PHE145      0.2290
     51  O         -3.8380   11.7070   -9.3030 O.2   145  PHE145     -0.2864
     52  CB        -3.5570   12.4440   -6.0690 C.3   145  PHE145      0.0560
     53  CG        -5.0440   12.4730   -6.2920 C.ar  145  PHE145     -0.0200
     54  CD1       -5.8350   11.4230   -5.9120 C.ar  145  PHE145     -0.0042
     55  CD2       -5.6460   13.5820   -6.8130 C.ar  145  PHE145     -0.0042
     56  CE1       -7.1950   11.4670   -6.0930 C.ar  145  PHE145     -0.0003
     57  CE2       -7.0030   13.6320   -6.9970 C.ar  145  PHE145     -0.0003
     58  CZ        -7.7790   12.5700   -6.6300 C.ar  145  PHE145     -0.0000
     59  N         -1.4440   10.6160  -11.6380 N.3   148  ASN148     -0.1225
     60  CA        -2.0510    9.3140  -11.8140 C.3   148  ASN148      0.1785
     61  C         -3.4190    9.4120  -12.4480 C.2   148  ASN148      0.2597
     62  O         -3.9440    8.4360  -12.9330 O.2   148  ASN148     -0.2718
     63  CB        -2.1200    8.5710  -10.4960 C.3   148  ASN148      0.1169
     64  CG        -0.7780    8.0470  -10.0640 C.2   148  ASN148      0.2627
     65  OD1        0.1640    8.0720  -10.8210 O.2   148  ASN148     -0.2716
     66  ND2       -0.6970    7.5630   -8.8500 N.am  148  ASN148     -0.0877
     67  N         -4.0090   10.5940  -12.3920 N.am  149  ARG149     -0.1979
     68  CA        -5.3140   10.8450  -12.9740 C.3   149  ARG149      0.1597
     69  C         -5.2780   11.6430  -14.2860 C.2   149  ARG149      0.2287
     70  O         -6.2490   12.2420  -14.6830 O.2   149  ARG149     -0.2864
     71  CB        -6.2650   11.4320  -11.9370 C.3   149  ARG149      0.0334
     72  CG        -6.8800   10.3460  -11.0880 C.3   149  ARG149      0.0492
     73  CD        -7.0000   10.6820   -9.6180 C.3   149  ARG149      0.2205
     74  NE        -7.3100    9.4800   -8.8650 N.pl3 149  ARG149     -0.0865
     75  CZ        -6.4000    8.7140   -8.2840 C.cat 149  ARG149      0.5346
     76  NH1       -5.1340    9.0440   -8.3410 N.pl3 149  ARG149      0.1354
     77  NH2       -6.7610    7.6240   -7.6420 N.pl3 149  ARG149      0.1354
@<TRIPOS>BOND
     1    70    69    2
     2    69    68    1
     3    68    67    1
     4    68    71    1
     5    62    61    2
     6    61    67   am
     7    61    60    1
     8    71    72    1
     9    60    59    1
    10    60    63    1
    11    72    73    1
    12    65    64    2
    13    63    64    1
    14    64    66   am
    15    73    74    1
    16    51    50    2
    17    74    75    2
    18    43    42    2
    19    50    49    1
    20    76    75    1
    21    75    77    1
    22    37    36    2
    23    42    41    1
    24    42    48   am
    25    41    40    1
    26    41    44    1
    27    47    45   am
    28    49    48    1
    29    49    52    1
    30    57    55   ar
    31    57    58   ar
    32    36    35    1
    33    38    39    1
    34    38    35    1
    35    55    53   ar
    36    35    34    1
    37    45    44    1
    38    45    46    2
    39    58    56   ar
    40    53    52    1
    41    53    54   ar
    42    56    54   ar
    43    33    32    2
    44    34    32   am
    45    32    31    1
    46    29    28    2
    47    31    30    1
    48    28    27    1
    49    27    26    1
    50    26    18   am
    51    19    18    2
    52    18    17    1
    53     8     9    1
    54     8    11    1
    55     8     7    1
    56    12    11    1
    57    12    13    1
    58     9    10    2
    59     9    16   am
    60    16    17    1
    61    17    20    1
    62    14    13    1
    63    14    15    1
    64    20    21    1
    65    21    22   ar
    66    21    23   ar
    67    22    24   ar
    68    23    25   ar
    69     4     3    2
    70    24    25   ar
    71     3     2    1
    72     2     5    1
    73     2     1    1
    74     5     6    1
