@<TRIPOS>MOLECULE
tmp/5hh4A00.pdb
 110 106 0 0 0
SMALL
GASTEIGER

@<TRIPOS>ATOM
      1  N          3.1050  -13.2810  -44.8440 N.3    23  VAL23      -0.1245
      2  CA         2.0190  -12.8370  -43.9770 C.3    23  VAL23       0.1561
      3  C          0.8030  -12.5090  -44.8460 C.2    23  VAL23       0.2260
      4  O          0.9220  -11.7190  -45.7840 O.2    23  VAL23      -0.2867
      5  CB         2.4350  -11.6050  -43.1460 C.3    23  VAL23       0.0252
      6  CG1        1.3120  -11.1850  -42.2000 C.3    23  VAL23       0.0019
      7  CG2        3.7210  -11.8910  -42.3690 C.3    23  VAL23       0.0019
      8  N         -0.1750   -9.2960  -47.1460 N.3    26  TRP26      -0.1241
      9  CA         1.0310   -8.4930  -47.2670 C.3    26  TRP26       0.1605
     10  C          2.0340   -9.1570  -48.1940 C.2    26  TRP26       0.2264
     11  O          2.7320   -8.4780  -48.9510 O.2    26  TRP26      -0.2867
     12  CB         1.6070   -8.2260  -45.8760 C.3    26  TRP26       0.0550
     13  CG         0.6400   -7.4030  -45.1080 C.ar   26  TRP26       0.0003
     14  CD1       -0.3200   -7.8540  -44.2500 C.ar   26  TRP26       0.0946
     15  CD2        0.4990   -5.9790  -45.1590 C.ar   26  TRP26       0.0152
     16  NE1       -1.0460   -6.7970  -43.7540 N.ar   26  TRP26      -0.2442
     17  CE2       -0.5630   -5.6340  -44.2950 C.ar   26  TRP26       0.0810
     18  CE3        1.1710   -4.9630  -45.8440 C.ar   26  TRP26       0.0012
     19  CZ2       -0.9660   -4.3180  -44.0940 C.ar   26  TRP26       0.0191
     20  CZ3        0.7650   -3.6510  -45.6470 C.ar   26  TRP26       0.0001
     21  CH2       -0.2920   -3.3410  -44.7720 C.ar   26  TRP26       0.0015
     22  N          7.2500  -10.4330  -46.1960 N.3    29  VAL29      -0.1245
     23  CA         7.5890   -9.2520  -45.4130 C.3    29  VAL29       0.1561
     24  C          9.0190   -9.3730  -44.9140 C.2    29  VAL29       0.2260
     25  O          9.3690  -10.3660  -44.2650 O.2    29  VAL29      -0.2867
     26  CB         6.6320   -9.0860  -44.2030 C.3    29  VAL29       0.0252
     27  CG1        7.0660   -7.9320  -43.2930 C.3    29  VAL29       0.0019
     28  CG2        5.1940   -8.9220  -44.6710 C.3    29  VAL29       0.0019
     29  N         11.6180  -13.5640  -37.1110 N.3    49  PHE49      -0.1241
     30  CA        10.2780  -14.1420  -37.0760 C.3    49  PHE49       0.1605
     31  C         10.2300  -15.5090  -36.3790 C.2    49  PHE49       0.2264
     32  O          9.2940  -15.7970  -35.6540 O.2    49  PHE49      -0.2867
     33  CB         9.7310  -14.3640  -38.4840 C.3    49  PHE49       0.0534
     34  CG         9.2830  -13.1310  -39.2170 C.ar   49  PHE49      -0.0203
     35  CD1       10.0670  -12.5940  -40.2320 C.ar   49  PHE49      -0.0042
     36  CD2        8.0070  -12.6090  -39.0120 C.ar   49  PHE49      -0.0042
     37  CE1        9.6170  -11.4920  -40.9830 C.ar   49  PHE49      -0.0003
     38  CE2        7.5600  -11.5120  -39.7540 C.ar   49  PHE49      -0.0003
     39  CZ         8.3720  -10.9560  -40.7410 C.ar   49  PHE49      -0.0000
     40  N          4.2570   -8.2420  -31.3010 N.3    77  HIS77      -0.1226
     41  CA         4.0500   -9.0030  -32.5410 C.3    77  HIS77       0.1752
     42  C          5.1750   -9.9920  -32.7910 C.2    77  HIS77       0.2597
     43  O          6.3060   -9.7750  -32.3690 O.2    77  HIS77      -0.2718
     44  CB         3.9270   -8.0470  -33.7510 C.3    77  HIS77       0.0759
     45  CG         2.6410   -7.2920  -33.7950 C.ar   77  HIS77       0.0818
     46  ND1        2.4720   -6.1290  -34.5210 N.ar   77  HIS77      -0.2268
     47  CD2        1.4410   -7.5550  -33.2130 C.ar   77  HIS77       0.1154
     48  CE1        1.2310   -5.6960  -34.3640 C.ar   77  HIS77       0.1986
     49  NE2        0.5880   -6.5460  -33.5770 N.ar   77  HIS77      -0.2212
     50  N          4.8870  -11.0660  -33.5200 N.am   78  SER78      -0.1938
     51  CA         5.8550  -12.1490  -33.6240 C.3    78  SER78       0.2055
     52  C          7.0770  -11.7560  -34.4500 C.2    78  SER78       0.2643
     53  O          8.1120  -12.4200  -34.3440 O.2    78  SER78      -0.2714
     54  CB         5.1940  -13.4150  -34.2120 C.3    78  SER78       0.2130
     55  OG         4.7220  -13.1800  -35.5230 O.3    78  SER78      -0.2179
     56  N          7.0040  -10.6730  -35.2370 N.am   79  ASP79      -0.1971
     57  CA         8.2040  -10.2700  -35.9710 C.3    79  ASP79       0.1709
     58  C          9.2540   -9.6300  -35.0400 C.2    79  ASP79       0.2293
     59  O         10.3810   -9.3730  -35.4620 O.2    79  ASP79      -0.2864
     60  CB         7.8740   -9.3610  -37.1960 C.3    79  ASP79       0.1436
     61  CG         7.2010   -8.0140  -36.8520 C.2    79  ASP79       0.3671
     62  OD1        6.5630   -7.8490  -35.8030 O.co2  79  ASP79      -0.2456
     63  OD2        7.2550   -7.1100  -37.7300 O.co2  79  ASP79      -0.2456
     64  N          1.9090    2.1580  -33.7560 N.3   137  HIS137     -0.1241
     65  CA         1.7200    0.8600  -34.4030 C.3   137  HIS137      0.1621
     66  C          1.0460   -0.1740  -33.4800 C.2   137  HIS137      0.2264
     67  O          0.2030   -0.9610  -33.9090 O.2   137  HIS137     -0.2867
     68  CB         3.0750    0.3390  -34.8750 C.3   137  HIS137      0.0745
     69  CG         3.0490   -1.0900  -35.3320 C.ar  137  HIS137      0.0817
     70  ND1        2.4320   -1.4830  -36.5020 N.ar  137  HIS137     -0.2268
     71  CD2        3.5600   -2.2090  -34.7770 C.ar  137  HIS137      0.1154
     72  CE1        2.5700   -2.7890  -36.6470 C.ar  137  HIS137      0.1986
     73  NE2        3.2500   -3.2560  -35.6140 N.ar  137  HIS137     -0.2212
     74  N          8.5970   -1.3090  -35.6810 N.3   156  CYS156     -0.1235
     75  CA         7.4440   -1.1850  -36.5620 C.3   156  CYS156      0.1677
     76  C          6.7000    0.1410  -36.3680 C.2   156  CYS156      0.2270
     77  O          5.7150    0.4080  -37.0530 O.2   156  CYS156     -0.2867
     78  CB         6.5080   -2.3770  -36.3560 C.3   156  CYS156      0.0956
     79  SG         7.3510   -3.9670  -36.5940 S.3   156  CYS156     -0.0801
     80  N          7.4060    4.2270  -39.9530 N.3   159  LYS159     -0.1245
     81  CA         6.6360    3.8430  -41.1290 C.3   159  LYS159      0.1561
     82  C          6.6400    5.0100  -42.1350 C.2   159  LYS159      0.2260
     83  O          5.6700    5.7650  -42.2430 O.2   159  LYS159     -0.2867
     84  CB         5.2100    3.4640  -40.7140 C.3   159  LYS159      0.0271
     85  CG         5.0830    2.1240  -39.9810 C.3   159  LYS159      0.0035
     86  CD         5.2380    0.9550  -40.9670 C.3   159  LYS159      0.0206
     87  CE         5.4270   -0.3700  -40.2340 C.3   159  LYS159      0.1093
     88  NZ         4.2580   -0.6650  -39.3550 N.3   159  LYS159     -0.1314
     89  N          1.2650    0.4640  -42.5920 N.3   164  GLY164     -0.1210
     90  CA         1.2910   -0.9880  -42.5000 C.3   164  GLY164      0.1956
     91  C          0.0630   -1.5670  -41.8180 C.2   164  GLY164      0.2611
     92  O         -1.0320   -1.0180  -41.9140 O.2   164  GLY164     -0.2717
     93  N          0.2440   -2.6670  -41.0950 N.am  165  ASN165     -0.1974
     94  CA        -0.8930   -3.3220  -40.4720 C.3   165  ASN165      0.1688
     95  C         -1.4430   -2.4980  -39.3080 C.2   165  ASN165      0.2292
     96  O         -0.7480   -2.2810  -38.3040 O.2   165  ASN165     -0.2864
     97  CB        -0.5180   -4.7160  -39.9920 C.3   165  ASN165      0.1181
     98  CG        -1.7370   -5.5840  -39.7530 C.2   165  ASN165      0.2629
     99  OD1       -2.8040   -5.0860  -39.3980 O.2   165  ASN165     -0.2716
    100  ND2       -1.5800   -6.8910  -39.9270 N.am  165  ASN165     -0.0877
    101  N         10.4890   -2.5220  -41.4600 N.3   195  HIS195     -0.1241
    102  CA        10.0860   -3.0300  -42.7680 C.3   195  HIS195      0.1621
    103  C         10.4550   -2.1780  -43.9740 C.2   195  HIS195      0.2264
    104  O         10.1040   -2.5340  -45.0960 O.2   195  HIS195     -0.2867
    105  CB         8.5780   -3.2560  -42.7870 C.3   195  HIS195      0.0745
    106  CG         8.1040   -4.1820  -41.7120 C.ar  195  HIS195      0.0817
    107  ND1        8.5300   -5.4900  -41.6190 N.ar  195  HIS195     -0.2268
    108  CD2        7.2510   -3.9920  -40.6810 C.ar  195  HIS195      0.1154
    109  CE1        7.9400   -6.0690  -40.5870 C.ar  195  HIS195      0.1986
    110  NE2        7.1520   -5.1830  -40.0110 N.ar  195  HIS195     -0.2212
@<TRIPOS>BOND
     1    11    10    2
     2    10     9    1
     3     9     8    1
     4     9    12    1
     5    22    23    1
     6    12    13    1
     7    18    20   ar
     8    18    15   ar
     9     4     3    2
    10    20    21   ar
    11    23    24    1
    12    23    26    1
    13    15    13   ar
    14    15    17   ar
    15    13    14   ar
    16   104   103    2
    17    24    25    2
    18     3     2    1
    19     1     2    1
    20    21    19   ar
    21    28    26    1
    22    17    19   ar
    23    17    16   ar
    24    14    16   ar
    25    26    27    1
    26     2     5    1
    27   103   102    1
    28     5     7    1
    29     5     6    1
    30   105   102    1
    31   105   106    1
    32   102   101    1
    33    89    90    1
    34    90    91    1
    35    83    82    2
    36    82    81    1
    37    92    91    2
    38    91    93   am
    39   106   107   ar
    40   106   108   ar
    41   107   109   ar
    42    81    84    1
    43    81    80    1
    44    93    94    1
    45    37    39   ar
    46    37    35   ar
    47    86    87    1
    48    86    85    1
    49    39    38   ar
    50    84    85    1
    51   108   110   ar
    52   109   110   ar
    53    94    97    1
    54    94    95    1
    55    87    88    1
    56    35    34   ar
    57    97    98    1
    58   100    98   am
    59    38    36   ar
    60    98    99    2
    61    95    96    2
    62    34    36   ar
    63    34    33    1
    64    33    30    1
    65    63    61   ar
    66    60    61    1
    67    60    57    1
    68    29    30    1
    69    30    31    1
    70    77    76    2
    71    61    62   ar
    72    72    70   ar
    73    72    73   ar
    74    79    78    1
    75    75    76    1
    76    75    78    1
    77    75    74    1
    78    70    69   ar
    79    31    32    2
    80    57    56    1
    81    57    58    1
    82    73    71   ar
    83    55    54    1
    84    59    58    2
    85    69    68    1
    86    69    71   ar
    87    56    52   am
    88    68    65    1
    89    46    48   ar
    90    46    45   ar
    91    52    53    2
    92    52    51    1
    93    65    64    1
    94    65    66    1
    95    48    49   ar
    96    54    51    1
    97    67    66    2
    98    45    44    1
    99    45    47   ar
   100    44    41    1
   101    51    50    1
   102    49    47   ar
   103    50    42   am
   104    42    41    1
   105    42    43    2
   106    41    40    1
