@<TRIPOS>MOLECULE
tmp/5hh5A00.pdb
 153 153 0 0 0
SMALL
GASTEIGER

@<TRIPOS>ATOM
      1  N        -15.1520   23.8580  -12.3050 N.3    10  TYR10      -0.1241
      2  CA       -15.6780   23.6770  -10.9610 C.3    10  TYR10       0.1605
      3  C        -16.3050   22.2870  -10.8480 C.2    10  TYR10       0.2264
      4  O        -17.4290   22.0620  -11.3070 O.2    10  TYR10      -0.2867
      5  CB       -16.7000   24.7770  -10.6550 C.3    10  TYR10       0.0534
      6  CG       -17.3890   24.6830   -9.3170 C.ar   10  TYR10      -0.0201
      7  CD1      -18.7560   24.9050   -9.2130 C.ar   10  TYR10      -0.0009
      8  CD2      -16.6840   24.3850   -8.1550 C.ar   10  TYR10      -0.0009
      9  CE1      -19.4000   24.8390   -8.0030 C.ar   10  TYR10       0.0417
     10  CE2      -17.3280   24.3090   -6.9350 C.ar   10  TYR10       0.0417
     11  CZ       -18.6880   24.5400   -6.8690 C.ar   10  TYR10       0.1957
     12  OH       -19.3500   24.4730   -5.6700 O.3    10  TYR10      -0.2866
     13  N        -23.6170   15.4870   -5.2910 N.3    16  TRP16      -0.1241
     14  CA       -24.1540   16.8260   -5.5290 C.3    16  TRP16       0.1605
     15  C        -24.8760   16.9020   -6.8690 C.2    16  TRP16       0.2264
     16  O        -25.7040   17.7990   -7.1060 O.2    16  TRP16      -0.2867
     17  CB       -23.0470   17.8760   -5.5110 C.3    16  TRP16       0.0550
     18  CG       -22.3870   18.0930   -4.1860 C.ar   16  TRP16       0.0003
     19  CD1      -22.3050   17.2140   -3.1360 C.ar   16  TRP16       0.0946
     20  CD2      -21.6970   19.2770   -3.7730 C.ar   16  TRP16       0.0152
     21  NE1      -21.6000   17.7840   -2.0980 N.ar   16  TRP16      -0.2442
     22  CE2      -21.2170   19.0500   -2.4660 C.ar   16  TRP16       0.0810
     23  CE3      -21.4320   20.5060   -4.3880 C.ar   16  TRP16       0.0012
     24  CZ2      -20.4870   20.0120   -1.7580 C.ar   16  TRP16       0.0191
     25  CZ3      -20.7040   21.4630   -3.6850 C.ar   16  TRP16       0.0001
     26  CH2      -20.2450   21.2090   -2.3850 C.ar   16  TRP16       0.0015
     27  N        -27.8670   31.9640   -1.5780 N.3    83  HIS83      -0.1241
     28  CA       -26.7770   32.8580   -1.9640 C.3    83  HIS83       0.1621
     29  C        -26.3050   32.5750   -3.3880 C.2    83  HIS83       0.2264
     30  O        -26.5450   31.4960   -3.9240 O.2    83  HIS83      -0.2867
     31  CB       -25.6130   32.7770   -0.9590 C.3    83  HIS83       0.0745
     32  CG       -24.8460   31.4930   -0.9790 C.ar   83  HIS83       0.0817
     33  ND1      -25.2220   30.3850   -0.2420 N.ar   83  HIS83      -0.2268
     34  CD2      -23.6770   31.1580   -1.5800 C.ar   83  HIS83       0.1154
     35  CE1      -24.3390   29.4200   -0.4150 C.ar   83  HIS83       0.1986
     36  NE2      -23.3890   29.8640   -1.2260 N.ar   83  HIS83      -0.2212
     37  N        -23.7640   31.7280   -5.2430 N.3    85  HIS85      -0.1241
     38  CA       -22.6260   30.9170   -5.6810 C.3    85  HIS85       0.1621
     39  C        -23.0650   29.8960   -6.7250 C.2    85  HIS85       0.2264
     40  O        -24.2410   29.5500   -6.7940 O.2    85  HIS85      -0.2867
     41  CB       -21.9790   30.1890   -4.5010 C.3    85  HIS85       0.0745
     42  CG       -21.0030   31.0280   -3.7380 C.ar   85  HIS85       0.0817
     43  ND1      -20.5760   30.7010   -2.4680 N.ar   85  HIS85      -0.2268
     44  CD2      -20.3710   32.1820   -4.0620 C.ar   85  HIS85       0.1154
     45  CE1      -19.7240   31.6180   -2.0420 C.ar   85  HIS85       0.1986
     46  NE2      -19.5760   32.5250   -2.9930 N.ar   85  HIS85      -0.2212
     47  N        -23.0380   26.7360   -7.0560 N.3    87  ASP87      -0.1225
     48  CA       -23.7100   25.4810   -6.7290 C.3    87  ASP87       0.1805
     49  C        -25.0900   25.6860   -6.1240 C.2    87  ASP87       0.2597
     50  O        -25.7250   24.7250   -5.6890 O.2    87  ASP87      -0.2718
     51  CB       -22.8450   24.6070   -5.8090 C.3    87  ASP87       0.1424
     52  CG       -22.4830   25.2690   -4.4910 C.2    87  ASP87       0.3668
     53  OD1      -22.5280   26.5120   -4.3760 O.co2  87  ASP87      -0.2456
     54  OD2      -22.1250   24.5120   -3.5630 O.co2  87  ASP87      -0.2456
     55  N        -25.5700   26.9270   -6.1280 N.am   88  HIS88      -0.1975
     56  CA       -26.9520   27.1780   -5.7430 C.3    88  HIS88       0.1656
     57  C        -27.6950   28.0410   -6.7530 C.2    88  HIS88       0.2291
     58  O        -28.9050   27.8770   -6.9280 O.2    88  HIS88      -0.2864
     59  CB       -27.0000   27.8090   -4.3480 C.3    88  HIS88       0.0771
     60  CG       -26.2200   27.0370   -3.3350 C.ar   88  HIS88       0.0820
     61  ND1      -26.5780   25.7660   -2.9320 N.ar   88  HIS88      -0.2267
     62  CD2      -25.0700   27.3300   -2.6840 C.ar   88  HIS88       0.1154
     63  CE1      -25.6900   25.3170   -2.0620 C.ar   88  HIS88       0.1986
     64  NE2      -24.7670   26.2480   -1.8920 N.ar   88  HIS88      -0.2212
     65  N        -13.1100   33.6600   -3.4630 N.3   123  PHE123     -0.1241
     66  CA       -12.7800   32.6710   -4.4990 C.3   123  PHE123      0.1605
     67  C        -12.2110   33.2940   -5.7710 C.2   123  PHE123      0.2264
     68  O        -11.8260   32.5750   -6.6880 O.2   123  PHE123     -0.2867
     69  CB       -14.0240   31.8580   -4.8990 C.3   123  PHE123      0.0534
     70  CG       -14.6910   31.1380   -3.7660 C.ar  123  PHE123     -0.0203
     71  CD1      -13.9540   30.5850   -2.7380 C.ar  123  PHE123     -0.0042
     72  CD2      -16.0720   31.0040   -3.7460 C.ar  123  PHE123     -0.0042
     73  CE1      -14.5840   29.9090   -1.7000 C.ar  123  PHE123     -0.0003
     74  CE2      -16.7060   30.3320   -2.7150 C.ar  123  PHE123     -0.0003
     75  CZ       -15.9610   29.7850   -1.6920 C.ar  123  PHE123     -0.0000
     76  N        -21.3740   34.1050    4.7960 N.3   159  HIS159     -0.1241
     77  CA       -20.9110   33.1920    3.7580 C.3   159  HIS159      0.1621
     78  C        -20.7800   33.9270    2.4150 C.2   159  HIS159      0.2264
     79  O        -19.7970   33.7560    1.6810 O.2   159  HIS159     -0.2867
     80  CB       -21.8440   31.9860    3.6300 C.3   159  HIS159      0.0745
     81  CG       -21.3520   30.9900    2.6350 C.ar  159  HIS159      0.0817
     82  ND1      -20.2730   30.1690    2.8840 N.ar  159  HIS159     -0.2268
     83  CD2      -21.7310   30.7410    1.3590 C.ar  159  HIS159      0.1154
     84  CE1      -20.0300   29.4300    1.8160 C.ar  159  HIS159      0.1986
     85  NE2      -20.8990   29.7590    0.8780 N.ar  159  HIS159     -0.2212
     86  N        -26.1030   28.8420    4.1160 N.3   184  SER184     -0.1202
     87  CA       -24.9120   28.2890    4.6740 C.3   184  SER184      0.2020
     88  C        -24.3170   29.2460    5.6970 C.2   184  SER184      0.2619
     89  O        -24.3620   30.4040    5.4900 O.2   184  SER184     -0.2717
     90  CB       -23.8820   28.0390    3.5830 C.3   184  SER184      0.2103
     91  OG       -24.3620   27.1510    2.6150 O.3   184  SER184     -0.2182
     92  N        -23.6750   28.7040    6.7150 N.am  185  LEU185     -0.1965
     93  CA       -22.9580   29.5070    7.7040 C.3   185  LEU185      0.1728
     94  C        -21.4870   29.1090    7.7390 C.2   185  LEU185      0.2616
     95  O        -20.7790   29.4040    8.6980 O.2   185  LEU185     -0.2715
     96  CB       -23.5820   29.3580    9.0970 C.3   185  LEU185      0.0311
     97  CG       -24.9090   30.0990    9.3110 C.3   185  LEU185      0.0022
     98  CD1      -25.5950   29.6150   10.5710 C.3   185  LEU185      0.0001
     99  CD2      -24.6610   31.6070    9.3790 C.3   185  LEU185      0.0001
    100  N        -21.0430   28.4380    6.6800 N.am  186  SER186     -0.1950
    101  CA       -19.6550   28.0090    6.5390 C.3   186  SER186      0.1924
    102  C        -18.7700   29.1600    6.0660 C.2   186  SER186      0.2314
    103  O        -19.2630   30.1790    5.5620 O.2   186  SER186     -0.2863
    104  CB       -19.5640   26.8460    5.5500 C.3   186  SER186      0.2116
    105  OG       -19.9770   27.2590    4.2490 O.3   186  SER186     -0.2180
    106  N        -15.5060   28.4030    4.0880 N.3   188  PRO188     -0.2116
    107  CA       -14.5210   27.4420    3.5570 C.3   188  PRO188      0.1372
    108  C        -13.2840   28.0960    2.9450 C.2   188  PRO188      0.2244
    109  O        -13.3460   28.6470    1.8420 O.2   188  PRO188     -0.2868
    110  CB       -15.3150   26.6850    2.4840 C.3   188  PRO188      0.0268
    111  CG       -16.3590   27.6430    2.0540 C.3   188  PRO188      0.0207
    112  CD       -16.7400   28.4240    3.2850 C.3   188  PRO188      0.0892
    113  N        -31.5700   23.4360    4.5210 N.3   222  THR222     -0.1204
    114  CA       -30.3550   24.1810    4.1760 C.3   222  THR222      0.1979
    115  C        -29.9310   23.8270    2.7530 C.2   222  THR222      0.2460
    116  O        -30.2980   22.7570    2.2500 O.2   222  THR222     -0.2732
    117  CB       -29.2010   23.8610    5.1490 C.3   222  THR222      0.1783
    118  OG1      -29.1120   22.4380    5.3030 O.3   222  THR222     -0.2211
    119  CG2      -29.4520   24.4840    6.5190 C.3   222  THR222      0.0376
    120  N        -29.1560   24.7090    2.0970 N.am  223  PRO223     -0.2717
    121  CA       -28.7640   24.4590    0.7010 C.3   223  PRO223      0.1535
    122  C        -27.9840   23.1580    0.5360 C.2   223  PRO223      0.2598
    123  O        -28.1900   22.4640   -0.4620 O.2   223  PRO223     -0.2715
    124  CB       -27.9010   25.6820    0.3560 C.3   223  PRO223      0.0310
    125  CG       -28.4450   26.7710    1.2460 C.3   223  PRO223      0.0237
    126  CD       -28.7550   26.0610    2.5470 C.3   223  PRO223      0.0939
    127  N        -27.1010   22.8330    1.4820 N.am  224  HIS224     -0.1974
    128  CA       -26.5590   21.4690    1.5600 C.3   224  HIS224      0.1656
    129  C        -27.3360   20.7370    2.6480 C.2   224  HIS224      0.2291
    130  O        -27.2900   21.1320    3.8140 O.2   224  HIS224     -0.2864
    131  CB       -25.0590   21.4710    1.8650 C.3   224  HIS224      0.0771
    132  CG       -24.2280   22.0920    0.7880 C.ar  224  HIS224      0.0820
    133  ND1      -23.7520   21.3750   -0.2880 N.ar  224  HIS224     -0.2267
    134  CD2      -23.8030   23.3660    0.6090 C.ar  224  HIS224      0.1154
    135  CE1      -23.0610   22.1780   -1.0790 C.ar  224  HIS224      0.1986
    136  NE2      -23.0780   23.3920   -0.5590 N.ar  224  HIS224     -0.2212
    137  N        -25.8940   19.8430    6.1430 N.3   227  ALA227     -0.1245
    138  CA       -25.6690   20.8790    7.1460 C.3   227  ALA227      0.1562
    139  C        -26.7740   20.9080    8.2070 C.2   227  ALA227      0.2260
    140  O        -26.5350   21.3030    9.3520 O.2   227  ALA227     -0.2867
    141  CB       -25.5460   22.2450    6.4770 C.3   227  ALA227      0.0290
    142  N        -28.5440   24.3320   14.6010 N.3   248  TYR248     -0.1241
    143  CA       -27.7760   24.6180   13.3970 C.3   248  TYR248      0.1605
    144  C        -26.9030   25.8470   13.6410 C.2   248  TYR248      0.2264
    145  O        -25.7050   25.8510   13.3160 O.2   248  TYR248     -0.2867
    146  CB       -28.7150   24.8230   12.2010 C.3   248  TYR248      0.0534
    147  CG       -28.0560   25.3410   10.9470 C.ar  248  TYR248     -0.0201
    148  CD1      -26.9880   24.6670   10.3700 C.ar  248  TYR248     -0.0009
    149  CD2      -28.5190   26.4930   10.3270 C.ar  248  TYR248     -0.0009
    150  CE1      -26.3990   25.1330    9.2080 C.ar  248  TYR248      0.0417
    151  CE2      -27.9440   26.9640    9.1570 C.ar  248  TYR248      0.0417
    152  CZ       -26.8840   26.2800    8.6050 C.ar  248  TYR248      0.1957
    153  OH       -26.2930   26.7420    7.4520 O.3   248  TYR248     -0.2866
@<TRIPOS>BOND
     1     1     2    1
     2     4     3    2
     3     2     3    1
     4     2     5    1
     5     5     6    1
     6     6     7   ar
     7     6     8   ar
     8     7     9   ar
     9     8    10   ar
    10     9    11   ar
    11    16    15    2
    12    47    48    1
    13    10    11   ar
    14    58    57    2
    15    15    14    1
    16    11    12    1
    17    40    39    2
    18    57    56    1
    19    48    49    1
    20    48    51    1
    21    39    38    1
    22    68    67    2
    23    55    49   am
    24    55    56    1
    25    49    50    2
    26    51    52    1
    27    67    66    1
    28    56    59    1
    29    38    37    1
    30    38    41    1
    31    14    17    1
    32    14    13    1
    33    17    18    1
    34    69    66    1
    35    69    70    1
    36    41    42    1
    37    66    65    1
    38    52    53   ar
    39    52    54   ar
    40    23    20   ar
    41    23    25   ar
    42    59    60    1
    43    18    20   ar
    44    18    19   ar
    45    44    42   ar
    46    44    46   ar
    47    30    29    2
    48    20    22   ar
    49    70    72   ar
    50    70    71   ar
    51    72    74   ar
    52    42    43   ar
    53    25    26   ar
    54    29    28    1
    55    60    61   ar
    56    60    62   ar
    57    19    21   ar
    58    46    45   ar
    59    61    63   ar
    60    71    73   ar
    61    74    75   ar
    62    62    64   ar
    63    43    45   ar
    64    22    21   ar
    65    22    24   ar
    66    26    24   ar
    67    63    64   ar
    68    28    27    1
    69    28    31    1
    70    73    75   ar
    71    34    36   ar
    72    34    32   ar
    73    36    35   ar
    74   135   136   ar
    75   135   133   ar
    76    32    31    1
    77    32    33   ar
    78   136   134   ar
    79   123   122    2
    80    35    33   ar
    81   133   132   ar
    82   124   121    1
    83   124   125    1
    84   122   121    1
    85   122   127   am
    86   134   132   ar
    87   121   120    1
    88   132   131    1
    89    85    83   ar
    90    85    84   ar
    91   125   126    1
    92    83    81   ar
    93   127   128    1
    94   128   131    1
    95   128   129    1
    96    79    78    2
    97    84    82   ar
    98   109   108    2
    99   111   110    1
   100   111   112    1
   101   120   126    1
   102   120   115   am
   103   116   115    2
   104    78    77    1
   105   110   107    1
   106    91    90    1
   107    81    82   ar
   108    81    80    1
   109   129   130    2
   110   115   114    1
   111   108   107    1
   112   112   106    1
   113   107   106    1
   114    90    87    1
   115    80    77    1
   116    77    76    1
   117    86    87    1
   118   114   113    1
   119   114   117    1
   120   105   104    1
   121    87    88    1
   122   117   118    1
   123   117   119    1
   124    89    88    2
   125   104   101    1
   126   103   102    2
   127    88    92   am
   128   102   101    1
   129   137   138    1
   130   141   138    1
   131   101   100    1
   132   100    94   am
   133    92    93    1
   134   138   139    1
   135   153   152    1
   136    93    94    1
   137    93    96    1
   138    94    95    2
   139   139   140    2
   140   152   151   ar
   141   152   150   ar
   142    96    97    1
   143   151   149   ar
   144   150   148   ar
   145    97    99    1
   146    97    98    1
   147   149   147   ar
   148   148   147   ar
   149   147   146    1
   150   146   143    1
   151   145   144    2
   152   143   144    1
   153   143   142    1
