@<TRIPOS>MOLECULE
tmp/5hhpA00.pdb
 185 179 0 0 0
SMALL
GASTEIGER

@<TRIPOS>ATOM
      1  N         -9.3340   -3.7650   13.8000 N.3     5  MET5       -0.1245
      2  CA        -9.4360   -2.8100   12.7120 C.3     5  MET5        0.1570
      3  C         -8.8280   -1.5010   13.1960 C.2     5  MET5        0.2261
      4  O         -9.1840   -1.0380   14.2590 O.2     5  MET5       -0.2867
      5  CB       -10.8900   -2.6000   12.2720 C.3     5  MET5        0.0387
      6  CG       -11.0200   -1.6420   11.0850 C.3     5  MET5        0.0595
      7  SD       -12.7000   -1.4300   10.4510 S.3     5  MET5       -0.1393
      8  CE       -13.4760   -0.5710   11.8040 C.3     5  MET5        0.0692
      9  N         -7.2810    2.5550   12.0060 N.3     7  TYR7       -0.1241
     10  CA        -7.0510    3.5980   11.0320 C.3     7  TYR7        0.1605
     11  C         -5.9440    4.5100   11.5130 C.2     7  TYR7        0.2264
     12  O         -5.8740    4.8420   12.7070 O.2     7  TYR7       -0.2867
     13  CB        -8.3150    4.3950   10.8070 C.3     7  TYR7        0.0534
     14  CG        -9.3740    3.6460   10.0370 C.ar    7  TYR7       -0.0201
     15  CD1      -10.4430    3.0450   10.6900 C.ar    7  TYR7       -0.0009
     16  CD2       -9.3320    3.5910    8.6480 C.ar    7  TYR7       -0.0009
     17  CE1      -11.4380    2.3870    9.9720 C.ar    7  TYR7        0.0417
     18  CE2      -10.3160    2.9410    7.9280 C.ar    7  TYR7        0.0417
     19  CZ       -11.3660    2.3410    8.5980 C.ar    7  TYR7        0.1957
     20  OH       -12.3510    1.6860    7.8750 O.3     7  TYR7       -0.2866
     21  N         -3.8990    8.1370   10.6190 N.3     9  PHE9       -0.1241
     22  CA        -4.0110    9.4170    9.9110 C.3     9  PHE9        0.1605
     23  C         -2.7720   10.2440   10.2010 C.2     9  PHE9        0.2264
     24  O         -2.3710   10.3690   11.3590 O.2     9  PHE9       -0.2867
     25  CB        -5.2590   10.1860   10.3510 C.3     9  PHE9        0.0534
     26  CG        -6.5290    9.4040   10.2520 C.ar    9  PHE9       -0.0203
     27  CD1       -6.9410    8.6040   11.2970 C.ar    9  PHE9       -0.0042
     28  CD2       -7.3270    9.4900    9.1150 C.ar    9  PHE9       -0.0042
     29  CE1       -8.1140    7.8700   11.2260 C.ar    9  PHE9       -0.0003
     30  CE2       -8.5090    8.7690    9.0250 C.ar    9  PHE9       -0.0003
     31  CZ        -8.9080    7.9560   10.0910 C.ar    9  PHE9       -0.0000
     32  N        -11.3670    8.0700   -1.1970 N.3    45  MET45      -0.1245
     33  CA       -10.9290    6.8760   -0.4790 C.3    45  MET45       0.1570
     34  C        -10.8170    5.7670   -1.5020 C.2    45  MET45       0.2261
     35  O        -11.7430    5.5620   -2.3000 O.2    45  MET45      -0.2867
     36  CB       -11.9150    6.4890    0.6280 C.3    45  MET45       0.0387
     37  CG       -11.4020    5.3570    1.5640 C.3    45  MET45       0.0595
     38  SD       -10.1760    5.9730    2.7510 S.3    45  MET45      -0.1393
     39  CE       -11.2320    6.2510    4.1830 C.3    45  MET45       0.0692
     40  N        -17.1970    6.9850    2.6970 N.3    63  GLU63      -0.1245
     41  CA       -15.8470    6.9680    3.2580 C.3    63  GLU63       0.1567
     42  C        -15.1000    8.1850    2.7550 C.2    63  GLU63       0.2260
     43  O        -14.3020    8.7660    3.4750 O.2    63  GLU63      -0.2867
     44  CB       -15.0960    5.6870    2.8980 C.3    63  GLU63       0.0388
     45  CG       -15.6640    4.4200    3.5530 C.3    63  GLU63       0.1160
     46  CD       -15.7650    4.5270    5.0760 C.2    63  GLU63       0.3649
     47  OE1      -14.7190    4.7390    5.7390 O.co2  63  GLU63      -0.2457
     48  OE2      -16.8910    4.4030    5.6100 O.co2  63  GLU63      -0.2457
     49  N        -16.5070   11.1320    1.9540 N.3    65  ARG65      -0.1231
     50  CA       -17.0650   12.2830    2.6510 C.3    65  ARG65       0.1694
     51  C        -16.4430   12.3880    4.0460 C.2    65  ARG65       0.2592
     52  O        -15.9940   13.4520    4.4650 O.2    65  ARG65      -0.2718
     53  CB       -18.5900   12.1530    2.7390 C.3    65  ARG65       0.0321
     54  CG       -19.2820   13.2190    3.5790 C.3    65  ARG65       0.0489
     55  CD       -20.7970   12.9680    3.6840 C.3    65  ARG65       0.2205
     56  NE       -21.1060   11.5780    4.0280 N.pl3  65  ARG65      -0.0865
     57  CZ       -21.0990   11.0840    5.2620 C.cat  65  ARG65       0.5346
     58  NH1      -20.7850   11.8530    6.2960 N.pl3  65  ARG65       0.1354
     59  NH2      -21.3890    9.8070    5.4630 N.pl3  65  ARG65       0.1354
     60  N        -16.3850   11.2610    4.7430 N.am   66  LYS66      -0.1966
     61  CA       -15.8860   11.2650    6.1050 C.3    66  LYS66       0.1728
     62  C        -14.4000   11.5490    6.1410 C.2    66  LYS66       0.2616
     63  O        -13.9330   12.3080    6.9900 O.2    66  LYS66      -0.2715
     64  CB       -16.2000    9.9290    6.7880 C.3    66  LYS66       0.0311
     65  CG       -17.7030    9.7120    7.0380 C.3    66  LYS66       0.0038
     66  CD       -18.0000    8.4010    7.7760 C.3    66  LYS66       0.0206
     67  CE       -17.6660    7.1750    6.9170 C.3    66  LYS66       0.1093
     68  NZ       -17.8840    5.8770    7.6450 N.3    66  LYS66      -0.1314
     69  N        -13.6380   10.9700    5.2210 N.am   67  VAL67      -0.1977
     70  CA       -12.1980   11.1470    5.3310 C.3    67  VAL67       0.1596
     71  C        -11.8060   12.5900    4.9590 C.2    67  VAL67       0.2287
     72  O        -10.8150   13.1170    5.4760 O.2    67  VAL67      -0.2864
     73  CB       -11.4170   10.1010    4.4900 C.3    67  VAL67       0.0276
     74  CG1      -11.3550   10.4770    3.0290 C.3    67  VAL67       0.0022
     75  CG2       -9.9950    9.9180    5.0490 C.3    67  VAL67       0.0022
     76  N        -13.5870   15.2050    5.7890 N.3    69  ALA69      -0.1231
     77  CA       -13.8560   15.9010    7.0450 C.3    69  ALA69       0.1694
     78  C        -12.7330   15.6780    8.0500 C.2    69  ALA69       0.2592
     79  O        -12.3940   16.5920    8.7950 O.2    69  ALA69      -0.2718
     80  CB       -15.1740   15.4540    7.6330 C.3    69  ALA69       0.0304
     81  N        -12.1790   14.4640    8.0870 N.am   70  HIS70      -0.1976
     82  CA       -11.0230   14.1810    8.9460 C.3    70  HIS70       0.1656
     83  C         -9.8570   15.0870    8.5490 C.2    70  HIS70       0.2291
     84  O         -9.1270   15.6060    9.4020 O.2    70  HIS70      -0.2864
     85  CB       -10.5730   12.7050    8.8430 C.3    70  HIS70       0.0771
     86  CG       -11.3370   11.7450    9.7010 C.ar   70  HIS70       0.0820
     87  ND1      -12.6970   11.5240    9.5680 N.ar   70  HIS70      -0.2267
     88  CD2      -10.9190   10.8950   10.6760 C.ar   70  HIS70       0.1154
     89  CE1      -13.0800   10.6060   10.4380 C.ar   70  HIS70       0.1986
     90  NE2      -12.0240   10.2010   11.1150 N.ar   70  HIS70      -0.2212
     91  N         -2.9960   10.5720   14.1840 N.3    97  ARG97      -0.1245
     92  CA        -4.1440   10.0520   14.9150 C.3    97  ARG97       0.1563
     93  C         -4.3060    8.5720   14.5860 C.2    97  ARG97       0.2260
     94  O         -4.1740    8.1740   13.4270 O.2    97  ARG97      -0.2867
     95  CB        -5.4260   10.8190   14.5460 C.3    97  ARG97       0.0307
     96  CG        -6.6610   10.3650   15.3260 C.3    97  ARG97       0.0489
     97  CD        -7.9960   10.8140   14.7020 C.3    97  ARG97       0.2205
     98  NE        -8.0550   12.2450   14.4360 N.pl3  97  ARG97      -0.0865
     99  CZ        -8.6590   13.1360   15.2200 C.cat  97  ARG97       0.5346
    100  NH1       -8.6590   14.4210   14.8830 N.pl3  97  ARG97       0.1354
    101  NH2       -9.2550   12.7500   16.3440 N.pl3  97  ARG97       0.1354
    102  N         -7.0260    5.2740   15.6350 N.3    99  TYR99      -0.1241
    103  CA        -8.1160    4.6990   16.4160 C.3    99  TYR99       0.1605
    104  C         -8.5690    3.3670   15.8440 C.2    99  TYR99       0.2264
    105  O         -8.2140    3.0080   14.7260 O.2    99  TYR99      -0.2867
    106  CB        -9.2980    5.6730   16.5270 C.3    99  TYR99       0.0534
    107  CG       -10.0010    6.1280   15.2530 C.ar   99  TYR99      -0.0201
    108  CD1      -10.9120    5.3170   14.5970 C.ar   99  TYR99      -0.0009
    109  CD2       -9.8140    7.4230   14.7640 C.ar   99  TYR99      -0.0009
    110  CE1      -11.5810    5.7670   13.4530 C.ar   99  TYR99       0.0417
    111  CE2      -10.4780    7.8750   13.6520 C.ar   99  TYR99       0.0417
    112  CZ       -11.3590    7.0470   12.9960 C.ar   99  TYR99       0.1957
    113  OH       -12.0070    7.5080   11.8670 O.3    99  TYR99      -0.2866
    114  N         -8.1580    5.3970   20.7950 N.3   114  HIS114     -0.1241
    115  CA        -8.2250    6.6350   20.0350 C.3   114  HIS114      0.1621
    116  C         -7.1850    7.5890   20.5860 C.2   114  HIS114      0.2264
    117  O         -7.3770    8.1290   21.6720 O.2   114  HIS114     -0.2867
    118  CB        -9.6080    7.2720   20.1170 C.3   114  HIS114      0.0745
    119  CG        -9.7040    8.5730   19.3930 C.ar  114  HIS114      0.0817
    120  ND1       -9.2010    9.7480   19.9060 N.ar  114  HIS114     -0.2268
    121  CD2      -10.2360    8.8860   18.1820 C.ar  114  HIS114      0.1154
    122  CE1       -9.4100   10.7280   19.0410 C.ar  114  HIS114      0.1986
    123  NE2      -10.0370   10.2320   17.9940 N.ar  114  HIS114     -0.2212
    124  N        -19.2940    9.5970   22.6720 N.3   155  GLN155     -0.1231
    125  CA       -19.5840    9.3680   21.2680 C.3   155  GLN155      0.1698
    126  C        -18.5400    8.4620   20.6230 C.2   155  GLN155      0.2592
    127  O        -18.8690    7.6630   19.7550 O.2   155  GLN155     -0.2718
    128  CB       -19.6800   10.6990   20.5320 C.3   155  GLN155      0.0381
    129  CG       -20.9150   11.5030   20.9100 C.3   155  GLN155      0.0905
    130  CD       -21.0720   12.7550   20.0780 C.2   155  GLN155      0.2608
    131  OE1      -20.1160   13.2390   19.4820 O.2   155  GLN155     -0.2717
    132  NE2      -22.2850   13.2840   20.0310 N.am  155  GLN155     -0.0878
    133  N        -17.2830    8.5840   21.0470 N.am  156  LEU156     -0.1980
    134  CA       -16.2450    7.6720   20.5840 C.3   156  LEU156      0.1596
    135  C        -16.5430    6.2690   21.0680 C.2   156  LEU156      0.2287
    136  O        -16.4330    5.2990   20.3130 O.2   156  LEU156     -0.2864
    137  CB       -14.8670    8.1050   21.0720 C.3   156  LEU156      0.0297
    138  CG       -14.2430    9.2790   20.3220 C.3   156  LEU156      0.0022
    139  CD1      -12.9600    9.7160   21.0260 C.3   156  LEU156      0.0001
    140  CD2      -13.9640    8.9130   18.8940 C.3   156  LEU156      0.0001
    141  N        -18.9220    4.3480   18.8630 N.3   159  TYR159     -0.1241
    142  CA       -18.3110    3.8550   17.6430 C.3   159  TYR159      0.1605
    143  C        -17.3900    2.6800   17.9500 C.2   159  TYR159      0.2264
    144  O        -17.4950    1.6190   17.3260 O.2   159  TYR159     -0.2867
    145  CB       -17.5440    4.9770   16.9370 C.3   159  TYR159      0.0534
    146  CG       -16.6250    4.5160   15.8190 C.ar  159  TYR159     -0.0201
    147  CD1      -17.1050    4.3260   14.5200 C.ar  159  TYR159     -0.0009
    148  CD2      -15.2740    4.2890   16.0570 C.ar  159  TYR159     -0.0009
    149  CE1      -16.2520    3.9180   13.4900 C.ar  159  TYR159      0.0417
    150  CE2      -14.4230    3.8880   15.0440 C.ar  159  TYR159      0.0417
    151  CZ       -14.9100    3.6960   13.7650 C.ar  159  TYR159      0.1957
    152  OH       -14.0300    3.2940   12.7760 O.3   159  TYR159     -0.2866
    153  N        -20.1560    0.3490   16.2940 N.3   163  THR163     -0.1218
    154  CA       -19.9910    0.5110   14.8510 C.3   163  THR163      0.1862
    155  C        -18.6920   -0.0810   14.3140 C.2   163  THR163      0.2287
    156  O        -18.6830   -0.7400   13.2720 O.2   163  THR163     -0.2866
    157  CB       -20.0290    1.9970   14.4720 C.3   163  THR163      0.1770
    158  OG1      -21.1710    2.6050   15.0780 O.3   163  THR163     -0.2211
    159  CG2      -20.1050    2.1790   12.9660 C.3   163  THR163      0.0375
    160  N        -18.2950   -3.1510   11.5820 N.3   167  TRP167     -0.1241
    161  CA       -17.5310   -3.0140   10.3430 C.3   167  TRP167      0.1605
    162  C        -16.5460   -4.1630   10.2180 C.2   167  TRP167      0.2264
    163  O        -16.4070   -4.7840    9.1620 O.2   167  TRP167     -0.2867
    164  CB       -16.7580   -1.6900   10.3120 C.3   167  TRP167      0.0550
    165  CG       -17.5430   -0.4750    9.9080 C.ar  167  TRP167      0.0003
    166  CD1      -17.7120    0.6700   10.6390 C.ar  167  TRP167      0.0946
    167  CD2      -18.2370   -0.2690    8.6750 C.ar  167  TRP167      0.0152
    168  NE1      -18.4710    1.5730    9.9370 N.ar  167  TRP167     -0.2442
    169  CE2      -18.8090    1.0230    8.7280 C.ar  167  TRP167      0.0810
    170  CE3      -18.4310   -1.0480    7.5250 C.ar  167  TRP167      0.0012
    171  CZ2      -19.5610    1.5500    7.6810 C.ar  167  TRP167      0.0191
    172  CZ3      -19.1850   -0.5230    6.4850 C.ar  167  TRP167      0.0001
    173  CH2      -19.7410    0.7670    6.5720 C.ar  167  TRP167      0.0015
    174  N        -16.1410   -6.9670    7.3860 N.3   171  TYR171     -0.1241
    175  CA       -14.9250   -7.1070    6.5930 C.3   171  TYR171      0.1605
    176  C        -14.3630   -8.5230    6.7200 C.2   171  TYR171      0.2264
    177  O        -13.9260   -9.1120    5.7330 O.2   171  TYR171     -0.2867
    178  CB       -13.8690   -6.0840    7.0280 C.3   171  TYR171      0.0534
    179  CG       -14.2560   -4.6390    6.7940 C.ar  171  TYR171     -0.0201
    180  CD1      -15.1400   -4.2820    5.7790 C.ar  171  TYR171     -0.0009
    181  CD2      -13.7210   -3.6380    7.5720 C.ar  171  TYR171     -0.0009
    182  CE1      -15.4840   -2.9540    5.5610 C.ar  171  TYR171      0.0417
    183  CE2      -14.0560   -2.2960    7.3660 C.ar  171  TYR171      0.0417
    184  CZ       -14.9390   -1.9630    6.3640 C.ar  171  TYR171      0.1957
    185  OH       -15.2620   -0.6360    6.1680 O.3   171  TYR171     -0.2866
@<TRIPOS>BOND
     1    35    34    2
     2    34    33    1
     3    32    33    1
     4    33    36    1
     5    36    37    1
     6    37    38    1
     7    49    50    1
     8    50    53    1
     9    50    51    1
    10    40    41    1
    11    53    54    1
    12    38    39    1
    13    42    41    1
    14    42    43    2
    15    44    41    1
    16    44    45    1
    17    74    73    1
    18    45    46    1
    19    54    55    1
    20    55    56    1
    21    56    57    2
    22    51    52    2
    23    51    60   am
    24    73    75    1
    25    73    70    1
    26    60    61    1
    27    71    70    1
    28    71    72    2
    29    46    48   ar
    30    46    47   ar
    31    69    70    1
    32    69    62   am
    33    57    59    1
    34    57    58    1
    35   182   180   ar
    36   182   184   ar
    37   177   176    2
    38   180   179   ar
    39    76    77    1
    40    61    62    1
    41    61    64    1
    42    62    63    2
    43   185   184    1
    44   184   183   ar
    45   172   173   ar
    46   172   170   ar
    47   173   171   ar
    48   175   176    1
    49   175   178    1
    50   175   174    1
    51    64    65    1
    52   179   178    1
    53   179   181   ar
    54    67    68    1
    55    67    66    1
    56    65    66    1
    57    77    80    1
    58    77    78    1
    59   183   181   ar
    60   170   167   ar
    61   171   169   ar
    62    20    19    1
    63    18    19   ar
    64    18    16   ar
    65    78    81   am
    66    78    79    2
    67    81    82    1
    68    83    82    1
    69    83    84    2
    70    19    17   ar
    71    16    14   ar
    72   167   169   ar
    73   167   165   ar
    74   169   168   ar
    75    85    82    1
    76    85    86    1
    77    30    28   ar
    78    30    31   ar
    79    28    26   ar
    80   163   162    2
    81    87    86   ar
    82    87    89   ar
    83    86    88   ar
    84   165   164    1
    85   165   166   ar
    86    22    23    1
    87    22    25    1
    88    22    21    1
    89   168   166   ar
    90    17    15   ar
    91    14    15   ar
    92    14    13    1
    93    31    29   ar
    94    23    24    2
    95   162   161    1
    96    26    25    1
    97    26    27   ar
    98   164   161    1
    99   161   160    1
   100    89    90   ar
   101     7     6    1
   102     7     8    1
   103    88    90   ar
   104    13    10    1
   105    10    11    1
   106    10     9    1
   107     6     5    1
   108    29    27   ar
   109    11    12    2
   110   113   112    1
   111     5     2    1
   112     2     3    1
   113     2     1    1
   114   152   151    1
   115   159   157    1
   116   112   110   ar
   117   112   111   ar
   118     3     4    2
   119   156   155    2
   120    94    93    2
   121   110   108   ar
   122   149   151   ar
   123   149   147   ar
   124   111   109   ar
   125   151   150   ar
   126    91    92    1
   127   155   154    1
   128    98    97    1
   129    98    99    2
   130   157   154    1
   131   157   158    1
   132   147   146   ar
   133    95    92    1
   134    95    96    1
   135    93    92    1
   136   108   107   ar
   137    97    96    1
   138   105   104    2
   139   109   107   ar
   140   154   153    1
   141   100    99    1
   142   150   148   ar
   143    99   101    1
   144   107   106    1
   145   102   103    1
   146   146   148   ar
   147   146   145    1
   148   104   103    1
   149   103   106    1
   150   145   142    1
   151   144   143    2
   152   142   143    1
   153   142   141    1
   154   123   121   ar
   155   123   122   ar
   156   121   119   ar
   157   140   138    1
   158   122   120   ar
   159   119   120   ar
   160   119   118    1
   161   131   130    2
   162   127   126    2
   163   132   130   am
   164   115   118    1
   165   115   116    1
   166   115   114    1
   167   130   129    1
   168   136   135    2
   169   138   139    1
   170   138   137    1
   171   128   129    1
   172   128   125    1
   173   134   133    1
   174   134   135    1
   175   134   137    1
   176   116   117    2
   177   126   133   am
   178   126   125    1
   179   125   124    1
