@<TRIPOS>MOLECULE
tmp/5hhtB01.pdb
 157 149 0 0 0
SMALL
GASTEIGER

@<TRIPOS>ATOM
      1  N         24.8870   23.1270   -1.7670 N.3    25  HIS25      -0.1241
      2  CA        25.6780   22.1690   -2.5330 C.3    25  HIS25       0.1621
      3  C         25.7280   22.5160   -3.9990 C.2    25  HIS25       0.2264
      4  O         24.7520   22.2670   -4.7240 O.2    25  HIS25      -0.2867
      5  CB        25.0650   20.7630   -2.4020 C.3    25  HIS25       0.0745
      6  CG        24.9810   20.2690   -0.9980 C.ar   25  HIS25       0.0817
      7  ND1       24.0320   20.7170   -0.0930 N.ar   25  HIS25      -0.2268
      8  CD2       25.7380   19.3620   -0.3400 C.ar   25  HIS25       0.1154
      9  CE1       24.2180   20.0970    1.0610 C.ar   25  HIS25       0.1986
     10  NE2       25.2490   19.2770    0.9350 N.ar   25  HIS25      -0.2212
     11  N         26.8950   18.8000   -7.2490 N.3    28  ALA28      -0.1245
     12  CA        26.0610   17.9200   -8.0480 C.3    28  ALA28       0.1562
     13  C         25.2100   18.6760   -9.0720 C.2    28  ALA28       0.2260
     14  O         25.0770   18.2050  -10.1870 O.2    28  ALA28      -0.2867
     15  CB        25.1450   17.0390   -7.1100 C.3    28  ALA28       0.0290
     16  N         19.7820   12.1000   -5.0550 N.3    63  ASN63      -0.1240
     17  CA        20.8720   12.8770   -4.4530 C.3    63  ASN63       0.1653
     18  C         20.3740   14.2900   -4.1160 C.2    63  ASN63       0.2266
     19  O         20.7760   15.2900   -4.7310 O.2    63  ASN63      -0.2867
     20  CB        22.1120   12.8880   -5.3880 C.3    63  ASN63       0.1155
     21  CG        21.8160   13.0870   -6.8800 C.2    63  ASN63       0.2627
     22  OD1       20.7010   13.0970   -7.3560 O.2    63  ASN63      -0.2716
     23  ND2       22.9230   13.1840   -7.6430 N.am   63  ASN63      -0.0877
     24  N         20.6130   16.5200   -1.8290 N.3    65  HIS65      -0.1241
     25  CA        21.4660   17.6660   -1.4990 C.3    65  HIS65       0.1621
     26  C         21.6560   18.5990   -2.6930 C.2    65  HIS65       0.2264
     27  O         21.8650   19.7990   -2.5160 O.2    65  HIS65      -0.2867
     28  CB        22.8410   17.2280   -0.9740 C.3    65  HIS65       0.0745
     29  CG        23.5440   16.2490   -1.8510 C.ar   65  HIS65       0.0817
     30  ND1       23.2730   14.9030   -1.8030 N.ar   65  HIS65      -0.2268
     31  CD2       24.5020   16.4210   -2.7950 C.ar   65  HIS65       0.1154
     32  CE1       24.0460   14.2760   -2.6830 C.ar   65  HIS65       0.1986
     33  NE2       24.7870   15.1770   -3.3090 N.ar   65  HIS65      -0.2212
     34  N         16.7420   20.8740    1.2660 N.3    99  HIS99      -0.1241
     35  CA        16.4430   19.6500    0.5370 C.3    99  HIS99       0.1621
     36  C         15.0080   19.7820    0.0250 C.2    99  HIS99       0.2264
     37  O         14.1780   20.4220    0.6870 O.2    99  HIS99      -0.2867
     38  CB        16.6490   18.4230    1.4420 C.3    99  HIS99       0.0745
     39  CG        18.0930   18.1380    1.7180 C.ar   99  HIS99       0.0817
     40  ND1       18.8370   18.8500    2.6390 N.ar   99  HIS99      -0.2268
     41  CD2       18.9490   17.2600    1.1450 C.ar   99  HIS99       0.1154
     42  CE1       20.0800   18.3980    2.6420 C.ar   99  HIS99       0.1986
     43  NE2       20.1730   17.4330    1.7440 N.ar   99  HIS99      -0.2212
     44  N         16.9290   13.6160    0.3710 N.3   113  GLY113     -0.1210
     45  CA        18.0110   14.0970    1.2270 C.3   113  GLY113      0.1940
     46  C         18.6510   12.9090    1.9120 C.2   113  GLY113      0.2454
     47  O         19.8540   12.6930    1.7580 O.2   113  GLY113     -0.2732
     48  N         17.8510   12.1240    2.6470 N.am  114  PRO114     -0.2717
     49  CA        18.3930   10.8750    3.2050 C.3   114  PRO114      0.1535
     50  C         18.7100    9.9280    2.0500 C.2   114  PRO114      0.2598
     51  O         17.7860    9.5330    1.3000 O.2   114  PRO114     -0.2715
     52  CB        17.2300   10.3420    4.0580 C.3   114  PRO114      0.0310
     53  CG        16.4640   11.6510    4.4250 C.3   114  PRO114      0.0237
     54  CD        16.4950   12.4210    3.1450 C.3   114  PRO114      0.0939
     55  N         19.9950    9.6170    1.8820 N.am  115  LEU115     -0.1978
     56  CA        20.4170    8.9730    0.6410 C.3   115  LEU115      0.1596
     57  C         19.7830    7.6060    0.4770 C.2   115  LEU115      0.2287
     58  O         19.5350    6.8810    1.4500 O.2   115  LEU115     -0.2864
     59  CB        21.9400    8.8640    0.5920 C.3   115  LEU115      0.0297
     60  CG        22.5840   10.2460    0.5280 C.3   115  LEU115      0.0022
     61  CD1       24.0620   10.0520    0.8610 C.3   115  LEU115      0.0001
     62  CD2       22.3910   10.8260   -0.8630 C.3   115  LEU115      0.0001
     63  N         23.3970    9.3740   -6.9040 N.3   153  GLY153     -0.1210
     64  CA        24.8460    9.4440   -6.8660 C.3   153  GLY153      0.1956
     65  C         25.4920    8.2830   -6.1340 C.2   153  GLY153      0.2612
     66  O         24.8490    7.2380   -5.8920 O.2   153  GLY153     -0.2717
     67  N         26.7760    8.4710   -5.8150 N.am  154  ASP154     -0.1959
     68  CA        27.5530    7.4260   -5.1250 C.3   154  ASP154      0.1840
     69  C         26.9540    7.0760   -3.7850 C.2   154  ASP154      0.2623
     70  O         26.9620    5.8920   -3.3940 O.2   154  ASP154     -0.2715
     71  CB        29.0090    7.8410   -4.9160 C.3   154  ASP154      0.1450
     72  CG        29.7300    8.0710   -6.2140 C.2   154  ASP154      0.3671
     73  OD1       29.8880    7.1120   -6.9790 O.co2 154  ASP154     -0.2456
     74  OD2       30.1370    9.2140   -6.4670 O.co2 154  ASP154     -0.2456
     75  N         26.4490    8.0700   -3.0650 N.am  155  GLY155     -0.1940
     76  CA        25.8890    7.7700   -1.7410 C.3   155  GLY155      0.2014
     77  C         24.6890    6.8640   -1.8070 C.2   155  GLY155      0.2639
     78  O         24.5790    5.8820   -1.0450 O.2   155  GLY155     -0.2714
     79  N         23.7930    7.1370   -2.7450 N.am  156  CYS156     -0.1967
     80  CA        22.6400    6.2820   -2.9480 C.3   156  CYS156      0.1712
     81  C         23.0670    4.8870   -3.3480 C.2   156  CYS156      0.2296
     82  O         22.4900    3.9150   -2.8430 O.2   156  CYS156     -0.2864
     83  CB        21.7370    6.8790   -4.0290 C.3   156  CYS156      0.0983
     84  SG        20.9750    8.4860   -3.5520 S.3   156  CYS156     -0.0798
     85  N         25.8960    3.2870   -2.5660 N.3   158  MET158     -0.1230
     86  CA        26.5160    2.5840   -1.4310 C.3   158  MET158      0.1702
     87  C         25.4580    2.1180   -0.4290 C.2   158  MET158      0.2592
     88  O         25.6260    1.0570    0.1960 O.2   158  MET158     -0.2718
     89  CB        27.5360    3.4940   -0.7370 C.3   158  MET158      0.0401
     90  CG        28.8610    3.5030   -1.4950 C.3   158  MET158      0.0596
     91  SD        30.0980    4.5340   -0.6380 S.3   158  MET158     -0.1393
     92  CE        29.9470    6.0910   -1.5520 C.3   158  MET158      0.0692
     93  N         24.3770    2.8930   -0.2620 N.am  159  GLU159     -0.1979
     94  CA        23.3530    2.5310    0.7420 C.3   159  GLU159      0.1602
     95  C         22.6920    1.2000    0.4280 C.2   159  GLU159      0.2287
     96  O         22.3390    0.9170   -0.7280 O.2   159  GLU159     -0.2864
     97  CB        22.2810    3.6240    0.8110 C.3   159  GLU159      0.0415
     98  CG        22.7410    4.8770    1.5430 C.3   159  GLU159      0.1163
     99  CD        22.8900    4.6810    3.0670 C.2   159  GLU159      0.3649
    100  OE1       22.6140    3.5900    3.6210 O.co2 159  GLU159     -0.2457
    101  OE2       23.2480    5.6950    3.7270 O.co2 159  GLU159     -0.2457
    102  N         25.0920    9.5070  -11.3610 N.3   182  ASP182     -0.1239
    103  CA        26.0830   10.5710  -11.4060 C.3   182  ASP182      0.1674
    104  C         27.4180    9.9960  -10.9560 C.2   182  ASP182      0.2266
    105  O         27.7880   10.0250   -9.7790 O.2   182  ASP182     -0.2867
    106  CB        25.6130   11.7110  -10.4950 C.3   182  ASP182      0.1410
    107  CG        26.3580   12.9980  -10.7370 C.2   182  ASP182      0.3668
    108  OD1       26.8780   13.1400  -11.8530 O.co2 182  ASP182     -0.2456
    109  OD2       26.3870   13.8810   -9.8240 O.co2 182  ASP182     -0.2456
    110  N         30.7160   10.4020  -10.5730 N.3   184  ASN184     -0.1240
    111  CA        31.7200   11.4620  -10.5540 C.3   184  ASN184      0.1653
    112  C         32.9470   11.1760   -9.6840 C.2   184  ASN184      0.2266
    113  O         33.8540   12.0140   -9.5980 O.2   184  ASN184     -0.2867
    114  CB        31.0430   12.8020  -10.1660 C.3   184  ASN184      0.1155
    115  CG        30.4750   12.8260   -8.7390 C.2   184  ASN184      0.2627
    116  OD1       30.8380   12.0010   -7.8830 O.2   184  ASN184     -0.2716
    117  ND2       29.5820   13.7800   -8.4650 N.am  184  ASN184     -0.0877
    118  N         33.6180   11.0400   -6.5920 N.3   186  ILE186     -0.1231
    119  CA        33.8580   11.8490   -5.3850 C.3   186  ILE186      0.1692
    120  C         32.7450   11.6630   -4.3600 C.2   186  ILE186      0.2593
    121  O         31.5710   11.6710   -4.7130 O.2   186  ILE186     -0.2718
    122  CB        33.9140   13.3520   -5.7630 C.3   186  ILE186      0.0266
    123  CG1       35.1540   13.6590   -6.6150 C.3   186  ILE186      0.0019
    124  CG2       33.8620   14.2580   -4.5020 C.3   186  ILE186      0.0020
    125  CD1       36.4770   13.4750   -5.8750 C.3   186  ILE186      0.0001
    126  N         33.1060   11.4710   -3.0920 N.am  187  SER187     -0.1938
    127  CA        32.1350   11.5950   -2.0070 C.3   187  SER187      0.2055
    128  C         32.7690   12.4690   -0.9200 C.2   187  SER187      0.2642
    129  O         33.8110   13.0940   -1.1440 O.2   187  SER187     -0.2714
    130  CB        31.6910   10.2160   -1.4600 C.3   187  SER187      0.2130
    131  OG        32.7490    9.5180   -0.8260 O.3   187  SER187     -0.2179
    132  N         32.1550   12.5330    0.2550 N.am  188  ILE188     -0.1977
    133  CA        32.6240   13.5480    1.2060 C.3   188  ILE188      0.1596
    134  C         34.0300   13.2610    1.7190 C.2   188  ILE188      0.2287
    135  O         34.8290   14.1940    1.9020 O.2   188  ILE188     -0.2864
    136  CB        31.6030   13.7240    2.3570 C.3   188  ILE188      0.0276
    137  CG1       30.4580   14.6270    1.8470 C.3   188  ILE188      0.0022
    138  CG2       32.2520   14.3750    3.6090 C.3   188  ILE188      0.0022
    139  CD1       29.2400   14.6890    2.8220 C.3   188  ILE188      0.0001
    140  N         32.1270   16.5790  -10.8930 N.3   246  ILE246     -0.1245
    141  CA        31.4720   17.3520   -9.8530 C.3   246  ILE246      0.1561
    142  C         31.9360   18.8200   -9.9360 C.2   246  ILE246      0.2260
    143  O         33.1050   19.1000  -10.1270 O.2   246  ILE246     -0.2867
    144  CB        31.7340   16.7360   -8.4690 C.3   246  ILE246      0.0252
    145  CG1       30.7130   17.3110   -7.4820 C.3   246  ILE246      0.0019
    146  CG2       33.1890   16.8890   -7.9890 C.3   246  ILE246      0.0019
    147  CD1       30.7750   16.6280   -6.0730 C.3   246  ILE246      0.0001
    148  N         31.5810   19.7500   -3.2730 N.3   260  HIS260     -0.1241
    149  CA        30.3740   19.0160   -2.8780 C.3   260  HIS260      0.1621
    150  C         29.3400   19.8320   -2.0920 C.2   260  HIS260      0.2264
    151  O         28.1320   19.8100   -2.4190 O.2   260  HIS260     -0.2867
    152  CB        30.7490   17.7720   -2.0250 C.3   260  HIS260      0.0745
    153  CG        29.5900   17.2120   -1.2540 C.ar  260  HIS260      0.0817
    154  ND1       28.6080   16.4410   -1.8480 N.ar  260  HIS260     -0.2268
    155  CD2       29.2190   17.3740    0.0370 C.ar  260  HIS260      0.1154
    156  CE1       27.6780   16.1690   -0.9500 C.ar  260  HIS260      0.1986
    157  NE2       28.0300   16.7140    0.2020 N.ar  260  HIS260     -0.2212
@<TRIPOS>BOND
     1   108   107   ar
     2   103   102    1
     3   103   104    1
     4   103   106    1
     5   104   105    2
     6   140   141    1
     7   107   106    1
     8   107   109   ar
     9   110   111    1
    10   111   114    1
    11   111   112    1
    12    14    13    2
    13   114   115    1
    14   143   142    2
    15   142   141    1
    16   141   144    1
    17   112   113    2
    18    13    12    1
    19   115   117   am
    20   115   116    2
    21   144   146    1
    22   144   145    1
    23    12    11    1
    24    12    15    1
    25    23    21   am
    26   145   147    1
    27    22    21    2
    28    73    72   ar
    29    63    64    1
    30    21    20    1
    31    64    65    1
    32   123   125    1
    33   123   122    1
    34   118   119    1
    35    74    72   ar
    36    72    71    1
    37    65    66    2
    38    65    67   am
    39    67    68    1
    40   122   119    1
    41   122   124    1
    42    20    17    1
    43   119   120    1
    44    68    71    1
    45    68    69    1
    46    16    17    1
    47    19    18    2
    48     4     3    2
    49   121   120    2
    50    17    18    1
    51   120   126   am
    52    83    84    1
    53    83    80    1
    54     3     2    1
    55    69    70    2
    56    69    75   am
    57    81    80    1
    58    81    82    2
    59    33    31   ar
    60    33    32   ar
    61   148   149    1
    62   126   127    1
    63    75    76    1
    64    80    79    1
    65   149   150    1
    66   149   152    1
    67    31    29   ar
    68    79    77   am
    69    26    27    2
    70    26    25    1
    71    32    30   ar
    72    85    86    1
    73     2     5    1
    74     2     1    1
    75   151   150    2
    76     5     6    1
    77   152   153    1
    78   127   130    1
    79   127   128    1
    80    29    30   ar
    81    29    28    1
    82   154   153   ar
    83   154   156   ar
    84    24    25    1
    85    77    76    1
    86    77    78    2
    87    92    91    1
    88    25    28    1
    89    90    89    1
    90    90    91    1
    91   130   131    1
    92    86    89    1
    93    86    87    1
    94   153   155   ar
    95   129   128    2
    96     6     8   ar
    97     6     7   ar
    98   156   157   ar
    99   128   132   am
   100    62    60    1
   101    96    95    2
   102    87    93   am
   103    87    88    2
   104     8    10   ar
   105    93    94    1
   106     7     9   ar
   107    36    35    1
   108    36    37    2
   109   155   157   ar
   110   132   133    1
   111    44    45    1
   112    95    94    1
   113    57    56    1
   114    57    58    2
   115    60    59    1
   116    60    61    1
   117    35    34    1
   118    35    38    1
   119    59    56    1
   120    56    55    1
   121    94    97    1
   122    97    98    1
   123    10     9   ar
   124    41    39   ar
   125    41    43   ar
   126   133   134    1
   127   133   136    1
   128    45    46    1
   129    51    50    2
   130    38    39    1
   131    98    99    1
   132    39    40   ar
   133   134   135    2
   134    43    42   ar
   135    47    46    2
   136   137   136    1
   137   137   139    1
   138    55    50   am
   139    46    48   am
   140    50    49    1
   141   136   138    1
   142    40    42   ar
   143    48    54    1
   144    48    49    1
   145    99   100   ar
   146    99   101   ar
   147    54    53    1
   148    49    52    1
   149    52    53    1
