@<TRIPOS>MOLECULE
tmp/5hhwA00.pdb
 209 194 0 0 0
SMALL
GASTEIGER

@<TRIPOS>ATOM
      1  N         -2.1750  -26.7370   21.4300 N.3    25  LEU25      -0.1231
      2  CA        -2.7200  -25.4420   21.8240 C.3    25  LEU25       0.1693
      3  C         -4.0510  -25.6100   22.5950 C.2    25  LEU25       0.2593
      4  O         -4.5220  -24.6730   23.2330 O.2    25  LEU25      -0.2718
      5  CB        -2.8720  -24.5120   20.6140 C.3    25  LEU25       0.0284
      6  CG        -1.5510  -24.0970   19.9280 C.3    25  LEU25       0.0019
      7  CD1       -1.8380  -23.2740   18.6320 C.3    25  LEU25       0.0001
      8  CD2       -0.6840  -23.2750   20.8610 C.3    25  LEU25       0.0001
      9  N         -4.6160  -26.8100   22.5570 N.am   26  GLY26      -0.1942
     10  CA        -5.8440  -27.1100   23.2770 C.3    26  GLY26       0.2014
     11  C         -6.9540  -27.6550   22.4100 C.2    26  GLY26       0.2639
     12  O         -6.9720  -27.4470   21.1930 O.2    26  GLY26      -0.2714
     13  N         -7.8720  -28.3830   23.0470 N.am   27  GLN27      -0.1963
     14  CA        -9.0240  -28.9840   22.3910 C.3    27  GLN27       0.1733
     15  C         -9.9720  -27.9050   21.8630 C.2    27  GLN27       0.2617
     16  O        -10.3290  -26.9770   22.5820 O.2    27  GLN27      -0.2715
     17  CB        -9.7600  -29.8770   23.4040 C.3    27  GLN27       0.0408
     18  CG       -10.7560  -30.8560   22.7970 C.3    27  GLN27       0.0908
     19  CD       -10.1580  -32.0150   22.0300 C.2    27  GLN27       0.2608
     20  OE1      -10.7390  -32.4630   21.0480 O.2    27  GLN27      -0.2717
     21  NE2       -9.0410  -32.5800   22.4860 N.am   27  GLN27      -0.0878
     22  N        -10.3660  -28.0410   20.6070 N.am   28  GLY28      -0.1940
     23  CA       -11.3550  -27.1560   20.0020 C.3    28  GLY28       0.2014
     24  C        -12.5010  -28.0410   19.5700 C.2    28  GLY28       0.2640
     25  O        -12.5260  -29.2240   19.9230 O.2    28  GLY28      -0.2714
     26  N        -13.4040  -27.5320   18.7400 N.am   29  SER29      -0.1935
     27  CA       -14.4530  -28.3940   18.1770 C.3    29  SER29       0.2055
     28  C        -13.7800  -29.4410   17.2870 C.2    29  SER29       0.2643
     29  O        -12.7630  -29.1300   16.6460 O.2    29  SER29      -0.2714
     30  CB       -15.4210  -27.5700   17.3420 C.3    29  SER29       0.2130
     31  OG       -14.7140  -26.8910   16.3230 O.3    29  SER29      -0.2179
     32  N        -14.2990  -30.6910   17.2980 N.am   30  PHE30      -0.1973
     33  CA       -13.8410  -31.8300   16.5080 C.3    30  PHE30       0.1639
     34  C        -12.5530  -32.5080   17.0020 C.2    30  PHE30       0.2290
     35  O        -12.4500  -33.7350   16.9270 O.2    30  PHE30      -0.2864
     36  CB       -13.6980  -31.4730   15.0160 C.3    30  PHE30       0.0560
     37  CG       -14.9730  -30.9650   14.3850 C.ar   30  PHE30      -0.0200
     38  CD1      -15.9340  -31.8500   13.9120 C.ar   30  PHE30      -0.0042
     39  CD2      -15.2080  -29.5960   14.2560 C.ar   30  PHE30      -0.0042
     40  CE1      -17.1110  -31.3760   13.3190 C.ar   30  PHE30      -0.0003
     41  CE2      -16.3830  -29.1240   13.6630 C.ar   30  PHE30      -0.0003
     42  CZ       -17.3230  -30.0140   13.1920 C.ar   30  PHE30      -0.0000
     43  N         -6.1480  -28.7370   18.6370 N.3    33  VAL33      -0.1245
     44  CA        -5.5290  -27.7010   17.8150 C.3    33  VAL33       0.1561
     45  C         -4.0570  -27.6950   18.2040 C.2    33  VAL33       0.2260
     46  O         -3.7510  -27.6880   19.3900 O.2    33  VAL33      -0.2867
     47  CB        -6.1670  -26.2990   18.0140 C.3    33  VAL33       0.0252
     48  CG1       -5.4740  -25.2450   17.1230 C.3    33  VAL33       0.0019
     49  CG2       -7.6570  -26.3390   17.7120 C.3    33  VAL33       0.0019
     50  N         -1.8370  -22.7370   12.8060 N.3    51  ALA51      -0.1245
     51  CA        -2.5780  -23.5130   13.7840 C.3    51  ALA51       0.1562
     52  C         -3.1420  -24.6840   12.9450 C.2    51  ALA51       0.2260
     53  O         -3.6480  -24.4630   11.8330 O.2    51  ALA51      -0.2867
     54  CB        -3.7110  -22.6940   14.3890 C.3    51  ALA51       0.0290
     55  N         -5.7200  -28.0590   13.0710 N.3    53  LYS53      -0.1245
     56  CA        -6.7490  -28.8200   13.7780 C.3    53  LYS53       0.1561
     57  C         -6.8750  -30.2300   13.2080 C.2    53  LYS53       0.2260
     58  O         -6.9500  -30.4150   11.9910 O.2    53  LYS53      -0.2867
     59  CB        -8.0990  -28.0730   13.7660 C.3    53  LYS53       0.0271
     60  CG        -9.1680  -28.7870   14.6050 C.3    53  LYS53       0.0035
     61  CD       -10.4800  -28.0790   14.5960 C.3    53  LYS53       0.0206
     62  CE       -10.5770  -26.9850   15.6410 C.3    53  LYS53       0.1093
     63  NZ       -11.9940  -26.5270   15.7600 N.3    53  LYS53      -0.1314
     64  N        -16.6450  -31.8310    9.7890 N.3    67  PHE67      -0.1241
     65  CA       -15.3640  -31.1420   10.0260 C.3    67  PHE67       0.1605
     66  C        -14.8600  -30.4940    8.7380 C.2    67  PHE67       0.2264
     67  O        -14.5780  -29.2840    8.7150 O.2    67  PHE67      -0.2867
     68  CB       -14.3390  -32.1590   10.6040 C.3    67  PHE67       0.0534
     69  CG       -12.9030  -31.7060   10.7690 C.ar   67  PHE67      -0.0203
     70  CD1      -12.5810  -30.6460   11.6110 C.ar   67  PHE67      -0.0042
     71  CD2      -11.8660  -32.3890   10.1420 C.ar   67  PHE67      -0.0042
     72  CE1      -11.2470  -30.2620   11.7950 C.ar   67  PHE67      -0.0003
     73  CE2      -10.5330  -31.9990   10.3300 C.ar   67  PHE67      -0.0003
     74  CZ       -10.2370  -30.9640   11.1780 C.ar   67  PHE67      -0.0000
     75  N        -17.1100  -27.6680    7.3460 N.3    70  GLU70      -0.1231
     76  CA       -16.8120  -26.4110    8.0280 C.3    70  GLU70       0.1699
     77  C        -15.5890  -25.7410    7.4080 C.2    70  GLU70       0.2592
     78  O        -15.6240  -24.5450    7.1780 O.2    70  GLU70      -0.2718
     79  CB       -16.6410  -26.5890    9.5420 C.3    70  GLU70       0.0402
     80  CG       -17.9730  -26.7860   10.2590 C.3    70  GLU70       0.1161
     81  CD       -17.9510  -26.5010   11.7530 C.2    70  GLU70       0.3649
     82  OE1      -17.0350  -25.7900   12.2220 O.co2  70  GLU70      -0.2457
     83  OE2      -18.8660  -26.9770   12.4590 O.co2  70  GLU70      -0.2457
     84  N        -14.5430  -26.5210    7.0810 N.am   71  ALA71      -0.1980
     85  CA       -13.3460  -25.9920    6.4120 C.3    71  ALA71       0.1597
     86  C        -13.7240  -25.4750    5.0140 C.2    71  ALA71       0.2287
     87  O        -13.2990  -24.3860    4.6500 O.2    71  ALA71      -0.2864
     88  CB       -12.2820  -27.0740    6.3060 C.3    71  ALA71       0.0319
     89  N        -15.2160  -22.0220    5.0600 N.3    74  MET74      -0.1245
     90  CA       -14.1580  -21.0290    5.3190 C.3    74  MET74       0.1570
     91  C        -13.3970  -20.5950    4.0860 C.2    74  MET74       0.2261
     92  O        -12.7630  -19.5400    4.1010 O.2    74  MET74      -0.2867
     93  CB       -13.1890  -21.5210    6.4000 C.3    74  MET74       0.0387
     94  CG       -13.6930  -21.2080    7.7740 C.3    74  MET74       0.0595
     95  SD       -12.7080  -21.9960    9.0430 S.3    74  MET74      -0.1393
     96  CE       -11.4250  -20.7880    9.2630 C.3    74  MET74       0.0692
     97  N        -10.4040  -15.1880   11.7440 N.3    83  VAL83      -0.1245
     98  CA        -9.2890  -16.1410   11.5840 C.3    83  VAL83       0.1561
     99  C         -9.5260  -16.9090   10.2690 C.2    83  VAL83       0.2260
    100  O        -10.5930  -17.4940   10.0870 O.2    83  VAL83      -0.2867
    101  CB        -9.1420  -17.0840   12.8010 C.3    83  VAL83       0.0252
    102  CG1       -8.0850  -18.1650   12.5350 C.3    83  VAL83       0.0019
    103  CG2       -8.7940  -16.2980   14.0740 C.3    83  VAL83       0.0019
    104  N         -6.9500  -29.4580    9.2340 N.3    97  VAL97      -0.1245
    105  CA        -7.4150  -28.1490    8.8210 C.3    97  VAL97       0.1561
    106  C         -6.3560  -27.1720    9.2780 C.2    97  VAL97       0.2260
    107  O         -6.0550  -27.0990   10.4690 O.2    97  VAL97      -0.2867
    108  CB        -8.8520  -27.8210    9.2850 C.3    97  VAL97       0.0252
    109  CG1       -9.1860  -26.3530    9.0410 C.3    97  VAL97       0.0019
    110  CG2       -9.8550  -28.7210    8.5510 C.3    97  VAL97       0.0019
    111  N         -4.9440  -23.3900    9.6380 N.3    99  MET99      -0.1230
    112  CA        -5.4340  -22.0140    9.7660 C.3    99  MET99       0.1702
    113  C         -4.2890  -21.0690   10.0710 C.2    99  MET99       0.2592
    114  O         -3.2060  -21.5240   10.4680 O.2    99  MET99      -0.2718
    115  CB        -6.4440  -21.9320   10.9520 C.3    99  MET99       0.0401
    116  CG        -7.6990  -22.6990   10.6860 C.3    99  MET99       0.0596
    117  SD        -8.6060  -22.9640   12.2020 S.3    99  MET99      -0.1393
    118  CE        -7.8750  -24.4720   12.7570 C.3    99  MET99       0.0692
    119  N         -4.5280  -19.7500    9.9470 N.am  100  GLU100     -0.1966
    120  CA        -3.5200  -18.7820   10.3800 C.3   100  GLU100      0.1733
    121  C         -3.3630  -18.9620   11.8990 C.2   100  GLU100      0.2616
    122  O         -4.3280  -19.3240   12.5910 O.2   100  GLU100     -0.2715
    123  CB        -3.9010  -17.3290   10.0170 C.3   100  GLU100      0.0429
    124  CG        -4.9770  -16.6800   10.8520 C.3   100  GLU100      0.1163
    125  CD        -5.3010  -15.2490   10.4480 C.2   100  GLU100      0.3649
    126  OE1       -6.3910  -15.0590    9.8770 O.co2 100  GLU100     -0.2457
    127  OE2       -4.4980  -14.3210   10.7090 O.co2 100  GLU100     -0.2457
    128  N         -2.1460  -18.8140   12.3630 N.am  101  LEU101     -0.1963
    129  CA        -1.8370  -18.9530   13.7770 C.3   101  LEU101      0.1728
    130  C         -2.1980  -17.6560   14.4980 C.2   101  LEU101      0.2616
    131  O         -1.8640  -16.5700   14.0270 O.2   101  LEU101     -0.2715
    132  CB        -0.3470  -19.2820   13.9840 C.3   101  LEU101      0.0311
    133  CG         0.1140  -19.4650   15.4360 C.3   101  LEU101      0.0022
    134  CD1       -0.5770  -20.6850   16.1230 C.3   101  LEU101      0.0001
    135  CD2        1.6110  -19.5780   15.5260 C.3   101  LEU101      0.0001
    136  N         -2.8590  -17.7850   15.6490 N.am  102  MET102     -0.1977
    137  CA        -3.1480  -16.6440   16.5040 C.3   102  MET102      0.1605
    138  C         -2.2150  -16.8720   17.6890 C.2   102  MET102      0.2287
    139  O         -2.5290  -17.5960   18.6290 O.2   102  MET102     -0.2864
    140  CB        -4.6310  -16.6120   16.8680 C.3   102  MET102      0.0413
    141  CG        -5.5450  -16.4850   15.6200 C.3   102  MET102      0.0598
    142  SD        -5.2240  -14.9850   14.6600 S.3   102  MET102     -0.1393
    143  CE        -5.9260  -13.7740   15.7350 C.3   102  MET102      0.0692
    144  N         -3.1360  -16.6350   21.4650 N.3   105  GLY105     -0.1210
    145  CA        -4.2540  -17.4810   21.8750 C.3   105  GLY105      0.1956
    146  C         -5.5930  -16.7990   21.9850 C.2   105  GLY105      0.2611
    147  O         -5.8470  -15.7930   21.3120 O.2   105  GLY105     -0.2717
    148  N         -6.4660  -17.3520   22.8310 N.am  106  ASP106     -0.1973
    149  CA        -7.8030  -16.7700   22.9730 C.3   106  ASP106      0.1709
    150  C         -7.7730  -15.5020   23.7970 C.2   106  ASP106      0.2293
    151  O         -6.9150  -15.3460   24.6840 O.2   106  ASP106     -0.2864
    152  CB        -8.8070  -17.7770   23.5040 C.3   106  ASP106      0.1436
    153  CG        -8.5710  -18.1370   24.9410 C.2   106  ASP106      0.3671
    154  OD1       -7.6550  -18.9340   25.2050 O.co2 106  ASP106     -0.2456
    155  OD2       -9.2530  -17.5780   25.8020 O.co2 106  ASP106     -0.2456
    156  N         -7.9690  -15.9480   27.8820 N.3   109  SER109     -0.1217
    157  CA        -6.7090  -16.2700   28.5720 C.3   109  SER109      0.1889
    158  C         -5.7000  -15.1070   28.4040 C.2   109  SER109      0.2288
    159  O         -4.9620  -14.8170   29.3340 O.2   109  SER109     -0.2866
    160  CB        -6.1130  -17.6050   28.1000 C.3   109  SER109      0.2089
    161  OG        -7.0610  -18.6380   27.8980 O.3   109  SER109     -0.2183
    162  N        -13.6440  -16.0530   24.9870 N.3   159  ARG159     -0.1245
    163  CA       -13.0640  -17.4090   24.8590 C.3   159  ARG159      0.1563
    164  C        -12.8430  -17.8350   23.4070 C.2   159  ARG159      0.2260
    165  O        -12.0410  -18.7550   23.1600 O.2   159  ARG159     -0.2867
    166  CB       -13.9120  -18.4470   25.6340 C.3   159  ARG159      0.0307
    167  CG       -15.0770  -19.0440   24.8410 C.3   159  ARG159      0.0489
    168  CD       -15.9390  -20.0110   25.6590 C.3   159  ARG159      0.2205
    169  NE       -17.0770  -19.2970   26.2490 N.pl3 159  ARG159     -0.0865
    170  CZ       -18.2180  -19.0220   25.6220 C.cat 159  ARG159      0.5346
    171  NH1      -18.4180  -19.4370   24.3690 N.pl3 159  ARG159      0.1354
    172  NH2      -19.1530  -18.3050   26.2240 N.pl3 159  ARG159      0.1354
    173  N         -9.7210  -14.3360   19.1100 N.3   162  MET162     -0.1245
    174  CA        -8.3120  -14.7660   19.1410 C.3   162  MET162      0.1570
    175  C         -7.3730  -13.5830   18.9950 C.2   162  MET162      0.2261
    176  O         -7.7520  -12.5970   18.3970 O.2   162  MET162     -0.2867
    177  CB        -8.0720  -15.8070   18.0310 C.3   162  MET162      0.0387
    178  CG        -9.0720  -16.9910   18.0460 C.3   162  MET162      0.0595
    179  SD        -9.0140  -17.9670   19.5750 S.3   162  MET162     -0.1393
    180  CE        -7.3620  -18.5020   19.4930 C.3   162  MET162      0.0692
    181  N        -12.7640  -16.0140   16.0320 N.3   172  GLY172     -0.1210
    182  CA       -12.2790  -17.3950   15.9720 C.3   172  GLY172      0.1956
    183  C        -13.3830  -18.3450   15.5670 C.2   172  GLY172      0.2611
    184  O        -14.0760  -18.1030   14.5770 O.2   172  GLY172     -0.2717
    185  N        -13.5970  -19.3950   16.3690 N.am  173  ASP173     -0.1973
    186  CA       -14.6050  -20.4110   16.0900 C.3   173  ASP173      0.1709
    187  C        -16.0310  -19.9420   16.3730 C.2   173  ASP173      0.2293
    188  O        -16.3900  -19.7030   17.5310 O.2   173  ASP173     -0.2864
    189  CB       -14.3090  -21.6630   16.9130 C.3   173  ASP173      0.1436
    190  CG       -15.2090  -22.8640   16.6210 C.2   173  ASP173      0.3671
    191  OD1      -15.8730  -22.8780   15.5360 O.co2 173  ASP173     -0.2456
    192  OD2      -15.1840  -23.8190   17.4200 O.co2 173  ASP173     -0.2456
    193  N        -18.4170  -27.4320   23.8380 N.3   179  ASP179     -0.1239
    194  CA       -17.5950  -28.2740   24.7000 C.3   179  ASP179      0.1674
    195  C        -18.3320  -28.5770   26.0140 C.2   179  ASP179      0.2266
    196  O        -18.6970  -27.6510   26.7440 O.2   179  ASP179     -0.2867
    197  CB       -16.2330  -27.5990   24.9680 C.3   179  ASP179      0.1410
    198  CG       -15.2300  -28.4220   25.7750 C.2   179  ASP179      0.3668
    199  OD1      -15.5080  -29.6180   26.0420 O.co2 179  ASP179     -0.2456
    200  OD2      -14.1660  -27.8740   26.1320 O.co2 179  ASP179     -0.2456
    201  N        -16.7450  -27.0270   29.2260 N.3   182  GLU182     -0.1245
    202  CA       -16.6830  -25.5600   29.3060 C.3   182  GLU182      0.1567
    203  C        -17.7300  -25.0480   30.2850 C.2   182  GLU182      0.2260
    204  O        -18.9330  -25.1830   30.0320 O.2   182  GLU182     -0.2867
    205  CB       -16.8630  -24.9350   27.9090 C.3   182  GLU182      0.0388
    206  CG       -16.8760  -23.4100   27.8800 C.3   182  GLU182      0.1160
    207  CD       -15.5690  -22.7400   28.2550 C.2   182  GLU182      0.3649
    208  OE1      -14.5810  -22.8890   27.4990 O.co2 182  GLU182     -0.2457
    209  OE2      -15.5340  -22.0700   29.3120 O.co2 182  GLU182     -0.2457
@<TRIPOS>BOND
     1    91    92    2
     2    91    90    1
     3    87    86    2
     4    86    85    1
     5    89    90    1
     6    90    93    1
     7    88    85    1
     8    93    94    1
     9    85    84    1
    10    84    77   am
    11    78    77    2
    12    75    76    1
    13    77    76    1
    14    94    95    1
    15    76    79    1
    16   110   108    1
    17    67    66    2
    18    66    65    1
    19   105   104    1
    20   105   106    1
    21   105   108    1
    22   109   108    1
    23    95    96    1
    24   106   107    2
    25    79    80    1
    26   111   112    1
    27   112   113    1
    28   112   115    1
    29    64    65    1
    30   126   125   ar
    31   119   113   am
    32   119   120    1
    33   123   120    1
    34   123   124    1
    35    65    68    1
    36   113   114    2
    37   100    99    2
    38    71    73   ar
    39    71    69   ar
    40    80    81    1
    41    99    98    1
    42    73    74   ar
    43   120   121    1
    44   125   127   ar
    45   125   124    1
    46    68    69    1
    47   116   115    1
    48   116   117    1
    49    69    70   ar
    50    74    72   ar
    51    98    97    1
    52    98   101    1
    53    70    72   ar
    54    81    82   ar
    55    81    83   ar
    56    53    52    2
    57   121   128   am
    58   121   122    2
    59    58    57    2
    60   117   118    1
    61   128   129    1
    62   102   101    1
    63   101   103    1
    64    50    51    1
    65    52    51    1
    66    55    56    1
    67    42    40   ar
    68    42    41   ar
    69    57    56    1
    70    40    38   ar
    71    41    39   ar
    72    59    56    1
    73    59    60    1
    74   129   132    1
    75   129   130    1
    76    51    54    1
    77    38    37   ar
    78   132   133    1
    79   131   130    2
    80    39    37   ar
    81    37    36    1
    82   130   136   am
    83   184   183    2
    84    61    60    1
    85    61    62    1
    86   142   141    1
    87   142   143    1
    88    36    33    1
    89   133   135    1
    90   133   134    1
    91   191   190   ar
    92   183   182    1
    93   183   185   am
    94   141   140    1
    95    62    63    1
    96   136   137    1
    97   182   181    1
    98   186   185    1
    99   186   187    1
   100   186   189    1
   101    31    30    1
   102   187   188    2
   103   137   140    1
   104   137   138    1
   105    33    34    1
   106    33    32    1
   107   190   189    1
   108   190   192   ar
   109    29    28    2
   110    35    34    2
   111    48    47    1
   112    28    32   am
   113    28    27    1
   114    30    27    1
   115   138   139    2
   116    49    47    1
   117    44    47    1
   118    44    45    1
   119    44    43    1
   120   177   178    1
   121   177   174    1
   122   178   179    1
   123    27    26    1
   124    45    46    2
   125   176   175    2
   126     7     6    1
   127    26    24   am
   128   175   174    1
   129   173   174    1
   130   180   179    1
   131    24    25    2
   132    24    23    1
   133     6     5    1
   134     6     8    1
   135    23    22    1
   136    22    15   am
   137     5     2    1
   138    20    19    2
   139    12    11    2
   140   147   146    2
   141     1     2    1
   142   144   145    1
   143     2     3    1
   144    15    14    1
   145    15    16    2
   146   145   146    1
   147   146   148   am
   148    19    21   am
   149    19    18    1
   150    14    13    1
   151    14    17    1
   152    11    13   am
   153    11    10    1
   154     9     3   am
   155     9    10    1
   156     3     4    2
   157    18    17    1
   158   148   149    1
   159   149   152    1
   160   149   150    1
   161   165   164    2
   162   164   163    1
   163   152   153    1
   164   150   151    2
   165   193   194    1
   166   171   170    1
   167   194   197    1
   168   194   195    1
   169   167   166    1
   170   167   168    1
   171   163   162    1
   172   163   166    1
   173   153   154   ar
   174   153   155   ar
   175   197   198    1
   176   170   172    1
   177   170   169    2
   178   168   169    1
   179   198   199   ar
   180   198   200   ar
   181   195   196    2
   182   208   207   ar
   183   206   205    1
   184   206   207    1
   185   156   157    1
   186   161   160    1
   187   205   202    1
   188   160   157    1
   189   207   209   ar
   190   158   157    1
   191   158   159    2
   192   201   202    1
   193   202   203    1
   194   204   203    2
