@<TRIPOS>MOLECULE
tmp/5hhzA01.pdb
 149 144 0 0 0
SMALL
GASTEIGER

@<TRIPOS>ATOM
      1  N         34.3070   -9.6880   13.3520 N.3    18  PHE18      -0.1241
      2  CA        33.0650  -10.1320   12.7350 C.3    18  PHE18       0.1605
      3  C         32.9400   -9.7150   11.2510 C.2    18  PHE18       0.2264
      4  O         32.3690  -10.4640   10.4480 O.2    18  PHE18      -0.2867
      5  CB        31.8750   -9.6490   13.5750 C.3    18  PHE18       0.0534
      6  CG        30.5240  -10.1300   13.1180 C.ar   18  PHE18      -0.0203
      7  CD1       30.0760  -11.4120   13.4390 C.ar   18  PHE18      -0.0042
      8  CD2       29.6740   -9.2890   12.4080 C.ar   18  PHE18      -0.0042
      9  CE1       28.7920  -11.8330   13.0730 C.ar   18  PHE18      -0.0003
     10  CE2       28.3890   -9.7060   12.0570 C.ar   18  PHE18      -0.0003
     11  CZ        27.9600  -10.9790   12.3790 C.ar   18  PHE18      -0.0000
     12  N         20.5230   -5.5810   20.2530 N.3   124  ASP124     -0.1225
     13  CA        19.7550   -6.7550   19.8060 C.3   124  ASP124      0.1805
     14  C         20.5170   -8.0580   20.0990 C.2   124  ASP124      0.2597
     15  O         19.9070   -9.1210   20.1150 O.2   124  ASP124     -0.2718
     16  CB        19.5090   -6.7060   18.2910 C.3   124  ASP124      0.1424
     17  CG        18.7080   -5.5190   17.7830 C.2   124  ASP124      0.3668
     18  OD1       17.8670   -5.0020   18.5410 O.co2 124  ASP124     -0.2456
     19  OD2       18.8280   -5.1990   16.5940 O.co2 124  ASP124     -0.2456
     20  N         21.8460   -7.9750   20.2670 N.am  125  TYR125     -0.1976
     21  CA        22.7410   -9.1100   20.4870 C.3   125  TYR125      0.1639
     22  C         23.5360   -8.8380   21.7580 C.2   125  TYR125      0.2290
     23  O         24.1440   -7.7790   21.8720 O.2   125  TYR125     -0.2864
     24  CB        23.6470   -9.2720   19.2560 C.3   125  TYR125      0.0560
     25  CG        24.6520  -10.4000   19.3020 C.ar  125  TYR125     -0.0198
     26  CD1       24.2380  -11.7330   19.2960 C.ar  125  TYR125     -0.0009
     27  CD2       26.0190  -10.1410   19.3010 C.ar  125  TYR125     -0.0009
     28  CE1       25.1610  -12.7780   19.2520 C.ar  125  TYR125      0.0417
     29  CE2       26.9500  -11.1790   19.2810 C.ar  125  TYR125      0.0417
     30  CZ        26.5160  -12.4960   19.2530 C.ar  125  TYR125      0.1957
     31  OH        27.4230  -13.5260   19.2480 O.3   125  TYR125     -0.2866
     32  N         10.8790   -1.8590   16.8520 N.3   235  GLU235     -0.1245
     33  CA        11.8110   -2.0660   15.7440 C.3   235  GLU235      0.1567
     34  C         10.9730   -2.3330   14.4800 C.2   235  GLU235      0.2260
     35  O          9.7540   -2.2420   14.5310 O.2   235  GLU235     -0.2867
     36  CB        12.8120   -3.2020   16.0180 C.3   235  GLU235      0.0388
     37  CG        13.8740   -2.8090   17.0370 C.3   235  GLU235      0.1160
     38  CD        15.1600   -3.6040   17.0430 C.2   235  GLU235      0.3649
     39  OE1       15.9340   -3.4190   18.0070 O.co2 235  GLU235     -0.2457
     40  OE2       15.3870   -4.4270   16.1250 O.co2 235  GLU235     -0.2457
     41  N         11.5810   -4.2040   10.0980 N.3   237  PHE237     -0.1241
     42  CA        12.4070   -4.8540    9.0840 C.3   237  PHE237      0.1605
     43  C         11.7500   -4.6610    7.7200 C.2   237  PHE237      0.2264
     44  O         10.5200   -4.5690    7.6330 O.2   237  PHE237     -0.2867
     45  CB        12.5120   -6.3750    9.3300 C.3   237  PHE237      0.0534
     46  CG        12.8930   -6.7950   10.7210 C.ar  237  PHE237     -0.0203
     47  CD1       11.9200   -6.9900   11.6980 C.ar  237  PHE237     -0.0042
     48  CD2       14.2230   -7.0160   11.0570 C.ar  237  PHE237     -0.0042
     49  CE1       12.2750   -7.3530   13.0030 C.ar  237  PHE237     -0.0003
     50  CE2       14.5780   -7.4130   12.3580 C.ar  237  PHE237     -0.0003
     51  CZ        13.6030   -7.5550   13.3270 C.ar  237  PHE237     -0.0000
     52  N         17.3790  -13.7510   21.7320 N.3   301  ARG301     -0.1231
     53  CA        16.8920  -14.2560   20.4430 C.3   301  ARG301      0.1694
     54  C         17.9480  -14.3460   19.3130 C.2   301  ARG301      0.2591
     55  O         17.8660  -15.2700   18.5120 O.2   301  ARG301     -0.2718
     56  CB        15.6390  -13.4750   19.9830 C.3   301  ARG301      0.0321
     57  CG        15.9050  -12.0220   19.5140 C.3   301  ARG301      0.0489
     58  CD        14.7190  -11.0770   19.6940 C.3   301  ARG301      0.2205
     59  NE        15.0900   -9.7260   19.2670 N.pl3 301  ARG301     -0.0865
     60  CZ        15.7530   -8.8530   20.0220 C.cat 301  ARG301      0.5346
     61  NH1       16.0630   -9.1500   21.2790 N.pl3 301  ARG301      0.1354
     62  NH2       16.1110   -7.6800   19.5270 N.pl3 301  ARG301      0.1354
     63  N         18.9190  -13.3860   19.2350 N.am  302  VAL302     -0.1980
     64  CA        19.9360  -13.3660   18.1620 C.3   302  VAL302      0.1595
     65  C         21.0070  -14.4420   18.4120 C.2   302  VAL302      0.2287
     66  O         21.5670  -15.0060   17.4520 O.2   302  VAL302     -0.2864
     67  CB        20.5130  -11.9380   17.8900 C.3   302  VAL302      0.0276
     68  CG1       21.5960  -11.9500   16.7980 C.3   302  VAL302      0.0022
     69  CG2       19.3970  -10.9630   17.5190 C.3   302  VAL302      0.0022
     70  N         19.6840  -17.6100   16.8560 N.3   305  ALA305     -0.1245
     71  CA        19.8700  -17.5910   15.4080 C.3   305  ALA305      0.1562
     72  C         21.3430  -17.8780   15.0800 C.2   305  ALA305      0.2260
     73  O         21.6180  -18.5840   14.1070 O.2   305  ALA305     -0.2867
     74  CB        19.4360  -16.2520   14.8350 C.3   305  ALA305      0.0290
     75  N         23.2580  -20.8090   12.7110 N.3   309  LEU309     -0.1245
     76  CA        24.1750  -20.4000   11.6480 C.3   309  LEU309      0.1561
     77  C         25.5360  -21.0650   11.7880 C.2   309  LEU309      0.2260
     78  O         26.1130  -21.4660   10.7780 O.2   309  LEU309     -0.2867
     79  CB        24.3030  -18.8650   11.5560 C.3   309  LEU309      0.0270
     80  CG        23.0730  -18.0950   11.0390 C.3   309  LEU309      0.0019
     81  CD1       23.1610  -16.6160   11.4090 C.3   309  LEU309      0.0001
     82  CD2       22.8890  -18.2660    9.5200 C.3   309  LEU309      0.0001
     83  N         28.1590  -18.5780    9.9320 N.3   315  TRP315     -0.1241
     84  CA        28.4250  -17.4990   10.8820 C.3   315  TRP315      0.1605
     85  C         29.7710  -16.8500   10.6410 C.2   315  TRP315      0.2264
     86  O         29.8610  -15.6270   10.6860 O.2   315  TRP315     -0.2867
     87  CB        28.3060  -18.0040   12.3270 C.3   315  TRP315      0.0550
     88  CG        28.5040  -16.9550   13.3950 C.ar  315  TRP315      0.0003
     89  CD1       29.6190  -16.7640   14.1580 C.ar  315  TRP315      0.0946
     90  CD2       27.5450  -15.9880   13.8380 C.ar  315  TRP315      0.0152
     91  NE1       29.4070  -15.7480   15.0620 N.ar  315  TRP315     -0.2442
     92  CE2       28.1440  -15.2500   14.8850 C.ar  315  TRP315      0.0810
     93  CE3       26.2340  -15.6680   13.4490 C.ar  315  TRP315      0.0012
     94  CZ2       27.4710  -14.2300   15.5640 C.ar  315  TRP315      0.0191
     95  CZ3       25.5620  -14.6600   14.1300 C.ar  315  TRP315      0.0001
     96  CH2       26.1790  -13.9510   15.1690 C.ar  315  TRP315      0.0015
     97  N         31.0140  -10.0750    6.8800 N.3   319  HIS319     -0.1241
     98  CA        29.7900   -9.3310    7.2010 C.3   319  HIS319      0.1621
     99  C         29.9810   -7.8570    6.8310 C.2   319  HIS319      0.2264
    100  O         30.3290   -7.0570    7.7010 O.2   319  HIS319     -0.2867
    101  CB        29.4210   -9.4640    8.6840 C.3   319  HIS319      0.0745
    102  CG        29.0780  -10.8560    9.0690 C.ar  319  HIS319      0.0817
    103  ND1       29.9650  -11.6410    9.7800 N.ar  319  HIS319     -0.2268
    104  CD2       27.9520  -11.5640    8.8350 C.ar  319  HIS319      0.1154
    105  CE1       29.3520  -12.7980    9.9510 C.ar  319  HIS319      0.1986
    106  NE2       28.1450  -12.8040    9.3900 N.ar  319  HIS319     -0.2212
    107  N         28.6500   -5.0180    6.8660 N.3   321  TRP321     -0.1241
    108  CA        27.5130   -4.3230    7.4680 C.3   321  TRP321      0.1605
    109  C         27.5690   -2.8200    7.2990 C.2   321  TRP321      0.2264
    110  O         28.6250   -2.2050    7.4770 O.2   321  TRP321     -0.2867
    111  CB        27.3640   -4.7130    8.9600 C.3   321  TRP321      0.0550
    112  CG        26.7850   -6.0840    9.1840 C.ar  321  TRP321      0.0003
    113  CD1       26.5110   -7.0260    8.2320 C.ar  321  TRP321      0.0946
    114  CD2       26.3160   -6.6280   10.4320 C.ar  321  TRP321      0.0152
    115  NE1       25.9310   -8.1290    8.8100 N.ar  321  TRP321     -0.2442
    116  CE2       25.7590   -7.8950   10.1520 C.ar  321  TRP321      0.0810
    117  CE3       26.2990   -6.1580   11.7570 C.ar  321  TRP321      0.0012
    118  CZ2       25.2230   -8.7190   11.1550 C.ar  321  TRP321      0.0191
    119  CZ3       25.7580   -6.9720   12.7500 C.ar  321  TRP321      0.0001
    120  CH2       25.2360   -8.2360   12.4460 C.ar  321  TRP321      0.0015
    121  N         19.1820   -9.4750    6.7030 N.3   347  PRO347     -0.2116
    122  CA        18.1510   -8.5190    7.1400 C.3   347  PRO347      0.1372
    123  C         18.4710   -7.0280    6.9730 C.2   347  PRO347      0.2244
    124  O         19.6270   -6.5970    7.0760 O.2   347  PRO347     -0.2868
    125  CB        17.9190   -8.8810    8.6130 C.3   347  PRO347      0.0268
    126  CG        19.1630   -9.5170    9.0490 C.3   347  PRO347      0.0207
    127  CD        19.7780  -10.1880    7.8530 C.3   347  PRO347      0.0892
    128  N         17.2040   -3.7210    8.8630 N.3   349  LEU349     -0.1245
    129  CA        16.4890   -3.1900   10.0370 C.3   349  LEU349      0.1561
    130  C         16.1640   -1.7230    9.8200 C.2   349  LEU349      0.2260
    131  O         16.9790   -0.9860    9.2560 O.2   349  LEU349     -0.2867
    132  CB        17.2890   -3.2360   11.3650 C.3   349  LEU349      0.0270
    133  CG        18.1390   -4.4060   11.8080 C.3   349  LEU349      0.0019
    134  CD1       18.5120   -4.2340   13.3020 C.3   349  LEU349      0.0001
    135  CD2       17.4640   -5.7410   11.5790 C.3   349  LEU349      0.0001
    136  N         22.2690   -5.5730    7.1590 N.3   378  LEU378     -0.1245
    137  CA        22.9740   -6.6320    7.8890 C.3   378  LEU378      0.1561
    138  C         23.2670   -7.8320    7.0040 C.2   378  LEU378      0.2260
    139  O         22.8290   -8.9470    7.2620 O.2   378  LEU378     -0.2867
    140  CB        22.2120   -7.0230    9.1810 C.3   378  LEU378      0.0270
    141  CG        21.8490   -5.8980   10.1820 C.3   378  LEU378      0.0019
    142  CD1       21.2460   -6.4860   11.4490 C.3   378  LEU378      0.0001
    143  CD2       23.0510   -5.0190   10.5240 C.3   378  LEU378      0.0001
    144  N         25.3740  -10.7340    4.8080 N.3   380  SER380     -0.1217
    145  CA        26.3560  -11.7980    4.9680 C.3   380  SER380      0.1889
    146  C         26.7880  -12.1840    3.5630 C.2   380  SER380      0.2288
    147  O         25.9430  -12.4350    2.7050 O.2   380  SER380     -0.2866
    148  CB        25.7580  -13.0060    5.6850 C.3   380  SER380      0.2089
    149  OG        25.6240  -12.7580    7.0700 O.3   380  SER380     -0.2183
@<TRIPOS>BOND
     1   147   146    2
     2   146   145    1
     3   144   145    1
     4   145   148    1
     5   148   149    1
     6   121   122    1
     7   121   127    1
     8    99    98    1
     9    99   100    2
    10   107   108    1
    11    97    98    1
    12   123   124    2
    13   123   122    1
    14   138   139    2
    15   138   137    1
    16   122   125    1
    17   136   137    1
    18    98   101    1
    19   109   108    1
    20   109   110    2
    21   108   111    1
    22    44    43    2
    23    43    42    1
    24   127   126    1
    25   137   140    1
    26   113   115   ar
    27   113   112   ar
    28   125   126    1
    29   101   102    1
    30   115   116   ar
    31   104   102   ar
    32   104   106   ar
    33   128   129    1
    34   111   112    1
    35   102   103   ar
    36    42    45    1
    37    42    41    1
    38   140   141    1
    39   112   114   ar
    40   131   130    2
    41    45    46    1
    42   106   105   ar
    43    82    80    1
    44   103   105   ar
    45   130   129    1
    46    83    84    1
    47   129   132    1
    48   116   114   ar
    49   116   118   ar
    50   141   143    1
    51   141   142    1
    52   114   117   ar
    53     4     3    2
    54    85    86    2
    55    85    84    1
    56    46    48   ar
    57    46    47   ar
    58    78    77    2
    59    84    87    1
    60    80    81    1
    61    80    79    1
    62    48    50   ar
    63   118   120   ar
    64     3     2    1
    65   132   133    1
    66    79    76    1
    67   135   133    1
    68    76    77    1
    69    76    75    1
    70    47    49   ar
    71   117   119   ar
    72   133   134    1
    73    10    11   ar
    74    10     8   ar
    75    87    88    1
    76    50    51   ar
    77    11     9   ar
    78     8     6   ar
    79   120   119   ar
    80     2     1    1
    81     2     5    1
    82    49    51   ar
    83     9     7   ar
    84     6     7   ar
    85     6     5    1
    86    88    90   ar
    87    88    89   ar
    88    93    90   ar
    89    93    95   ar
    90    90    92   ar
    91    73    72    2
    92    95    96   ar
    93    89    91   ar
    94    34    35    2
    95    34    33    1
    96    74    71    1
    97    92    91   ar
    98    92    94   ar
    99    72    71    1
   100    96    94   ar
   101    71    70    1
   102    33    36    1
   103    33    32    1
   104    36    37    1
   105    40    38   ar
   106    19    17   ar
   107    68    67    1
   108    37    38    1
   109    38    39   ar
   110    66    65    2
   111    69    67    1
   112    17    16    1
   113    17    18   ar
   114    67    64    1
   115    64    65    1
   116    64    63    1
   117    16    13    1
   118    55    54    2
   119    63    54   am
   120    31    30    1
   121    28    30   ar
   122    28    26   ar
   123    30    29   ar
   124    24    25    1
   125    24    21    1
   126    59    58    1
   127    59    60    2
   128    29    27   ar
   129    26    25   ar
   130    27    25   ar
   131    54    53    1
   132    57    58    1
   133    57    56    1
   134    62    60    1
   135    13    14    1
   136    13    12    1
   137    56    53    1
   138    60    61    1
   139    14    15    2
   140    14    20   am
   141    20    21    1
   142    53    52    1
   143    21    22    1
   144    22    23    2
