@<TRIPOS>MOLECULE
tmp/5hi2A00.pdb
 209 200 0 0 0
SMALL
GASTEIGER

@<TRIPOS>ATOM
      1  N         40.3560   19.0180  -10.0800 N.3    15  ILE15      -0.1245
      2  CA        39.2110   19.9360  -10.0390 C.3    15  ILE15       0.1561
      3  C         38.5450   19.9740   -8.6690 C.2    15  ILE15       0.2260
      4  O         38.0970   21.0300   -8.2090 O.2    15  ILE15      -0.2867
      5  CB        38.1990   19.5760  -11.1660 C.3    15  ILE15       0.0252
      6  CG1       38.7210   20.0970  -12.4980 C.3    15  ILE15       0.0019
      7  CG2       36.8150   20.1360  -10.9110 C.3    15  ILE15       0.0019
      8  CD1       39.0420   21.5600  -12.4660 C.3    15  ILE15       0.0001
      9  N         38.0690   14.3410   -9.1720 N.3    23  VAL23      -0.1245
     10  CA        37.6910   14.7220  -10.5170 C.3    23  VAL23       0.1561
     11  C         38.7580   15.6070  -11.1530 C.2    23  VAL23       0.2260
     12  O         39.2480   16.5440  -10.5330 O.2    23  VAL23      -0.2867
     13  CB        36.3010   15.4140  -10.5060 C.3    23  VAL23       0.0252
     14  CG1       35.8740   15.8520  -11.9260 C.3    23  VAL23       0.0019
     15  CG2       35.2730   14.4790   -9.9020 C.3    23  VAL23       0.0019
     16  N         35.5640   15.6410  -18.4360 N.3    33  ALA33      -0.1245
     17  CA        35.8470   15.5110  -17.0340 C.3    33  ALA33       0.1562
     18  C         36.2280   14.0480  -16.7780 C.2    33  ALA33       0.2260
     19  O         35.6670   13.1370  -17.4060 O.2    33  ALA33      -0.2867
     20  CB        34.6280   15.9110  -16.2080 C.3    33  ALA33       0.0290
     21  N         36.6850   11.2660  -13.6150 N.3    35  LYS35      -0.1245
     22  CA        36.4740   11.0220  -12.2060 C.3    35  LYS35       0.1561
     23  C         37.1610    9.7330  -11.8090 C.2    35  LYS35       0.2260
     24  O         36.7960    8.6550  -12.2840 O.2    35  LYS35      -0.2867
     25  CB        34.9820   10.9730  -11.8930 C.3    35  LYS35       0.0271
     26  CG        34.6780   10.6800  -10.4580 C.3    35  LYS35       0.0035
     27  CD        33.2510   11.0140  -10.1680 C.3    35  LYS35       0.0206
     28  CE        32.6480   10.1110   -9.0980 C.3    35  LYS35       0.1093
     29  NZ        31.1620   10.3330   -9.0250 N.3    35  LYS35      -0.1314
     30  N         27.9170    3.4760  -10.7920 N.3    48  GLU48      -0.1245
     31  CA        27.8190    4.7920  -11.3870 C.3    48  GLU48       0.1567
     32  C         27.8600    4.6890  -12.9060 C.2    48  GLU48       0.2260
     33  O         27.0990    5.3720  -13.5910 O.2    48  GLU48      -0.2867
     34  CB        28.8840    5.7530  -10.8650 C.3    48  GLU48       0.0388
     35  CG        28.6950    7.1540  -11.4190 C.3    48  GLU48       0.1160
     36  CD        29.5960    8.1870  -10.7880 C.2    48  GLU48       0.3649
     37  OE1       30.3640    7.8320   -9.8730 O.co2  48  GLU48      -0.2457
     38  OE2       29.5330    9.3650  -11.2070 O.co2  48  GLU48      -0.2457
     39  N         24.4740    3.4620  -14.3910 N.3    51  VAL51      -0.1231
     40  CA        23.3830    4.4120  -14.5370 C.3    51  VAL51       0.1692
     41  C         23.6620    5.4310  -15.6310 C.2    51  VAL51       0.2591
     42  O         22.7810    5.7320  -16.4530 O.2    51  VAL51      -0.2718
     43  CB        23.0400    5.1110  -13.2160 C.3    51  VAL51       0.0266
     44  CG1       22.2470    6.3660  -13.4770 C.3    51  VAL51       0.0020
     45  CG2       22.2330    4.1730  -12.3280 C.3    51  VAL51       0.0020
     46  N         24.8900    5.9430  -15.6560 N.am   52  LEU52      -0.1980
     47  CA        25.2920    6.8870  -16.6980 C.3    52  LEU52       0.1596
     48  C         25.0730    6.3470  -18.1300 C.2    52  LEU52       0.2287
     49  O         24.6030    7.0790  -18.9960 O.2    52  LEU52      -0.2864
     50  CB        26.7420    7.3240  -16.5000 C.3    52  LEU52       0.0297
     51  CG        27.0360    8.3510  -15.4080 C.3    52  LEU52       0.0022
     52  CD1       28.4940    8.7410  -15.4540 C.3    52  LEU52       0.0001
     53  CD2       26.1620    9.5760  -15.5960 C.3    52  LEU52       0.0001
     54  N         21.6880    6.6960  -19.9940 N.3    55  THR55      -0.1218
     55  CA        21.1730    8.0360  -20.2830 C.3    55  THR55       0.1862
     56  C         21.6870    8.7160  -21.5710 C.2    55  THR55       0.2287
     57  O         22.9020    8.8220  -21.8030 O.2    55  THR55      -0.2866
     58  CB        21.4090    9.0040  -19.0910 C.3    55  THR55       0.1770
     59  OG1       22.8020    9.3330  -19.0120 O.3    55  THR55      -0.2211
     60  CG2       20.9410    8.3870  -17.7810 C.3    55  THR55       0.0375
     61  N         20.8300   15.9180  -19.2530 N.3    60  ILE60      -0.1231
     62  CA        21.6190   15.0500  -18.3740 C.3    60  ILE60       0.1692
     63  C         23.1200   15.1040  -18.7430 C.2    60  ILE60       0.2591
     64  O         23.4780   15.0710  -19.9210 O.2    60  ILE60      -0.2718
     65  CB        21.1130   13.6020  -18.4540 C.3    60  ILE60       0.0266
     66  CG1       19.6210   13.5430  -18.1190 C.3    60  ILE60       0.0019
     67  CG2       21.9360   12.6960  -17.5650 C.3    60  ILE60       0.0020
     68  CD1       19.2840   14.1630  -16.7850 C.3    60  ILE60       0.0001
     69  N         23.9950   15.2180  -17.7400 N.am   61  LEU61      -0.1980
     70  CA        25.4390   15.2210  -17.9840 C.3    61  LEU61       0.1596
     71  C         25.8150   14.0550  -18.8970 C.2    61  LEU61       0.2287
     72  O         25.4470   12.9140  -18.6350 O.2    61  LEU61      -0.2864
     73  CB        26.2070   15.1390  -16.6740 C.3    61  LEU61       0.0297
     74  CG        27.7340   15.1210  -16.8190 C.3    61  LEU61       0.0022
     75  CD1       28.2570   16.4980  -17.2200 C.3    61  LEU61       0.0001
     76  CD2       28.3610   14.6370  -15.5400 C.3    61  LEU61       0.0001
     77  N         35.7610    7.4480  -14.6430 N.3    74  ILE74      -0.1245
     78  CA        34.5210    7.6930  -15.3700 C.3    74  ILE74       0.1561
     79  C         34.6730    8.9800  -16.1580 C.2    74  ILE74       0.2260
     80  O         35.0730   10.0080  -15.6100 O.2    74  ILE74      -0.2867
     81  CB        33.3390    7.8400  -14.4120 C.3    74  ILE74       0.0252
     82  CG1       33.2730    6.6300  -13.4770 C.3    74  ILE74       0.0019
     83  CG2       32.0370    8.0430  -15.1920 C.3    74  ILE74       0.0019
     84  CD1       32.0320    6.5740  -12.6230 C.3    74  ILE74       0.0001
     85  N         32.9860   11.9140  -18.4750 N.3    76  THR76      -0.1203
     86  CA        31.8000   12.6280  -18.9040 C.3    76  THR76       0.1994
     87  C         32.2560   13.8050  -19.7470 C.2    76  THR76       0.2618
     88  O         33.4510   14.1000  -19.8100 O.2    76  THR76      -0.2717
     89  CB        30.9750   13.1690  -17.6870 C.3    76  THR76       0.1784
     90  OG1       31.6830   14.2350  -17.0230 O.3    76  THR76      -0.2211
     91  CG2       30.6880   12.0730  -16.6930 C.3    76  THR76       0.0376
     92  N         31.3160   14.4850  -20.3960 N.am   77  GLN77      -0.1965
     93  CA        31.6090   15.7520  -21.0440 C.3    77  GLN77       0.1733
     94  C         32.1380   16.7560  -20.0190 C.2    77  GLN77       0.2616
     95  O         32.0620   16.5570  -18.7970 O.2    77  GLN77      -0.2715
     96  CB        30.3390   16.3140  -21.7130 C.3    77  GLN77       0.0408
     97  CG        29.4320   17.1640  -20.7920 C.3    77  GLN77       0.0908
     98  CD        28.1160   17.5710  -21.4410 C.2    77  GLN77       0.2608
     99  OE1       27.0650   17.0310  -21.1110 O.2    77  GLN77      -0.2717
    100  NE2       28.1670   18.5320  -22.3580 N.am   77  GLN77      -0.0878
    101  N         32.6540   17.8610  -20.5200 N.am   78  TRP78      -0.1960
    102  CA        33.0860   18.9200  -19.6370 C.3    78  TRP78       0.1771
    103  C         32.0470   20.0250  -19.6940 C.2    78  TRP78       0.2620
    104  O         31.6190   20.3940  -20.7650 O.2    78  TRP78      -0.2715
    105  CB        34.4710   19.4430  -20.0480 C.3    78  TRP78       0.0590
    106  CG        34.9370   20.5900  -19.1920 C.ar   78  TRP78       0.0006
    107  CD1       34.9610   21.9120  -19.5270 C.ar   78  TRP78       0.0946
    108  CD2       35.4250   20.5070  -17.8440 C.ar   78  TRP78       0.0152
    109  NE1       35.4450   22.6560  -18.4750 N.ar   78  TRP78      -0.2442
    110  CE2       35.7300   21.8170  -17.4290 C.ar   78  TRP78       0.0810
    111  CE3       35.6390   19.4480  -16.9530 C.ar   78  TRP78       0.0012
    112  CZ2       36.2370   22.1020  -16.1550 C.ar   78  TRP78       0.0191
    113  CZ3       36.1470   19.7330  -15.6780 C.ar   78  TRP78       0.0001
    114  CH2       36.4450   21.0480  -15.2990 C.ar   78  TRP78       0.0015
    115  N         31.6230   20.5410  -18.5540 N.am   79  CYS79      -0.1954
    116  CA        30.7150   21.6830  -18.5770 C.3    79  CYS79       0.1843
    117  C         31.4520   22.9360  -18.1220 C.2    79  CYS79       0.2625
    118  O         32.2250   22.9060  -17.1680 O.2    79  CYS79      -0.2714
    119  CB        29.4750   21.4670  -17.7010 C.3    79  CYS79       0.0997
    120  SG        28.5710   19.9400  -17.9840 S.3    79  CYS79      -0.0797
    121  N         31.2040   24.0270  -18.8300 N.am   80  GLU80      -0.1963
    122  CA        31.6970   25.3340  -18.4580 C.3    80  GLU80       0.1733
    123  C         30.6280   26.0930  -17.6630 C.2    80  GLU80       0.2616
    124  O         29.4390   26.0040  -17.9640 O.2    80  GLU80      -0.2715
    125  CB        32.0350   26.0870  -19.7300 C.3    80  GLU80       0.0429
    126  CG        32.5420   25.1530  -20.8270 C.3    80  GLU80       0.1163
    127  CD        33.8360   25.6340  -21.4640 C.2    80  GLU80       0.3649
    128  OE1       33.7620   26.5110  -22.3570 O.co2  80  GLU80      -0.2457
    129  OE2       34.9200   25.1340  -21.0720 O.co2  80  GLU80      -0.2457
    130  N         31.0510   26.8370  -16.6520 N.am   81  GLY81      -0.1955
    131  CA        30.1360   27.6140  -15.8470 C.3    81  GLY81       0.1869
    132  C         30.0500   27.1020  -14.4230 C.2    81  GLY81       0.2309
    133  O         31.0140   26.5600  -13.9120 O.2    81  GLY81      -0.2863
    134  N         14.9480   10.6790  -16.5790 N.3   114  LEU114     -0.1245
    135  CA        15.5170    9.7230  -15.6200 C.3   114  LEU114      0.1561
    136  C         14.4710    8.7330  -15.0690 C.2   114  LEU114      0.2260
    137  O         14.7040    7.5190  -14.9910 O.2   114  LEU114     -0.2867
    138  CB        16.2630   10.4620  -14.4870 C.3   114  LEU114      0.0270
    139  CG        17.5670   11.1590  -14.9170 C.3   114  LEU114      0.0019
    140  CD1       18.1780   12.0250  -13.8300 C.3   114  LEU114      0.0001
    141  CD2       18.5890   10.1400  -15.4030 C.3   114  LEU114      0.0001
    142  N         15.1990    5.4620  -13.2250 N.3   119  ILE119     -0.1231
    143  CA        16.3400    5.9110  -12.4640 C.3   119  ILE119      0.1692
    144  C         15.8480    6.8850  -11.4030 C.2   119  ILE119      0.2592
    145  O         15.3120    7.9360  -11.7260 O.2   119  ILE119     -0.2718
    146  CB        17.3950    6.6110  -13.3780 C.3   119  ILE119      0.0266
    147  CG1       18.0470    5.5920  -14.3440 C.3   119  ILE119      0.0019
    148  CG2       18.4320    7.3760  -12.5310 C.3   119  ILE119      0.0020
    149  CD1       18.9880    6.1870  -15.3650 C.3   119  ILE119      0.0001
    150  N         16.0090    6.5300  -10.1360 N.am  120  ILE120     -0.1966
    151  CA        15.8350    7.5050   -9.0730 C.3   120  ILE120      0.1727
    152  C         17.1720    8.2050   -8.8500 C.2   120  ILE120      0.2616
    153  O         18.2060    7.5480   -8.7330 O.2   120  ILE120     -0.2715
    154  CB        15.3400    6.8500   -7.7600 C.3   120  ILE120      0.0290
    155  CG1       14.1270    5.9710   -8.0550 C.3   120  ILE120      0.0022
    156  CG2       15.0290    7.9210   -6.7110 C.3   120  ILE120      0.0023
    157  CD1       13.6620    5.1560   -6.8980 C.3   120  ILE120      0.0001
    158  N         17.1540    9.5310   -8.8180 N.am  121  HIS121     -0.1973
    159  CA        18.3810   10.2920   -8.6690 C.3   121  HIS121      0.1656
    160  C         18.9890   10.1300   -7.2910 C.2   121  HIS121      0.2291
    161  O         20.1990    9.9260   -7.1580 O.2   121  HIS121     -0.2864
    162  CB        18.1160   11.7630   -8.9080 C.3   121  HIS121      0.0771
    163  CG        19.3600   12.5950   -8.9760 C.ar  121  HIS121      0.0820
    164  ND1       20.1440   12.8590   -7.8720 N.ar  121  HIS121     -0.2267
    165  CD2       19.9520   13.2270  -10.0180 C.ar  121  HIS121      0.1154
    166  CE1       21.1620   13.6210   -8.2280 C.ar  121  HIS121      0.1986
    167  NE2       21.0700   13.8560   -9.5250 N.ar  121  HIS121     -0.2212
    168  N         23.8100   21.7030  -13.2150 N.3   130  PHE130     -0.1241
    169  CA        24.8510   22.5330  -13.7810 C.3   130  PHE130      0.1605
    170  C         24.2740   23.4250  -14.8710 C.2   130  PHE130      0.2264
    171  O         23.5130   22.9710  -15.7240 O.2   130  PHE130     -0.2867
    172  CB        25.9880   21.6770  -14.3390 C.3   130  PHE130      0.0534
    173  CG        27.3030   22.4140  -14.4100 C.ar  130  PHE130     -0.0203
    174  CD1       27.5080   23.3980  -15.3640 C.ar  130  PHE130     -0.0042
    175  CD2       28.3150   22.1380  -13.5100 C.ar  130  PHE130     -0.0042
    176  CE1       28.6960   24.0870  -15.4250 C.ar  130  PHE130     -0.0003
    177  CE2       29.5000   22.8170  -13.5540 C.ar  130  PHE130     -0.0003
    178  CZ        29.7120   23.7930  -14.5140 C.ar  130  PHE130     -0.0000
    179  N         21.8050   17.9420  -15.4170 N.3   139  ILE139     -0.1231
    180  CA        21.6220   17.2720  -14.1550 C.3   139  ILE139      0.1692
    181  C         22.6540   16.1680  -14.1140 C.2   139  ILE139      0.2593
    182  O         22.7990   15.4190  -15.0880 O.2   139  ILE139     -0.2718
    183  CB        20.2160   16.6700  -14.0220 C.3   139  ILE139      0.0266
    184  CG1       19.1670   17.7780  -13.9610 C.3   139  ILE139      0.0019
    185  CG2       20.1350   15.7950  -12.7820 C.3   139  ILE139      0.0020
    186  CD1       17.7490   17.2780  -14.1370 C.3   139  ILE139      0.0001
    187  N         23.3900   16.0970  -13.0070 N.am  140  GLY140     -0.1942
    188  CA        24.2700   14.9820  -12.7360 C.3   140  GLY140      0.2014
    189  C         24.3670   14.7890  -11.2440 C.2   140  GLY140      0.2639
    190  O         23.5350   15.2930  -10.4930 O.2   140  GLY140     -0.2714
    191  N         25.3800   14.0520  -10.8030 N.am  141  ASP141     -0.1957
    192  CA        25.6970   13.9970   -9.3840 C.3   141  ASP141      0.1840
    193  C         27.1360   14.4180   -9.1640 C.2   141  ASP141      0.2622
    194  O         28.0490   13.6270   -9.3250 O.2   141  ASP141     -0.2715
    195  CB        25.4450   12.6130   -8.7950 C.3   141  ASP141      0.1450
    196  CG        25.3650   12.6400   -7.2800 C.2   141  ASP141      0.3671
    197  OD1       26.1340   13.4020   -6.6490 O.co2 141  ASP141     -0.2456
    198  OD2       24.5110   11.9220   -6.7150 O.co2 141  ASP141     -0.2456
    199  N         27.3180   15.6700   -8.7710 N.am  142  PHE142     -0.1974
    200  CA        28.6310   16.2730   -8.7090 C.3   142  PHE142      0.1639
    201  C         29.2470   16.1120   -7.3320 C.2   142  PHE142      0.2290
    202  O         30.3680   16.5800   -7.0970 O.2   142  PHE142     -0.2864
    203  CB        28.5540   17.7600   -9.0750 C.3   142  PHE142      0.0560
    204  CG        28.2220   18.0170  -10.5170 C.ar  142  PHE142     -0.0200
    205  CD1       26.9420   17.7370  -11.0220 C.ar  142  PHE142     -0.0042
    206  CD2       29.1820   18.5470  -11.3750 C.ar  142  PHE142     -0.0042
    207  CE1       26.6260   17.9710  -12.3740 C.ar  142  PHE142     -0.0003
    208  CE2       28.8850   18.7920  -12.7240 C.ar  142  PHE142     -0.0003
    209  CZ        27.6000   18.5040  -13.2290 C.ar  142  PHE142     -0.0000
@<TRIPOS>BOND
     1   100    98   am
     2   128   127   ar
     3    57    56    2
     4    96    93    1
     5    96    97    1
     6    56    55    1
     7   127   129   ar
     8   127   126    1
     9    98    99    2
    10    98    97    1
    11    93    92    1
    12    93    94    1
    13   126   125    1
    14   104   103    2
    15   101    94   am
    16   101   102    1
    17    92    87   am
    18    55    54    1
    19    55    58    1
    20   105   102    1
    21   105   106    1
    22    94    95    2
    23    64    63    2
    24    88    87    2
    25    87    86    1
    26   125   122    1
    27   103   102    1
    28   103   115   am
    29   107   106   ar
    30   107   109   ar
    31    61    62    1
    32   106   108   ar
    33    58    59    1
    34    58    60    1
    35    49    48    2
    36    86    85    1
    37    86    89    1
    38    71    72    2
    39    71    70    1
    40   121   122    1
    41   121   117   am
    42    63    62    1
    43    63    69   am
    44   116   115    1
    45   116   117    1
    46   116   119    1
    47   109   110   ar
    48   122   123    1
    49    65    62    1
    50    65    66    1
    51    65    67    1
    52    16    17    1
    53    48    47    1
    54   117   118    2
    55    66    68    1
    56    70    69    1
    57    70    73    1
    58   120   119    1
    59   124   123    2
    60   108   110   ar
    61   108   111   ar
    62    89    90    1
    63    89    91    1
    64   123   130   am
    65   110   112   ar
    66    19    18    2
    67    75    74    1
    68    17    18    1
    69    17    20    1
    70   111   113   ar
    71    74    73    1
    72    74    76    1
    73    47    50    1
    74    47    46    1
    75   130   131    1
    76   134   135    1
    77    50    51    1
    78    42    41    2
    79    79    80    2
    80    79    78    1
    81   112   114   ar
    82   131   132    1
    83   171   170    2
    84   113   114   ar
    85    46    41   am
    86    41    40    1
    87   135   136    1
    88   135   138    1
    89    53    51    1
    90    52    51    1
    91   176   174   ar
    92   176   178   ar
    93   179   180    1
    94   141   139    1
    95    78    77    1
    96    78    81    1
    97   149   147    1
    98   174   173   ar
    99    83    81    1
   100   182   181    2
   101   136   137    2
   102   139   138    1
   103   139   140    1
   104   170   169    1
   105    40    39    1
   106    40    43    1
   107   178   177   ar
   108   132   133    2
   109    81    82    1
   110   173   172    1
   111   173   175   ar
   112   147   146    1
   113   172   169    1
   114   180   181    1
   115   180   183    1
   116   186   184    1
   117   181   187   am
   118   183   184    1
   119   183   185    1
   120   169   168    1
   121    21    22    1
   122    33    32    2
   123   177   175   ar
   124    82    84    1
   125    44    43    1
   126   146   148    1
   127   146   143    1
   128   209   208   ar
   129   209   207   ar
   130   142   143    1
   131    43    45    1
   132   187   188    1
   133    32    31    1
   134   188   189    1
   135   208   206   ar
   136     6     8    1
   137     6     5    1
   138   143   144    1
   139   207   205   ar
   140    24    23    2
   141    22    25    1
   142    22    23    1
   143    14    13    1
   144    25    26    1
   145   145   144    2
   146    35    34    1
   147    35    36    1
   148   144   150   am
   149    31    34    1
   150    31    30    1
   151   206   204   ar
   152   189   191   am
   153   189   190    2
   154    38    36   ar
   155     5     7    1
   156     5     2    1
   157    11    12    2
   158    11    10    1
   159   205   204   ar
   160   191   192    1
   161    36    37   ar
   162   204   203    1
   163    10    13    1
   164    10     9    1
   165    13    15    1
   166    26    27    1
   167    27    28    1
   168   150   151    1
   169     1     2    1
   170     2     3    1
   171   165   167   ar
   172   165   163   ar
   173   167   166   ar
   174   192   193    1
   175   192   195    1
   176   194   193    2
   177   193   199   am
   178    28    29    1
   179   203   200    1
   180   151   152    1
   181   151   154    1
   182   163   162    1
   183   163   164   ar
   184   162   159    1
   185   152   158   am
   186   152   153    2
   187   158   159    1
   188   195   196    1
   189   199   200    1
   190   200   201    1
   191   159   160    1
   192     3     4    2
   193   166   164   ar
   194   155   154    1
   195   155   157    1
   196   154   156    1
   197   201   202    2
   198   160   161    2
   199   196   198   ar
   200   196   197   ar
