@<TRIPOS>MOLECULE
tmp/5hi3A00.pdb
 92 88 0 0 0
SMALL
GASTEIGER

@<TRIPOS>ATOM
      1  N         72.3300  -54.9840  -49.7790 N.3    36  TYR36      -0.1228
      2  CA        72.1480  -54.7850  -48.3480 C.3    36  TYR36       0.1721
      3  C         72.3420  -53.3030  -47.9690 C.2    36  TYR36       0.2437
      4  O         73.4590  -52.7920  -48.1040 O.2    36  TYR36      -0.2733
      5  CB        73.0560  -55.7010  -47.5080 C.3    36  TYR36       0.0547
      6  CG        72.8450  -55.5210  -46.0180 C.ar   36  TYR36      -0.0200
      7  CD1       71.8170  -56.1870  -45.3540 C.ar   36  TYR36      -0.0009
      8  CD2       73.6350  -54.6390  -45.2820 C.ar   36  TYR36      -0.0009
      9  CE1       71.5880  -55.9920  -43.9920 C.ar   36  TYR36       0.0417
     10  CE2       73.4100  -54.4290  -43.9200 C.ar   36  TYR36       0.0417
     11  CZ        72.3970  -55.1240  -43.2750 C.ar   36  TYR36       0.1957
     12  OH        72.1770  -54.9360  -41.9340 O.3    36  TYR36      -0.2866
     13  N         71.3010  -52.6090  -47.4440 N.am   37  PRO37      -0.2729
     14  CA        69.9230  -53.0740  -47.1990 C.3    37  PRO37       0.1401
     15  C         69.0790  -53.1530  -48.4610 C.2    37  PRO37       0.2269
     16  O         69.3340  -52.4330  -49.4330 O.2    37  PRO37      -0.2865
     17  CB        69.3780  -52.0370  -46.2090 C.3    37  PRO37       0.0296
     18  CG        70.0890  -50.7850  -46.5530 C.3    37  PRO37       0.0237
     19  CD        71.4650  -51.2000  -47.0380 C.3    37  PRO37       0.0939
     20  N         65.6660  -48.9500  -49.5660 N.3    40  ILE40      -0.1245
     21  CA        66.2560  -47.6190  -49.3860 C.3    40  ILE40       0.1561
     22  C         65.1870  -46.5770  -49.7250 C.2    40  ILE40       0.2260
     23  O         64.6400  -46.5930  -50.8290 O.2    40  ILE40      -0.2867
     24  CB        67.5990  -47.4040  -50.1540 C.3    40  ILE40       0.0252
     25  CG1       68.7150  -48.3120  -49.5790 C.3    40  ILE40       0.0019
     26  CG2       68.0220  -45.9250  -50.1190 C.3    40  ILE40       0.0019
     27  CD1       70.0260  -48.3720  -50.3700 C.3    40  ILE40       0.0001
     28  N         73.4260  -37.6960  -50.7850 N.3    68  GLN68      -0.1231
     29  CA        74.5830  -38.1280  -50.0060 C.3    68  GLN68       0.1698
     30  C         75.1300  -39.4200  -50.6090 C.2    68  GLN68       0.2592
     31  O         74.3560  -40.3210  -50.9360 O.2    68  GLN68      -0.2718
     32  CB        74.2330  -38.3090  -48.5100 C.3    68  GLN68       0.0381
     33  CG        75.3240  -39.0160  -47.6680 C.3    68  GLN68       0.0905
     34  CD        75.9470  -38.1640  -46.5850 C.2    68  GLN68       0.2608
     35  OE1       76.6070  -37.1520  -46.8520 O.2    68  GLN68      -0.2717
     36  NE2       75.8190  -38.5990  -45.3360 N.am   68  GLN68      -0.0878
     37  N         76.4620  -39.4930  -50.7640 N.am   69  GLU69      -0.1966
     38  CA        77.1560  -40.6800  -51.2470 C.3    69  GLU69       0.1733
     39  C         77.2570  -41.6270  -50.0590 C.2    69  GLU69       0.2616
     40  O         77.7080  -41.2170  -48.9820 O.2    69  GLU69      -0.2715
     41  CB        78.5470  -40.3260  -51.7910 C.3    69  GLU69       0.0429
     42  CG        78.7190  -40.6810  -53.2570 C.3    69  GLU69       0.1163
     43  CD        79.9240  -40.0770  -53.9520 C.2    69  GLU69       0.3649
     44  OE1       79.9000  -40.0050  -55.2020 O.co2  69  GLU69      -0.2457
     45  OE2       80.9110  -39.7270  -53.2630 O.co2  69  GLU69      -0.2457
     46  N         76.7400  -42.8520  -50.2260 N.am   70  ILE70      -0.1963
     47  CA        76.7020  -43.8880  -49.1930 C.3    70  ILE70       0.1727
     48  C         77.2120  -45.2240  -49.7380 C.2    70  ILE70       0.2616
     49  O         76.9350  -45.5600  -50.8890 O.2    70  ILE70      -0.2715
     50  CB        75.2890  -44.0280  -48.5330 C.3    70  ILE70       0.0290
     51  CG1       74.1750  -44.3140  -49.5650 C.3    70  ILE70       0.0022
     52  CG2       74.9390  -42.8060  -47.6680 C.3    70  ILE70       0.0023
     53  CD1       73.1140  -45.2290  -49.0900 C.3    70  ILE70       0.0001
     54  N         77.9480  -45.9820  -48.9120 N.am   71  LEU71      -0.1963
     55  CA        78.4390  -47.3060  -49.2880 C.3    71  LEU71       0.1728
     56  C         77.3730  -48.3460  -48.9980 C.2    71  LEU71       0.2616
     57  O         76.7370  -48.3320  -47.9420 O.2    71  LEU71      -0.2715
     58  CB        79.7710  -47.6660  -48.6160 C.3    71  LEU71       0.0311
     59  CG        81.0230  -46.9710  -49.1540 C.3    71  LEU71       0.0022
     60  CD1       82.2110  -47.2160  -48.2430 C.3    71  LEU71       0.0001
     61  CD2       81.3410  -47.4080  -50.5800 C.3    71  LEU71       0.0001
     62  N         77.1390  -49.2060  -49.9740 N.am   72  VAL72      -0.1977
     63  CA        76.1280  -50.2410  -49.9130 C.3    72  VAL72       0.1596
     64  C         76.7470  -51.6060  -50.2490 C.2    72  VAL72       0.2287
     65  O         77.7800  -51.6630  -50.9310 O.2    72  VAL72      -0.2864
     66  CB        74.9160  -49.8290  -50.7930 C.3    72  VAL72       0.0276
     67  CG1       75.0760  -50.2300  -52.2620 C.3    72  VAL72       0.0022
     68  CG2       73.6100  -50.3400  -50.2090 C.3    72  VAL72       0.0022
     69  N         81.5710  -53.9450  -52.1520 N.3    81  LEU81      -0.1245
     70  CA        81.1590  -52.6890  -51.5280 C.3    81  LEU81       0.1561
     71  C         81.0470  -51.6220  -52.6040 C.2    81  LEU81       0.2260
     72  O         82.0620  -51.2120  -53.1730 O.2    81  LEU81      -0.2867
     73  CB        82.1460  -52.2610  -50.4290 C.3    81  LEU81       0.0270
     74  CG        81.6750  -52.4470  -48.9990 C.3    81  LEU81       0.0019
     75  CD1       82.8530  -52.5460  -48.0550 C.3    81  LEU81       0.0001
     76  CD2       80.7580  -51.3210  -48.5780 C.3    81  LEU81       0.0001
     77  N         79.5860  -47.7810  -53.9670 N.3    83  LYS83      -0.1245
     78  CA        79.2720  -46.4060  -53.5930 C.3    83  LYS83       0.1561
     79  C         78.0280  -45.9920  -54.3880 C.2    83  LYS83       0.2260
     80  O         78.0480  -46.0000  -55.6240 O.2    83  LYS83      -0.2867
     81  CB        80.4790  -45.5050  -53.9190 C.3    83  LYS83       0.0271
     82  CG        80.4040  -44.0750  -53.4130 C.3    83  LYS83       0.0035
     83  CD        81.3100  -43.1920  -54.2630 C.3    83  LYS83       0.0206
     84  CE        82.5600  -42.7330  -53.5510 C.3    83  LYS83       0.1093
     85  NZ        83.2310  -41.6230  -54.2830 N.3    83  LYS83      -0.1314
     86  N         72.1450  -41.2540  -52.7330 N.3    86  VAL86      -0.1245
     87  CA        70.7470  -41.2490  -52.2740 C.3    86  VAL86       0.1561
     88  C         70.2830  -39.8550  -51.8910 C.2    86  VAL86       0.2260
     89  O         71.0480  -39.1000  -51.2970 O.2    86  VAL86      -0.2867
     90  CB        70.4260  -42.2850  -51.1460 C.3    86  VAL86       0.0252
     91  CG1       70.6920  -43.7250  -51.5950 C.3    86  VAL86       0.0019
     92  CG2       71.1640  -41.9700  -49.8440 C.3    86  VAL86       0.0019
@<TRIPOS>BOND
     1    80    79    2
     2    44    43   ar
     3    79    78    1
     4    85    84    1
     5    83    84    1
     6    83    82    1
     7    77    78    1
     8    43    45   ar
     9    43    42    1
    10    81    78    1
    11    81    82    1
    12    42    41    1
    13    72    71    2
    14    86    87    1
    15    71    70    1
    16    87    88    1
    17    87    90    1
    18    67    66    1
    19    69    70    1
    20    88    89    2
    21    41    38    1
    22    91    90    1
    23    70    73    1
    24    38    37    1
    25    38    39    1
    26    90    92    1
    27    31    30    2
    28    65    64    2
    29    49    48    2
    30    23    22    2
    31    66    68    1
    32    66    63    1
    33    28    29    1
    34    37    30   am
    35    30    29    1
    36    61    59    1
    37    73    74    1
    38    27    25    1
    39    64    63    1
    40    46    39   am
    41    46    47    1
    42    24    26    1
    43    24    25    1
    44    24    21    1
    45    39    40    2
    46    29    32    1
    47    62    63    1
    48    62    56   am
    49     1     2    1
    50    48    47    1
    51    48    54   am
    52    22    21    1
    53    20    21    1
    54    51    53    1
    55    51    50    1
    56    16    15    2
    57    55    56    1
    58    55    54    1
    59    55    58    1
    60    47    50    1
    61    59    58    1
    62    59    60    1
    63    74    76    1
    64    74    75    1
    65    56    57    2
    66    50    52    1
    67    32    33    1
    68    15    14    1
    69     2     3    1
    70     2     5    1
    71     4     3    2
    72     3    13   am
    73    33    34    1
    74     5     6    1
    75    13    14    1
    76    13    19    1
    77    14    17    1
    78    19    18    1
    79    35    34    2
    80    34    36   am
    81    18    17    1
    82     6     7   ar
    83     6     8   ar
    84     7     9   ar
    85     8    10   ar
    86     9    11   ar
    87    10    11   ar
    88    11    12    1
