@<TRIPOS>MOLECULE
tmp/5hi4B00.pdb
 80 75 0 0 0
SMALL
GASTEIGER

@<TRIPOS>ATOM
      1  N         72.3080  -52.4040  -47.1270 N.3    28  PRO28      -0.2116
      2  CA        70.9000  -52.7250  -46.8000 C.3    28  PRO28       0.1372
      3  C         70.0370  -52.9390  -48.0400 C.2    28  PRO28       0.2244
      4  O         70.2540  -52.2800  -49.0650 O.2    28  PRO28      -0.2868
      5  CB        70.4440  -51.5130  -45.9730 C.3    28  PRO28       0.0268
      6  CG        71.2940  -50.3970  -46.4530 C.3    28  PRO28       0.0207
      7  CD        72.6360  -51.0170  -46.7530 C.3    28  PRO28       0.0892
      8  N         66.5570  -48.9760  -49.2250 N.3    31  ILE31      -0.1245
      9  CA        67.1220  -47.6350  -49.0580 C.3    31  ILE31       0.1561
     10  C         66.0230  -46.6220  -49.3860 C.2    31  ILE31       0.2260
     11  O         65.4270  -46.6890  -50.4590 O.2    31  ILE31      -0.2867
     12  CB        68.4520  -47.4150  -49.8530 C.3    31  ILE31       0.0252
     13  CG1       69.6100  -48.2300  -49.2180 C.3    31  ILE31       0.0019
     14  CG2       68.8070  -45.9120  -49.9460 C.3    31  ILE31       0.0019
     15  CD1       70.8690  -48.3750  -50.0440 C.3    31  ILE31       0.0001
     16  N         74.2850  -37.7170  -50.5070 N.3    59  GLN59      -0.1231
     17  CA        75.4230  -38.1590  -49.7040 C.3    59  GLN59       0.1698
     18  C         76.0100  -39.4270  -50.3250 C.2    59  GLN59       0.2592
     19  O         75.2640  -40.3510  -50.6500 O.2    59  GLN59      -0.2718
     20  CB        75.0170  -38.3970  -48.2340 C.3    59  GLN59       0.0381
     21  CG        76.1150  -39.0430  -47.3710 C.3    59  GLN59       0.0905
     22  CD        76.9950  -38.0500  -46.6560 C.2    59  GLN59       0.2608
     23  OE1       77.7740  -37.3080  -47.2700 O.2    59  GLN59      -0.2717
     24  NE2       76.9290  -38.0590  -45.3280 N.am   59  GLN59      -0.0878
     25  N         77.3460  -39.4500  -50.5000 N.am   60  GLU60      -0.1966
     26  CA        78.0730  -40.6150  -51.0200 C.3    60  GLU60       0.1733
     27  C         78.1790  -41.5970  -49.8700 C.2    60  GLU60       0.2616
     28  O         78.6760  -41.2390  -48.8000 O.2    60  GLU60      -0.2715
     29  CB        79.4730  -40.2440  -51.5450 C.3    60  GLU60       0.0429
     30  CG        79.4930  -39.8950  -53.0220 C.3    60  GLU60       0.1163
     31  CD        80.8510  -39.6080  -53.6300 C.2    60  GLU60       0.3649
     32  OE1       80.9190  -39.5010  -54.8750 O.co2  60  GLU60      -0.2457
     33  OE2       81.8510  -39.5280  -52.8780 O.co2  60  GLU60      -0.2457
     34  N         77.6240  -42.7970  -50.0620 N.am   61  ILE61      -0.1963
     35  CA        77.6020  -43.8600  -49.0540 C.3    61  ILE61       0.1727
     36  C         78.0730  -45.1770  -49.6620 C.2    61  ILE61       0.2616
     37  O         77.7630  -45.4670  -50.8150 O.2    61  ILE61      -0.2715
     38  CB        76.2050  -44.0110  -48.3700 C.3    61  ILE61       0.0290
     39  CG1       75.0680  -44.2380  -49.3920 C.3    61  ILE61       0.0022
     40  CG2       75.8950  -42.8290  -47.4450 C.3    61  ILE61       0.0023
     41  CD1       74.1800  -45.3150  -49.0520 C.3    61  ILE61       0.0001
     42  N         78.8200  -45.9640  -48.8840 N.am   62  LEU62      -0.1963
     43  CA        79.2980  -47.2750  -49.2910 C.3    62  LEU62       0.1728
     44  C         78.2610  -48.3090  -48.9050 C.2    62  LEU62       0.2616
     45  O         77.6330  -48.2040  -47.8490 O.2    62  LEU62      -0.2715
     46  CB        80.6780  -47.6020  -48.7060 C.3    62  LEU62       0.0311
     47  CG        81.8700  -46.8260  -49.2850 C.3    62  LEU62       0.0022
     48  CD1       83.1010  -47.0310  -48.4520 C.3    62  LEU62       0.0001
     49  CD2       82.1790  -47.2400  -50.7140 C.3    62  LEU62       0.0001
     50  N         78.0440  -49.2710  -49.8050 N.am   63  VAL63      -0.1977
     51  CA        77.0340  -50.3070  -49.6860 C.3    63  VAL63       0.1596
     52  C         77.6290  -51.6960  -49.9980 C.2    63  VAL63       0.2287
     53  O         78.6560  -51.7950  -50.6850 O.2    63  VAL63      -0.2864
     54  CB        75.8130  -49.8920  -50.5600 C.3    63  VAL63       0.0276
     55  CG1       75.8070  -50.5390  -51.9450 C.3    63  VAL63       0.0022
     56  CG2       74.4960  -50.0940  -49.8280 C.3    63  VAL63       0.0022
     57  N         82.3040  -53.8680  -52.0180 N.3    74  LEU74      -0.1245
     58  CA        81.9010  -52.6050  -51.4120 C.3    74  LEU74       0.1561
     59  C         81.7300  -51.5900  -52.5350 C.2    74  LEU74       0.2260
     60  O         82.6940  -51.2900  -53.2490 O.2    74  LEU74      -0.2867
     61  CB        82.9370  -52.1330  -50.3830 C.3    74  LEU74       0.0270
     62  CG        82.4080  -51.9330  -48.9730 C.3    74  LEU74       0.0019
     63  CD1       82.7080  -53.1330  -48.1010 C.3    74  LEU74       0.0001
     64  CD2       83.0320  -50.7260  -48.3480 C.3    74  LEU74       0.0001
     65  N         80.1870  -47.7360  -53.8930 N.3    76  LYS76      -0.1245
     66  CA        79.8330  -46.3630  -53.5460 C.3    76  LYS76       0.1561
     67  C         78.5640  -45.9770  -54.3090 C.2    76  LYS76       0.2260
     68  O         78.5140  -46.1140  -55.5390 O.2    76  LYS76      -0.2867
     69  CB        80.9900  -45.4130  -53.9140 C.3    76  LYS76       0.0271
     70  CG        80.9190  -44.0340  -53.2560 C.3    76  LYS76       0.0035
     71  CD        81.6160  -42.9590  -54.0980 C.3    76  LYS76       0.0206
     72  CE        83.1350  -42.9840  -54.0560 C.3    76  LYS76       0.1093
     73  NZ        83.7320  -41.7180  -54.5510 N.3    76  LYS76      -0.1314
     74  N         72.9210  -41.1300  -52.4350 N.3    79  VAL79      -0.1245
     75  CA        71.5240  -41.1790  -51.9800 C.3    79  VAL79       0.1561
     76  C         71.0290  -39.8050  -51.6160 C.2    79  VAL79       0.2260
     77  O         71.7830  -39.0340  -51.0130 O.2    79  VAL79      -0.2867
     78  CB        71.2100  -42.2220  -50.8560 C.3    79  VAL79       0.0252
     79  CG1       71.5540  -43.6520  -51.2920 C.3    79  VAL79       0.0019
     80  CG2       71.8970  -41.8770  -49.5400 C.3    79  VAL79       0.0019
@<TRIPOS>BOND
     1    68    67    2
     2    32    31   ar
     3    73    72    1
     4    67    66    1
     5    71    72    1
     6    71    70    1
     7    69    66    1
     8    69    70    1
     9    65    66    1
    10    31    30    1
    11    31    33   ar
    12    60    59    2
    13    30    29    1
    14    59    58    1
    15    74    75    1
    16    57    58    1
    17    75    76    1
    18    75    78    1
    19    55    54    1
    20    76    77    2
    21    29    26    1
    22    58    61    1
    23    79    78    1
    24    26    25    1
    25    26    27    1
    26    78    80    1
    27    37    36    2
    28    49    47    1
    29    53    52    2
    30    19    18    2
    31    54    56    1
    32    54    51    1
    33    16    17    1
    34    25    18   am
    35    11    10    2
    36    61    62    1
    37    18    17    1
    38    34    27   am
    39    34    35    1
    40    15    13    1
    41    52    51    1
    42    14    12    1
    43    27    28    2
    44    12    13    1
    45    12     9    1
    46    50    51    1
    47    50    44   am
    48    17    20    1
    49    36    35    1
    50    36    42   am
    51    39    41    1
    52    39    38    1
    53    10     9    1
    54    43    44    1
    55    43    42    1
    56    43    46    1
    57    47    46    1
    58    47    48    1
    59     8     9    1
    60     4     3    2
    61    35    38    1
    62    62    64    1
    63    62    63    1
    64    44    45    2
    65    38    40    1
    66    20    21    1
    67     3     2    1
    68    21    22    1
    69    23    22    2
    70     1     2    1
    71     1     7    1
    72     2     5    1
    73     7     6    1
    74    22    24   am
    75     6     5    1
