@<TRIPOS>MOLECULE
tmp/5hi7A00.pdb
 220 216 0 0 0
SMALL
GASTEIGER

@<TRIPOS>ATOM
      1  N         10.9020  -18.2060  -31.8450 N.3    11  ASN11      -0.1225
      2  CA        12.1440  -18.6320  -31.2020 C.3    11  ASN11       0.1785
      3  C         12.4060  -18.0320  -29.8200 C.2    11  ASN11       0.2597
      4  O         13.3650  -18.4540  -29.1660 O.2    11  ASN11      -0.2718
      5  CB        13.3380  -18.3040  -32.1090 C.3    11  ASN11       0.1169
      6  CG        13.1940  -16.9680  -32.8080 C.2    11  ASN11       0.2627
      7  OD1       12.6250  -16.0220  -32.2610 O.2    11  ASN11      -0.2716
      8  ND2       13.6940  -16.8890  -34.0370 N.am   11  ASN11      -0.0877
      9  N         11.5990  -17.0790  -29.3520 N.am   12  ARG12      -0.1966
     10  CA        11.9120  -16.3420  -28.1280 C.3    12  ARG12       0.1729
     11  C         11.1700  -16.8290  -26.8850 C.2    12  ARG12       0.2617
     12  O         11.3430  -16.2370  -25.8140 O.2    12  ARG12      -0.2715
     13  CB        11.6500  -14.8450  -28.3340 C.3    12  ARG12       0.0348
     14  CG        12.7040  -14.1780  -29.1870 C.3    12  ARG12       0.0492
     15  CD        12.4030  -12.7130  -29.4130 C.3    12  ARG12       0.2205
     16  NE        13.4080  -12.0970  -30.2710 N.pl3  12  ARG12      -0.0865
     17  CZ        13.4140  -10.8160  -30.6220 C.cat  12  ARG12       0.5346
     18  NH1       12.4640   -9.9980  -30.1880 N.pl3  12  ARG12       0.1354
     19  NH2       14.3750  -10.3520  -31.4090 N.pl3  12  ARG12       0.1354
     20  N         10.3480  -17.8700  -26.9880 N.am   13  GLY13      -0.1940
     21  CA         9.4770  -18.2190  -25.8790 C.3    13  GLY13       0.2014
     22  C          8.2280  -17.3490  -25.8710 C.2    13  GLY13       0.2638
     23  O          7.6990  -16.9760  -26.9170 O.2    13  GLY13      -0.2714
     24  N          7.7480  -17.0310  -24.6700 N.am   14  ASN14      -0.1972
     25  CA         6.6030  -16.1420  -24.5330 C.3    14  ASN14       0.1688
     26  C          7.0230  -14.6850  -24.6830 C.2    14  ASN14       0.2292
     27  O          8.1690  -14.3130  -24.4150 O.2    14  ASN14      -0.2864
     28  CB         5.9110  -16.3440  -23.1860 C.3    14  ASN14       0.1181
     29  CG         5.2120  -17.6800  -23.0900 C.2    14  ASN14       0.2629
     30  OD1        4.6140  -18.1500  -24.0570 O.2    14  ASN14      -0.2716
     31  ND2        5.2870  -18.3050  -21.9220 N.am   14  ASN14      -0.0877
     32  N          1.0070  -12.8220  -16.3080 N.3   122  TYR122     -0.1241
     33  CA         2.0140  -13.8610  -16.1620 C.3   122  TYR122      0.1605
     34  C          2.2580  -14.0210  -14.6720 C.2   122  TYR122      0.2264
     35  O          2.2300  -13.0340  -13.9370 O.2   122  TYR122     -0.2867
     36  CB         3.2930  -13.4290  -16.8920 C.3   122  TYR122      0.0534
     37  CG         4.1270  -14.4880  -17.5740 C.ar  122  TYR122     -0.0201
     38  CD1        3.5510  -15.5110  -18.3160 C.ar  122  TYR122     -0.0009
     39  CD2        5.5110  -14.4140  -17.5270 C.ar  122  TYR122     -0.0009
     40  CE1        4.3420  -16.4540  -18.9580 C.ar  122  TYR122      0.0417
     41  CE2        6.3010  -15.3440  -18.1590 C.ar  122  TYR122      0.0417
     42  CZ         5.7180  -16.3590  -18.8730 C.ar  122  TYR122      0.1957
     43  OH         6.5310  -17.2770  -19.5000 O.3   122  TYR122     -0.2866
     44  N         10.3970  -17.8370  -16.8970 N.3   128  GLU128     -0.1245
     45  CA        11.4420  -18.6080  -17.5620 C.3   128  GLU128      0.1567
     46  C         12.5820  -18.8900  -16.5890 C.2   128  GLU128      0.2260
     47  O         13.0940  -17.9660  -15.9540 O.2   128  GLU128     -0.2867
     48  CB        11.9530  -17.8260  -18.7720 C.3   128  GLU128      0.0388
     49  CG        13.1520  -18.4410  -19.4710 C.3   128  GLU128      0.1160
     50  CD        12.8100  -19.7460  -20.1550 C.2   128  GLU128      0.3649
     51  OE1       11.9970  -19.7220  -21.1030 O.co2 128  GLU128     -0.2457
     52  OE2       13.3490  -20.7940  -19.7400 O.co2 128  GLU128     -0.2457
     53  N         15.2990  -20.8450  -17.7620 N.3   130  ASN130     -0.1240
     54  CA        16.4610  -21.1130  -18.6250 C.3   130  ASN130      0.1653
     55  C         17.3700  -22.2140  -18.0700 C.2   130  ASN130      0.2266
     56  O         18.5790  -22.2120  -18.3170 O.2   130  ASN130     -0.2867
     57  CB        17.2760  -19.8370  -18.8560 C.3   130  ASN130      0.1155
     58  CG        16.5890  -18.8680  -19.7850 C.2   130  ASN130      0.2627
     59  OD1       15.9860  -19.2670  -20.7810 O.2   130  ASN130     -0.2716
     60  ND2       16.6760  -17.5820  -19.4680 N.am  130  ASN130     -0.0877
     61  N         19.7770  -24.3190  -20.2950 N.3   133  LYS133     -0.1245
     62  CA        20.8630  -23.5600  -20.9000 C.3   133  LYS133      0.1561
     63  C         21.9460  -23.1660  -19.9010 C.2   133  LYS133      0.2260
     64  O         22.9510  -22.5700  -20.3020 O.2   133  LYS133     -0.2867
     65  CB        20.3030  -22.3100  -21.5850 C.3   133  LYS133      0.0271
     66  CG        19.4630  -22.6280  -22.8150 C.3   133  LYS133      0.0035
     67  CD        18.7960  -21.3900  -23.3970 C.3   133  LYS133      0.0206
     68  CE        18.0980  -21.7160  -24.7100 C.3   133  LYS133      0.1093
     69  NZ        17.4120  -20.5380  -25.3150 N.3   133  LYS133     -0.1314
     70  N         17.0310  -14.3220  -13.7470 N.3   178  CYS178     -0.1221
     71  CA        16.6790  -13.9060  -15.1020 C.3   178  CYS178      0.1808
     72  C         15.5110  -12.9200  -15.1310 C.2   178  CYS178      0.2601
     73  O         15.3780  -12.1470  -16.0850 O.2   178  CYS178     -0.2717
     74  CB        16.3480  -15.1560  -15.9250 C.3   178  CYS178      0.0970
     75  SG        15.3360  -14.9070  -17.3980 S.3   178  CYS178     -0.0800
     76  N         14.6200  -12.9780  -14.1370 N.am  179  ASN179     -0.1960
     77  CA        13.4310  -12.1240  -14.1070 C.3   179  ASN179      0.1819
     78  C         13.5170  -10.9100  -13.1810 C.2   179  ASN179      0.2622
     79  O         12.5380  -10.1610  -13.0870 O.2   179  ASN179     -0.2715
     80  CB        12.2070  -12.9670  -13.7630 C.3   179  ASN179      0.1195
     81  CG        11.8470  -13.9120  -14.8860 C.2   179  ASN179      0.2630
     82  OD1       11.1990  -13.5180  -15.8560 O.2   179  ASN179     -0.2716
     83  ND2       12.3040  -15.1540  -14.7860 N.am  179  ASN179     -0.0877
     84  N         14.6310  -10.6890  -12.4900 N.am  180  SER180     -0.1936
     85  CA        14.7010   -9.5680  -11.5600 C.3   180  SER180      0.2055
     86  C         14.7900   -8.2410  -12.3070 C.2   180  SER180      0.2643
     87  O         15.4980   -8.1190  -13.3100 O.2   180  SER180     -0.2714
     88  CB        15.9020   -9.7200  -10.6250 C.3   180  SER180      0.2130
     89  OG        15.6330  -10.6550   -9.5920 O.3   180  SER180     -0.2179
     90  N         14.0580   -7.2450  -11.8090 N.am  181  PHE181     -0.1973
     91  CA        14.1430   -5.8730  -12.2930 C.3   181  PHE181      0.1639
     92  C         14.9420   -5.0390  -11.3030 C.2   181  PHE181      0.2290
     93  O         14.6630   -5.0640  -10.1010 O.2   181  PHE181     -0.2864
     94  CB        12.7550   -5.2520  -12.4660 C.3   181  PHE181      0.0560
     95  CG        12.0260   -5.7080  -13.6940 C.ar  181  PHE181     -0.0200
     96  CD1       12.1640   -5.0250  -14.8910 C.ar  181  PHE181     -0.0042
     97  CD2       11.1860   -6.8080  -13.6480 C.ar  181  PHE181     -0.0042
     98  CE1       11.4860   -5.4350  -16.0220 C.ar  181  PHE181     -0.0003
     99  CE2       10.5050   -7.2240  -14.7760 C.ar  181  PHE181     -0.0003
    100  CZ        10.6560   -6.5370  -15.9650 C.ar  181  PHE181     -0.0000
    101  N          5.3260   -7.9920  -16.3530 N.3   199  ILE199     -0.1231
    102  CA         6.2860   -7.2360  -17.1480 C.3   199  ILE199      0.1692
    103  C          7.4080   -8.1310  -17.6600 C.2   199  ILE199      0.2593
    104  O          8.0570   -7.7960  -18.6560 O.2   199  ILE199     -0.2718
    105  CB         6.8620   -6.0700  -16.3180 C.3   199  ILE199      0.0266
    106  CG1        5.7390   -5.2420  -15.6780 C.3   199  ILE199      0.0019
    107  CG2        7.7560   -5.1790  -17.1770 C.3   199  ILE199      0.0020
    108  CD1        4.8660   -4.4960  -16.6660 C.3   199  ILE199      0.0001
    109  N          7.6530   -9.2690  -17.0060 N.am  200  SER200     -0.1938
    110  CA         8.7040  -10.1800  -17.4480 C.3   200  SER200      0.2055
    111  C          8.4420  -10.7620  -18.8280 C.2   200  SER200      0.2643
    112  O          9.3480  -11.3790  -19.3990 O.2   200  SER200     -0.2714
    113  CB         8.8730  -11.3230  -16.4480 C.3   200  SER200      0.2130
    114  OG         9.6790  -10.9270  -15.3590 O.3   200  SER200     -0.2179
    115  N          7.2340  -10.5960  -19.3730 N.am  201  LEU201     -0.1963
    116  CA         6.9560  -11.0830  -20.7170 C.3   201  LEU201      0.1728
    117  C          7.7090  -10.3020  -21.7840 C.2   201  LEU201      0.2616
    118  O          7.8750  -10.8110  -22.8970 O.2   201  LEU201     -0.2715
    119  CB         5.4520  -11.0220  -21.0040 C.3   201  LEU201      0.0311
    120  CG         4.5850  -12.1340  -20.4070 C.3   201  LEU201      0.0022
    121  CD1        3.1130  -11.8400  -20.6540 C.3   201  LEU201      0.0001
    122  CD2        4.9550  -13.4960  -20.9830 C.3   201  LEU201      0.0001
    123  N          8.1790   -9.0930  -21.4800 N.am  202  LEU202     -0.1963
    124  CA         8.8350   -8.2820  -22.4970 C.3   202  LEU202      0.1728
    125  C         10.1840   -8.8920  -22.8560 C.2   202  LEU202      0.2616
    126  O         11.0510   -9.0630  -21.9920 O.2   202  LEU202     -0.2715
    127  CB         9.0180   -6.8540  -21.9930 C.3   202  LEU202      0.0311
    128  CG         7.7470   -6.0400  -21.7570 C.3   202  LEU202      0.0022
    129  CD1        8.0070   -4.9660  -20.7190 C.3   202  LEU202      0.0001
    130  CD2        7.2620   -5.4180  -23.0520 C.3   202  LEU202      0.0001
    131  N         10.3560   -9.2170  -24.1320 N.am  203  ASN203     -0.1958
    132  CA        11.6260   -9.6780  -24.6640 C.3   203  ASN203      0.1819
    133  C         12.5650   -8.4990  -24.9180 C.2   203  ASN203      0.2621
    134  O         12.1480   -7.3420  -25.0080 O.2   203  ASN203     -0.2715
    135  CB        11.4010  -10.5030  -25.9290 C.3   203  ASN203      0.1195
    136  CG        10.8650  -11.8960  -25.6170 C.2   203  ASN203      0.2630
    137  OD1       11.3650  -12.5760  -24.7200 O.2   203  ASN203     -0.2716
    138  ND2        9.8350  -12.3150  -26.3390 N.am  203  ASN203     -0.0877
    139  N         13.8560   -8.8080  -24.9830 N.am  204  HIS204     -0.1973
    140  CA        14.8910   -7.7930  -25.1190 C.3   204  HIS204      0.1656
    141  C         15.0940   -7.3530  -26.5640 C.2   204  HIS204      0.2291
    142  O         14.9990   -8.1520  -27.5010 O.2   204  HIS204     -0.2864
    143  CB        16.2210   -8.3170  -24.5830 C.3   204  HIS204      0.0771
    144  CG        17.3950   -7.4730  -24.9710 C.ar  204  HIS204      0.0820
    145  ND1       17.7280   -6.3140  -24.3050 N.ar  204  HIS204     -0.2267
    146  CD2       18.2950   -7.6020  -25.9740 C.ar  204  HIS204      0.1154
    147  CE1       18.7930   -5.7740  -24.8700 C.ar  204  HIS204      0.1986
    148  NE2       19.1560   -6.5350  -25.8860 N.ar  204  HIS204     -0.2212
    149  N         11.8900   -4.1700  -24.4900 N.3   235  ILE235     -0.1245
    150  CA        12.6500   -3.2170  -23.6950 C.3   235  ILE235      0.1561
    151  C         14.1180   -3.6060  -23.8100 C.2   235  ILE235      0.2260
    152  O         14.4560   -4.6900  -24.2830 O.2   235  ILE235     -0.2867
    153  CB        12.2110   -3.1950  -22.2140 C.3   235  ILE235      0.0252
    154  CG1       12.2920   -4.6060  -21.6160 C.3   235  ILE235      0.0019
    155  CG2       10.8030   -2.6310  -22.0860 C.3   235  ILE235      0.0019
    156  CD1       12.0570   -4.6660  -20.1170 C.3   235  ILE235      0.0001
    157  N         17.2230   -4.6920  -21.7430 N.3   237  TYR237     -0.1241
    158  CA        17.5740   -5.2390  -20.4370 C.3   237  TYR237      0.1605
    159  C         18.8160   -4.5950  -19.8330 C.2   237  TYR237      0.2264
    160  O         19.0530   -4.7620  -18.6310 O.2   237  TYR237     -0.2867
    161  CB        17.8240   -6.7470  -20.5310 C.3   237  TYR237      0.0534
    162  CG        16.6380   -7.6100  -20.9110 C.ar  237  TYR237     -0.0201
    163  CD1       15.3780   -7.0670  -21.1250 C.ar  237  TYR237     -0.0009
    164  CD2       16.7890   -8.9850  -21.0420 C.ar  237  TYR237     -0.0009
    165  CE1       14.3020   -7.8750  -21.4710 C.ar  237  TYR237      0.0417
    166  CE2       15.7290   -9.7940  -21.3840 C.ar  237  TYR237      0.0417
    167  CZ        14.4880   -9.2390  -21.5970 C.ar  237  TYR237      0.1957
    168  OH        13.4410  -10.0630  -21.9380 O.3   237  TYR237     -0.2866
    169  N         20.9050  -13.9400  -19.1260 N.3   255  TYR255     -0.1227
    170  CA        19.6800  -14.3180  -19.8290 C.3   255  TYR255      0.1736
    171  C         19.8150  -15.5180  -20.7640 C.2   255  TYR255      0.2596
    172  O         18.8070  -15.9410  -21.3410 O.2   255  TYR255     -0.2718
    173  CB        19.1520  -13.1080  -20.5960 C.3   255  TYR255      0.0548
    174  CG        18.8600  -11.9560  -19.6630 C.ar  255  TYR255     -0.0200
    175  CD1       17.7300  -11.9640  -18.8570 C.ar  255  TYR255     -0.0009
    176  CD2       19.7280  -10.8790  -19.5620 C.ar  255  TYR255     -0.0009
    177  CE1       17.4640  -10.9210  -17.9880 C.ar  255  TYR255      0.0417
    178  CE2       19.4690   -9.8320  -18.6970 C.ar  255  TYR255      0.0417
    179  CZ        18.3350   -9.8600  -17.9130 C.ar  255  TYR255      0.1957
    180  OH        18.0640   -8.8240  -17.0510 O.3   255  TYR255     -0.2866
    181  N         21.0120  -16.0790  -20.9310 N.am  256  CYS256     -0.1956
    182  CA        21.2120  -17.2920  -21.7320 C.3   256  CYS256      0.1843
    183  C         20.6630  -17.1560  -23.1540 C.2   256  CYS256      0.2625
    184  O         19.9510  -18.0310  -23.6490 O.2   256  CYS256     -0.2714
    185  CB        20.5730  -18.5050  -21.0490 C.3   256  CYS256      0.0997
    186  SG        21.2210  -18.9210  -19.4280 S.3   256  CYS256     -0.0797
    187  N         21.0030  -16.0620  -23.8350 N.am  257  PHE257     -0.1960
    188  CA        20.6290  -15.9650  -25.2410 C.3   257  PHE257      0.1771
    189  C         21.5910  -15.0520  -25.9860 C.2   257  PHE257      0.2619
    190  O         22.3100  -14.2440  -25.3940 O.2   257  PHE257     -0.2715
    191  CB        19.1770  -15.4860  -25.4220 C.3   257  PHE257      0.0574
    192  CG        18.9720  -14.0070  -25.2080 C.ar  257  PHE257     -0.0200
    193  CD1       18.6390  -13.5110  -23.9560 C.ar  257  PHE257     -0.0042
    194  CD2       19.0730  -13.1180  -26.2670 C.ar  257  PHE257     -0.0042
    195  CE1       18.4330  -12.1540  -23.7620 C.ar  257  PHE257     -0.0003
    196  CE2       18.8720  -11.7610  -26.0790 C.ar  257  PHE257     -0.0003
    197  CZ        18.5490  -11.2790  -24.8270 C.ar  257  PHE257     -0.0000
    198  N         21.5940  -15.2190  -27.3060 N.am  258  GLU258     -0.1963
    199  CA        22.4070  -14.4330  -28.2250 C.3   258  GLU258      0.1733
    200  C         21.5040  -13.4330  -28.9310 C.2   258  GLU258      0.2616
    201  O         20.4800  -13.8210  -29.5040 O.2   258  GLU258     -0.2715
    202  CB        23.0890  -15.3360  -29.2570 C.3   258  GLU258      0.0429
    203  CG        23.4950  -16.7170  -28.7420 C.3   258  GLU258      0.1163
    204  CD        24.7040  -16.6730  -27.8310 C.2   258  GLU258      0.3649
    205  OE1       24.9980  -17.7000  -27.1820 O.co2 258  GLU258     -0.2457
    206  OE2       25.3690  -15.6180  -27.7720 O.co2 258  GLU258     -0.2457
    207  N         21.8790  -12.1570  -28.8970 N.am  259  CYS259     -0.1954
    208  CA        21.0490  -11.1070  -29.4750 C.3   259  CYS259      0.1843
    209  C         21.3580  -10.9700  -30.9600 C.2   259  CYS259      0.2625
    210  O         22.4970  -10.6750  -31.3410 O.2   259  CYS259     -0.2714
    211  CB        21.2640   -9.7730  -28.7670 C.3   259  CYS259      0.0997
    212  SG        20.0880   -8.5030  -29.3020 S.3   259  CYS259     -0.0797
    213  N         20.3420  -11.1900  -31.7890 N.am  260  ASP260     -0.1971
    214  CA        20.4320  -11.0450  -33.2340 C.3   260  ASP260      0.1709
    215  C         19.9800   -9.6710  -33.7190 C.2   260  ASP260      0.2293
    216  O         19.8670   -9.4670  -34.9300 O.2   260  ASP260     -0.2864
    217  CB        19.6180  -12.1440  -33.9280 C.3   260  ASP260      0.1436
    218  CG        18.1330  -12.0520  -33.6310 C.2   260  ASP260      0.3671
    219  OD1       17.7470  -11.2940  -32.7160 O.co2 260  ASP260     -0.2456
    220  OD2       17.3500  -12.7520  -34.3080 O.co2 260  ASP260     -0.2456
@<TRIPOS>BOND
     1   216   215    2
     2   220   218   ar
     3     8     6   am
     4   217   218    1
     5   217   214    1
     6   215   214    1
     7   218   219   ar
     8   214   213    1
     9     6     7    2
    10     6     5    1
    11     5     2    1
    12     1     2    1
    13   213   209   am
    14    19    17    1
    15   210   209    2
    16     2     3    1
    17   209   208    1
    18    17    16    2
    19    17    18    1
    20    16    15    1
    21     3     9   am
    22     3     4    2
    23   201   200    2
    24   208   207    1
    25   208   211    1
    26    15    14    1
    27     9    10    1
    28   212   211    1
    29   202   203    1
    30   202   199    1
    31    14    13    1
    32   200   207   am
    33   200   199    1
    34   203   204    1
    35    13    10    1
    36   199   198    1
    37    10    11    1
    38   204   206   ar
    39   204   205   ar
    40   142   141    2
    41   198   189   am
    42    20    11   am
    43    20    21    1
    44    23    22    2
    45    11    12    2
    46   141   140    1
    47   138   136   am
    48   194   196   ar
    49   194   192   ar
    50   196   197   ar
    51   189   190    2
    52   189   188    1
    53   146   148   ar
    54   146   144   ar
    55   135   136    1
    56   135   132    1
    57   148   147   ar
    58    21    22    1
    59    22    24   am
    60   136   137    2
    61   191   188    1
    62   191   192    1
    63    69    68    1
    64   188   187    1
    65   192   193   ar
    66   140   139    1
    67   140   143    1
    68   134   133    2
    69   139   133   am
    70   144   143    1
    71   144   145   ar
    72   133   132    1
    73   147   145   ar
    74   197   195   ar
    75    68    67    1
    76    26    25    1
    77    26    27    2
    78    24    25    1
    79   132   131    1
    80    25    28    1
    81   149   150    1
    82   152   151    2
    83   131   125   am
    84    30    29    2
    85   193   195   ar
    86   187   183   am
    87   151   150    1
    88   150   153    1
    89   184   183    2
    90    67    66    1
    91    28    29    1
    92   183   182    1
    93    29    31   am
    94   130   128    1
    95   118   117    2
    96   125   124    1
    97   125   126    2
    98    66    65    1
    99   124   127    1
   100   124   123    1
   101   153   155    1
   102   153   154    1
   103   127   128    1
   104   168   167    1
   105   117   123   am
   106   117   116    1
   107   128   129    1
   108   157   158    1
   109   182   185    1
   110   182   181    1
   111   154   156    1
   112   167   165   ar
   113   167   166   ar
   114    65    62    1
   115   165   163   ar
   116   166   164   ar
   117   172   171    2
   118   163   162   ar
   119    51    50   ar
   120   185   186    1
   121   164   162   ar
   122   119   116    1
   123   119   120    1
   124   122   120    1
   125   181   171   am
   126   162   161    1
   127    62    61    1
   128    62    63    1
   129    59    58    2
   130   171   170    1
   131   116   115    1
   132   121   120    1
   133   173   170    1
   134   173   174    1
   135   161   158    1
   136   158   159    1
   137    64    63    2
   138    50    52   ar
   139    50    49    1
   140   159   160    2
   141   170   169    1
   142    58    60   am
   143    58    57    1
   144   174   176   ar
   145   174   175   ar
   146   176   178   ar
   147    43    42    1
   148    49    48    1
   149   112   111    2
   150   115   111   am
   151    40    42   ar
   152    40    38   ar
   153    42    41   ar
   154   175   177   ar
   155    57    54    1
   156   111   110    1
   157    48    45    1
   158   178   179   ar
   159   104   103    2
   160    54    55    1
   161    54    53    1
   162    56    55    2
   163    38    37   ar
   164    41    39   ar
   165   177   179   ar
   166   179   180    1
   167   103   102    1
   168   103   109   am
   169    37    39   ar
   170    37    36    1
   171    45    44    1
   172    45    46    1
   173   110   109    1
   174   110   113    1
   175    75    74    1
   176   107   105    1
   177   102   101    1
   178   102   105    1
   179    36    33    1
   180   108   106    1
   181    46    47    2
   182   113   114    1
   183   105   106    1
   184    32    33    1
   185    33    34    1
   186    73    72    2
   187    98   100   ar
   188    98    96   ar
   189   100    99   ar
   190    74    71    1
   191    82    81    2
   192    72    71    1
   193    72    76   am
   194    71    70    1
   195    96    95   ar
   196    81    83   am
   197    81    80    1
   198    99    97   ar
   199    34    35    2
   200    76    77    1
   201    77    80    1
   202    77    78    1
   203    95    97   ar
   204    95    94    1
   205    87    86    2
   206    78    79    2
   207    78    84   am
   208    84    85    1
   209    94    91    1
   210    86    90   am
   211    86    85    1
   212    91    90    1
   213    91    92    1
   214    85    88    1
   215    92    93    2
   216    88    89    1
