@<TRIPOS>MOLECULE
tmp/5hibA00.pdb
 152 140 0 0 0
SMALL
GASTEIGER

@<TRIPOS>ATOM
      1  N        -46.5590    3.9750  -19.2630 N.3    23  LEU23      -0.1231
      2  CA       -47.3570    2.9380  -18.6080 C.3    23  LEU23       0.1693
      3  C        -46.6110    1.6050  -18.6960 C.2    23  LEU23       0.2592
      4  O        -46.5290    0.8840  -17.7020 O.2    23  LEU23      -0.2718
      5  CB       -48.7630    2.8190  -19.2200 C.3    23  LEU23       0.0284
      6  CG       -49.6660    4.0330  -19.0660 C.3    23  LEU23       0.0019
      7  CD1      -50.7320    4.0660  -20.1620 C.3    23  LEU23       0.0001
      8  CD2      -50.2530    4.1100  -17.6760 C.3    23  LEU23       0.0001
      9  N        -46.0590    1.3140  -19.8740 N.am   24  GLY24      -0.1957
     10  CA       -45.2950    0.1030  -20.1370 C.3    24  GLY24       0.1869
     11  C        -44.4390    0.1700  -21.3840 C.2    24  GLY24       0.2309
     12  O        -44.6040    1.0630  -22.2160 O.2    24  GLY24      -0.2863
     13  N        -43.8660   -4.7890  -28.1070 N.3    28  PHE28      -0.1241
     14  CA       -44.9020   -3.9670  -28.7430 C.3    28  PHE28       0.1605
     15  C        -44.3970   -2.5440  -28.9940 C.2    28  PHE28       0.2264
     16  O        -44.7510   -1.9380  -30.0040 O.2    28  PHE28      -0.2867
     17  CB       -46.1740   -3.9270  -27.8800 C.3    28  PHE28       0.0534
     18  CG       -45.9660   -3.5690  -26.4230 C.ar   28  PHE28      -0.0203
     19  CD1      -45.6150   -4.5430  -25.4910 C.ar   28  PHE28      -0.0042
     20  CD2      -46.1640   -2.2690  -25.9740 C.ar   28  PHE28      -0.0042
     21  CE1      -45.4250   -4.2130  -24.1460 C.ar   28  PHE28      -0.0003
     22  CE2      -45.9860   -1.9430  -24.6240 C.ar   28  PHE28      -0.0003
     23  CZ       -45.6140   -2.9160  -23.7210 C.ar   28  PHE28      -0.0000
     24  N        -45.8450    2.3860  -24.4210 N.3    31  VAL31      -0.1245
     25  CA       -47.1690    2.9790  -24.2620 C.3    31  VAL31       0.1561
     26  C        -47.1120    4.0510  -23.1620 C.2    31  VAL31       0.2260
     27  O        -46.6810    3.7660  -22.0400 O.2    31  VAL31      -0.2867
     28  CB       -48.3040    1.9280  -24.0500 C.3    31  VAL31       0.0252
     29  CG1      -49.6710    2.6000  -23.9200 C.3    31  VAL31       0.0019
     30  CG2      -48.3280    0.9060  -25.1880 C.3    31  VAL31       0.0019
     31  N        -54.0260    6.8250  -24.3940 N.3    48  ALA48      -0.1245
     32  CA       -52.8780    5.9310  -24.3710 C.3    48  ALA48       0.1562
     33  C        -52.1840    6.1510  -25.7200 C.2    48  ALA48       0.2260
     34  O        -52.8110    6.0020  -26.7820 O.2    48  ALA48      -0.2867
     35  CB       -53.3240    4.4920  -24.2320 C.3    48  ALA48       0.0290
     36  N        -49.2150    4.9660  -28.1400 N.3    50  LYS50      -0.1245
     37  CA       -48.3560    3.8200  -28.4660 C.3    50  LYS50       0.1561
     38  C        -47.3940    4.1410  -29.6180 C.2    50  LYS50       0.2260
     39  O        -47.8210    4.6560  -30.6500 O.2    50  LYS50      -0.2867
     40  CB       -49.2440    2.6150  -28.8270 C.3    50  LYS50       0.0271
     41  CG       -48.5400    1.2750  -29.0360 C.3    50  LYS50       0.0035
     42  CD       -49.5620    0.2610  -29.5380 C.3    50  LYS50       0.0206
     43  CE       -48.9710   -1.0900  -29.8140 C.3    50  LYS50       0.1093
     44  NZ       -50.0250   -2.1350  -29.8830 N.3    50  LYS50      -0.1314
     45  N        -52.3600   -1.7210  -37.8300 N.3    67  GLU67      -0.1245
     46  CA       -53.0500   -1.7710  -36.5490 C.3    67  GLU67       0.1567
     47  C        -54.0350   -0.6330  -36.4520 C.2    67  GLU67       0.2260
     48  O        -55.1020   -0.8280  -35.8800 O.2    67  GLU67      -0.2867
     49  CB       -52.0430   -1.6940  -35.4010 C.3    67  GLU67       0.0388
     50  CG       -52.5460   -2.2940  -34.1080 C.3    67  GLU67       0.1160
     51  CD       -51.5490   -2.1960  -32.9770 C.2    67  GLU67       0.3649
     52  OE1      -50.3660   -2.5490  -33.1920 O.co2  67  GLU67      -0.2457
     53  OE2      -51.9550   -1.7730  -31.8700 O.co2  67  GLU67      -0.2457
     54  N        -58.2030   -0.9660  -36.0810 N.3    71  MET71      -0.1245
     55  CA       -58.7820   -0.2320  -34.9670 C.3    71  MET71       0.1570
     56  C        -59.7560    0.8690  -35.3580 C.2    71  MET71       0.2261
     57  O        -60.7590    1.0420  -34.6680 O.2    71  MET71      -0.2867
     58  CB       -57.6820    0.3230  -34.0820 C.3    71  MET71       0.0387
     59  CG       -57.7690   -0.1510  -32.6620 C.3    71  MET71       0.0595
     60  SD       -56.3550    0.4710  -31.7370 S.3    71  MET71      -0.1393
     61  CE       -55.2550   -0.9750  -31.8330 C.3    71  MET71       0.0692
     62  N        -61.5340   -1.5790  -27.6890 N.3    80  CYS80      -0.1235
     63  CA       -60.8080   -0.3230  -27.5520 C.3    80  CYS80       0.1677
     64  C        -60.9360    0.5770  -28.7750 C.2    80  CYS80       0.2270
     65  O        -60.8720    0.1060  -29.9030 O.2    80  CYS80      -0.2867
     66  CB       -59.3520   -0.5600  -27.1760 C.3    80  CYS80       0.0956
     67  SG       -58.5700    0.8630  -26.3690 S.3    80  CYS80      -0.0801
     68  N        -55.0310    5.9120  -28.7170 N.3    95  MET95      -0.1230
     69  CA       -56.1840    5.1210  -28.3130 C.3    95  MET95       0.1702
     70  C        -56.7030    5.5900  -26.9660 C.2    95  MET95       0.2592
     71  O        -56.0240    6.3550  -26.2860 O.2    95  MET95      -0.2718
     72  CB       -55.8580    3.6100  -28.3230 C.3    95  MET95       0.0401
     73  CG       -54.4870    3.2890  -27.7600 C.3    95  MET95       0.0596
     74  SD       -53.6490    1.8410  -28.4390 S.3    95  MET95      -0.1393
     75  CE       -53.8520    2.1330  -30.0900 C.3    95  MET95       0.0692
     76  N        -57.9350    5.1760  -26.6160 N.am   96  GLN96      -0.1966
     77  CA       -58.6060    5.5110  -25.3580 C.3    96  GLN96       0.1733
     78  C        -57.8460    4.8860  -24.1820 C.2    96  GLN96       0.2616
     79  O        -57.5160    3.7030  -24.2330 O.2    96  GLN96      -0.2715
     80  CB       -60.0590    5.0220  -25.4070 C.3    96  GLN96       0.0408
     81  CG       -60.7890    5.0150  -24.0670 C.3    96  GLN96       0.0908
     82  CD       -62.1590    4.3930  -24.1360 C.2    96  GLN96       0.2608
     83  OE1      -62.4330    3.4710  -24.9210 O.2    96  GLN96      -0.2717
     84  NE2      -63.0420    4.8700  -23.2790 N.am   96  GLN96      -0.0878
     85  N        -57.5510    5.6830  -23.1420 N.am   97  LEU97      -0.1963
     86  CA       -56.8530    5.1910  -21.9620 C.3    97  LEU97       0.1728
     87  C        -57.7340    4.2460  -21.1590 C.2    97  LEU97       0.2616
     88  O        -58.8880    4.5690  -20.8870 O.2    97  LEU97      -0.2715
     89  CB       -56.3770    6.3610  -21.0810 C.3    97  LEU97       0.0311
     90  CG       -55.6880    6.0060  -19.7540 C.3    97  LEU97       0.0022
     91  CD1      -54.3410    5.3530  -19.9810 C.3    97  LEU97       0.0001
     92  CD2      -55.5480    7.2260  -18.8750 C.3    97  LEU97       0.0001
     93  N        -57.1710    3.0790  -20.7870 N.am   98  MET98      -0.1977
     94  CA       -57.7810    2.0450  -19.9380 C.3    98  MET98       0.1605
     95  C        -57.0290    2.1810  -18.6040 C.2    98  MET98       0.2287
     96  O        -55.9230    1.6580  -18.4680 O.2    98  MET98      -0.2864
     97  CB       -57.6090    0.6740  -20.5890 C.3    98  MET98       0.0413
     98  CG       -58.1900    0.6150  -22.0120 C.3    98  MET98       0.0598
     99  SD       -59.9750    0.9150  -22.1020 S.3    98  MET98      -0.1393
    100  CE       -60.5390   -0.5830  -21.4210 C.3    98  MET98       0.0692
    101  N        -55.2310   -0.7300  -16.2280 N.3   101  GLY101     -0.1210
    102  CA       -54.3330   -1.6710  -16.8810 C.3   101  GLY101      0.1956
    103  C        -55.0170   -2.9190  -17.3880 C.2   101  GLY101      0.2612
    104  O        -56.2400   -2.9290  -17.5740 O.2   101  GLY101     -0.2717
    105  N        -54.2250   -3.9830  -17.6270 N.am  102  CYS102     -0.1970
    106  CA       -54.7310   -5.2630  -18.1230 C.3   102  CYS102      0.1712
    107  C        -55.4290   -6.0700  -17.0320 C.2   102  CYS102      0.2296
    108  O        -55.1170   -5.9140  -15.8460 O.2   102  CYS102     -0.2864
    109  CB       -53.6260   -6.0670  -18.7990 C.3   102  CYS102      0.0983
    110  SG       -52.4530   -6.8190  -17.6510 S.3   102  CYS102     -0.0798
    111  N        -54.1080  -10.6270  -20.8360 N.3   146  ARG146     -0.1231
    112  CA       -53.1600   -9.5120  -20.9310 C.3   146  ARG146      0.1694
    113  C        -53.6620   -8.4670  -21.9480 C.2   146  ARG146      0.2592
    114  O        -53.2480   -7.3090  -21.8800 O.2   146  ARG146     -0.2718
    115  CB       -51.7350  -10.0000  -21.3070 C.3   146  ARG146      0.0321
    116  CG       -51.6280  -10.6100  -22.7020 C.3   146  ARG146      0.0489
    117  CD       -50.2450  -11.0860  -23.1090 C.3   146  ARG146      0.2205
    118  NE       -50.3250  -11.7460  -24.4170 N.pl3 146  ARG146     -0.0865
    119  CZ       -50.4940  -13.0560  -24.5950 C.cat 146  ARG146      0.5346
    120  NH1      -50.5300  -13.8780  -23.5520 N.pl3 146  ARG146      0.1354
    121  NH2      -50.6000  -13.5560  -25.8180 N.pl3 146  ARG146      0.1354
    122  N        -54.5320   -8.8890  -22.8930 N.am  147  ASN147     -0.1974
    123  CA       -55.0900   -8.0550  -23.9620 C.3   147  ASN147      0.1688
    124  C        -56.5450   -7.6170  -23.7020 C.2   147  ASN147      0.2292
    125  O        -57.1980   -7.0480  -24.5810 O.2   147  ASN147     -0.2864
    126  CB       -54.9240   -8.7380  -25.3240 C.3   147  ASN147      0.1181
    127  CG       -53.4780   -8.8510  -25.7440 C.2   147  ASN147      0.2629
    128  OD1      -52.6400   -7.9750  -25.4920 O.2   147  ASN147     -0.2716
    129  ND2      -53.1390   -9.9500  -26.3700 N.am  147  ASN147     -0.0877
    130  N        -58.2040   -5.1010  -21.3200 N.3   149  LEU149     -0.1245
    131  CA       -57.8770   -3.9890  -20.4350 C.3   149  LEU149      0.1561
    132  C        -59.1070   -3.4500  -19.6950 C.2   149  LEU149      0.2260
    133  O        -60.2390   -3.6930  -20.1130 O.2   149  LEU149     -0.2867
    134  CB       -57.1070   -2.8980  -21.1980 C.3   149  LEU149      0.0270
    135  CG       -55.5710   -2.9510  -21.0890 C.3   149  LEU149      0.0019
    136  CD1      -54.9770   -4.2230  -21.6880 C.3   149  LEU149      0.0001
    137  CD2      -54.9760   -1.8210  -21.7940 C.3   149  LEU149      0.0001
    138  N        -58.2990   -5.2290  -26.4720 N.3   159  THR159     -0.1203
    139  CA       -57.2080   -4.3840  -26.9690 C.3   159  THR159      0.1994
    140  C        -56.1800   -5.2260  -27.7160 C.2   159  THR159      0.2617
    141  O        -56.3100   -6.4480  -27.7610 O.2   159  THR159     -0.2717
    142  CB       -56.5130   -3.6170  -25.7960 C.3   159  THR159      0.1784
    143  OG1      -55.7970   -4.5410  -24.9760 O.3   159  THR159     -0.2211
    144  CG2      -57.4670   -2.7790  -24.9520 C.3   159  THR159      0.0376
    145  N        -55.1300   -4.5580  -28.2460 N.am  160  ASP160     -0.1973
    146  CA       -53.9770   -5.0930  -28.9800 C.3   160  ASP160      0.1709
    147  C        -54.3930   -5.8600  -30.2280 C.2   160  ASP160      0.2293
    148  O        -54.6440   -7.0630  -30.1820 O.2   160  ASP160     -0.2864
    149  CB       -53.0270   -5.9000  -28.0770 C.3   160  ASP160      0.1436
    150  CG       -51.7450   -6.3600  -28.7430 C.2   160  ASP160      0.3671
    151  OD1      -51.2240   -5.6210  -29.6090 O.co2 160  ASP160     -0.2456
    152  OD2      -51.2480   -7.4440  -28.3820 O.co2 160  ASP160     -0.2456
@<TRIPOS>BOND
     1    45    46    1
     2    46    47    1
     3    46    49    1
     4    47    48    2
     5    54    55    1
     6    49    50    1
     7    56    55    1
     8    56    57    2
     9    55    58    1
    10    50    51    1
    11    58    59    1
    12    52    51   ar
    13    51    53   ar
    14    59    60    1
    15    61    60    1
    16    39    38    2
    17   147   148    2
    18   147   146    1
    19    75    74    1
    20    16    15    2
    21    65    64    2
    22    44    43    1
    23    43    42    1
    24    38    37    1
    25   151   150   ar
    26    42    41    1
    27    41    40    1
    28    15    14    1
    29   146   145    1
    30   146   149    1
    31    40    37    1
    32    64    63    1
    33    14    13    1
    34    14    17    1
    35   150   152   ar
    36   150   149    1
    37    68    69    1
    38    37    36    1
    39    74    73    1
    40    72    69    1
    41    72    73    1
    42    69    70    1
    43   145   140   am
    44    17    18    1
    45   141   140    2
    46   140   139    1
    47    62    63    1
    48    63    66    1
    49    66    67    1
    50   139   138    1
    51   139   142    1
    52    70    76   am
    53    70    71    2
    54    34    33    2
    55    76    77    1
    56    18    20   ar
    57    18    19   ar
    58   129   127   am
    59    20    22   ar
    60   121   119    1
    61   142   143    1
    62   142   144    1
    63   127   128    2
    64   127   126    1
    65    33    32    1
    66    19    21   ar
    67    80    77    1
    68    80    81    1
    69    77    78    1
    70   126   123    1
    71    30    28    1
    72    83    82    2
    73    22    23   ar
    74   119   118    2
    75   119   120    1
    76   125   124    2
    77    24    25    1
    78   118   117    1
    79    31    32    1
    80    32    35    1
    81    25    28    1
    82    25    26    1
    83    79    78    2
    84    78    85   am
    85    21    23   ar
    86    82    81    1
    87    82    84   am
    88    28    29    1
    89   123   124    1
    90   123   122    1
    91    26    27    2
    92    85    86    1
    93   117   116    1
    94   122   113   am
    95   116   115    1
    96    12    11    2
    97    99    98    1
    98    99   100    1
    99    98    97    1
   100    86    87    1
   101    86    89    1
   102   113   114    2
   103   113   112    1
   104   137   135    1
   105   136   135    1
   106    11    10    1
   107   130   131    1
   108   115   112    1
   109   134   135    1
   110   134   131    1
   111    87    88    2
   112    87    93   am
   113    89    90    1
   114   112   111    1
   115    93    94    1
   116    97    94    1
   117   131   132    1
   118     7     6    1
   119    10     9    1
   120   133   132    2
   121    91    90    1
   122    94    95    1
   123     9     3   am
   124    90    92    1
   125     1     2    1
   126     5     6    1
   127     5     2    1
   128     6     8    1
   129   109   106    1
   130   109   110    1
   131     3     2    1
   132     3     4    2
   133    95    96    2
   134   106   105    1
   135   106   107    1
   136   105   103   am
   137   104   103    2
   138   103   102    1
   139   107   108    2
   140   102   101    1
