@<TRIPOS>MOLECULE
tmp/5hifB00.pdb
 115 111 0 0 0
SMALL
GASTEIGER

@<TRIPOS>ATOM
      1  N         32.7290   94.4420   34.1100 N.3    37  VAL37      -0.1245
      2  CA        34.0460   93.7660   33.9990 C.3    37  VAL37       0.1561
      3  C         33.8060   92.3120   33.5900 C.2    37  VAL37       0.2260
      4  O         32.8650   91.6910   34.0420 O.2    37  VAL37      -0.2867
      5  CB        34.8550   93.8320   35.3290 C.3    37  VAL37       0.0252
      6  CG1       34.1590   93.1250   36.4470 C.3    37  VAL37       0.0019
      7  CG2       36.2740   93.3650   35.1250 C.3    37  VAL37       0.0019
      8  N         34.1980   88.4440   33.6000 N.3    39  LEU39      -0.1245
      9  CA        34.5600   87.4470   34.6070 C.3    39  LEU39       0.1561
     10  C         34.6500   86.1010   33.9970 C.2    39  LEU39       0.2260
     11  O         33.7550   85.7010   33.3050 O.2    39  LEU39      -0.2867
     12  CB        33.5310   87.4170   35.7510 C.3    39  LEU39       0.0270
     13  CG        33.4070   88.6010   36.6890 C.3    39  LEU39       0.0019
     14  CD1       32.3830   88.2760   37.7140 C.3    39  LEU39       0.0001
     15  CD2       34.7760   88.8530   37.3230 C.3    39  LEU39       0.0001
     16  N         30.1140   91.5230   33.4580 N.3    67  THR67      -0.1218
     17  CA        29.3550   91.5410   34.7070 C.3    67  THR67       0.1862
     18  C         29.2960   92.9860   35.2330 C.2    67  THR67       0.2287
     19  O         30.3220   93.6630   35.3050 O.2    67  THR67      -0.2866
     20  CB        30.0680   90.6550   35.7350 C.3    67  THR67       0.1770
     21  OG1       30.1430   89.3370   35.2030 O.3    67  THR67      -0.2211
     22  CG2       29.2770   90.5920   37.0500 C.3    67  THR67       0.0375
     23  N         28.7780   96.0210   37.9020 N.3    69  VAL69      -0.1245
     24  CA        29.1320   96.4130   39.2800 C.3    69  VAL69       0.1561
     25  C         28.2820   97.6080   39.6590 C.2    69  VAL69       0.2260
     26  O         28.4950   98.7150   39.0640 O.2    69  VAL69      -0.2867
     27  CB        30.6420   96.7290   39.4300 C.3    69  VAL69       0.0252
     28  CG1       30.9300   97.2000   40.8680 C.3    69  VAL69       0.0019
     29  CG2       31.4580   95.5640   39.0500 C.3    69  VAL69       0.0019
     30  N         40.2570   97.3520   40.4970 N.3    91  PHE91      -0.1241
     31  CA        39.9160   96.1140   39.7970 C.3    91  PHE91       0.1605
     32  C         39.8960   96.3320   38.2800 C.2    91  PHE91       0.2264
     33  O         38.9370   95.9550   37.5800 O.2    91  PHE91      -0.2867
     34  CB        38.5750   95.5260   40.3660 C.3    91  PHE91       0.0534
     35  CG        38.4320   94.0250   40.1970 C.ar   91  PHE91      -0.0203
     36  CD1       39.2570   93.1270   40.9250 C.ar   91  PHE91      -0.0042
     37  CD2       37.4830   93.4750   39.2800 C.ar   91  PHE91      -0.0042
     38  CE1       39.1220   91.7400   40.7330 C.ar   91  PHE91      -0.0003
     39  CE2       37.3590   92.1000   39.1060 C.ar   91  PHE91      -0.0003
     40  CZ        38.1780   91.2390   39.8270 C.ar   91  PHE91      -0.0000
     41  N         34.8630   93.9840   49.8820 N.3   121  HIS121     -0.1227
     42  CA        35.5630   93.6390   48.6750 C.3   121  HIS121      0.1737
     43  C         35.8900   94.9250   47.8260 C.2   121  HIS121      0.2438
     44  O         35.1820   95.9570   47.9550 O.2   121  HIS121     -0.2733
     45  CB        34.7150   92.6440   47.8590 C.3   121  HIS121      0.0758
     46  CG        34.7970   91.2410   48.3380 C.ar  121  HIS121      0.0818
     47  ND1       33.9820   90.2340   47.8670 N.ar  121  HIS121     -0.2268
     48  CD2       35.6630   90.6490   49.2000 C.ar  121  HIS121      0.1154
     49  CE1       34.3290   89.0790   48.4320 C.ar  121  HIS121      0.1986
     50  NE2       35.3420   89.3130   49.2450 N.ar  121  HIS121     -0.2212
     51  N         36.9490   94.8330   47.0030 N.am  122  PRO122     -0.2718
     52  CA        37.4950   96.0610   46.3950 C.3   122  PRO122      0.1535
     53  C         36.4940   96.7770   45.5100 C.2   122  PRO122      0.2598
     54  O         36.5220   97.9860   45.4010 O.2   122  PRO122     -0.2715
     55  CB        38.6460   95.5630   45.5770 C.3   122  PRO122      0.0310
     56  CG        38.4240   94.1360   45.3700 C.3   122  PRO122      0.0237
     57  CD        37.7510   93.6690   46.6580 C.3   122  PRO122      0.0939
     58  N         35.6440   95.9720   44.8680 N.am  123  ASP123     -0.1972
     59  CA        34.5850   96.5280   43.9900 C.3   123  ASP123      0.1709
     60  C         33.4080   97.1290   44.6960 C.2   123  ASP123      0.2293
     61  O         32.4480   97.5800   44.0610 O.2   123  ASP123     -0.2864
     62  CB        34.1500   95.4840   42.9540 C.3   123  ASP123      0.1436
     63  CG        33.6400   94.2010   43.5900 C.2   123  ASP123      0.3671
     64  OD1       34.3270   93.7010   44.4880 O.co2 123  ASP123     -0.2456
     65  OD2       32.5350   93.6950   43.2000 O.co2 123  ASP123     -0.2456
     66  N         43.1250   92.2580   48.5210 N.3   167  PHE167     -0.1241
     67  CA        41.7820   92.5530   49.0420 C.3   167  PHE167      0.1605
     68  C         41.8500   93.2410   50.4160 C.2   167  PHE167      0.2264
     69  O         41.1330   94.2150   50.7020 O.2   167  PHE167     -0.2867
     70  CB        40.9400   91.2760   49.0030 C.3   167  PHE167      0.0534
     71  CG        41.0350   90.5770   47.6530 C.ar  167  PHE167     -0.0203
     72  CD1       40.7060   91.2640   46.4880 C.ar  167  PHE167     -0.0042
     73  CD2       41.5800   89.2720   47.5270 C.ar  167  PHE167     -0.0042
     74  CE1       40.8570   90.6880   45.2400 C.ar  167  PHE167     -0.0003
     75  CE2       41.7190   88.6760   46.2660 C.ar  167  PHE167     -0.0003
     76  CZ        41.3610   89.3950   45.1200 C.ar  167  PHE167     -0.0000
     77  N         26.3730   91.0660   47.2800 N.3   226  ASP226     -0.1239
     78  CA        26.8770   89.9670   46.4970 C.3   226  ASP226      0.1674
     79  C         26.3080   88.6290   46.9000 C.2   226  ASP226      0.2266
     80  O         26.9800   87.5740   46.8460 O.2   226  ASP226     -0.2867
     81  CB        28.4220   89.9360   46.5530 C.3   226  ASP226      0.1410
     82  CG        29.0680   91.0020   45.7020 C.2   226  ASP226      0.3668
     83  OD1       28.3430   91.9310   45.2540 O.co2 226  ASP226     -0.2456
     84  OD2       30.3720   90.8980   45.5610 O.co2 226  ASP226     -0.2456
     85  N         26.1760   86.3450   41.8330 N.3   229  HIS229     -0.1241
     86  CA        27.1200   86.8480   40.8650 C.3   229  HIS229      0.1621
     87  C         26.7760   86.5280   39.4100 C.2   229  HIS229      0.2264
     88  O         27.2200   87.2920   38.5200 O.2   229  HIS229     -0.2867
     89  CB        28.5150   86.3550   41.0890 C.3   229  HIS229      0.0745
     90  CG        29.1630   86.8590   42.3430 C.ar  229  HIS229      0.0817
     91  ND1       28.8170   86.3890   43.5980 N.ar  229  HIS229     -0.2268
     92  CD2       30.1930   87.7200   42.5210 C.ar  229  HIS229      0.1154
     93  CE1       29.5770   86.9760   44.4960 C.ar  229  HIS229      0.1986
     94  NE2       30.3950   87.8310   43.8830 N.ar  229  HIS229     -0.2212
     95  N         34.8170   83.6170   45.1390 N.3   244  PHE244     -0.1241
     96  CA        34.9110   84.8780   45.8550 C.3   244  PHE244      0.1605
     97  C         34.2530   84.7660   47.2490 C.2   244  PHE244      0.2264
     98  O         34.4230   85.6690   48.0610 O.2   244  PHE244     -0.2867
     99  CB        34.1530   85.9510   45.0470 C.3   244  PHE244      0.0534
    100  CG        34.7000   86.2730   43.6770 C.ar  244  PHE244     -0.0203
    101  CD1       36.0500   86.2870   43.4540 C.ar  244  PHE244     -0.0042
    102  CD2       33.8270   86.5650   42.6330 C.ar  244  PHE244     -0.0042
    103  CE1       36.5660   86.6670   42.2200 C.ar  244  PHE244     -0.0003
    104  CE2       34.3340   86.9140   41.3970 C.ar  244  PHE244     -0.0003
    105  CZ        35.7260   86.9210   41.1940 C.ar  244  PHE244     -0.0000
    106  N         25.8130   92.6890   41.2580 N.3   273  HIS273     -0.1241
    107  CA        26.3050   92.0260   40.0790 C.3   273  HIS273      0.1621
    108  C         25.2310   91.5010   39.1700 C.2   273  HIS273      0.2264
    109  O         25.5000   90.6440   38.3200 O.2   273  HIS273     -0.2867
    110  CB        27.3880   90.9890   40.4450 C.3   273  HIS273      0.0745
    111  CG        28.5330   91.5980   41.2040 C.ar  273  HIS273      0.0817
    112  ND1       29.2330   92.6820   40.7420 N.ar  273  HIS273     -0.2268
    113  CD2       29.0960   91.2560   42.3770 C.ar  273  HIS273      0.1154
    114  CE1       30.1940   93.0060   41.6230 C.ar  273  HIS273      0.1986
    115  NE2       30.1210   92.1410   42.6190 N.ar  273  HIS273     -0.2212
@<TRIPOS>BOND
     1    11    10    2
     2    16    17    1
     3     3     2    1
     4     3     4    2
     5     8     9    1
     6    10     9    1
     7     2     1    1
     8     2     5    1
     9     9    12    1
    10    17    18    1
    11    17    20    1
    12     7     5    1
    13    21    20    1
    14    18    19    2
    15     5     6    1
    16    20    22    1
    17    12    13    1
    18    13    15    1
    19    13    14    1
    20    33    32    2
    21    23    24    1
    22    32    31    1
    23   109   108    2
    24    88    87    2
    25    29    27    1
    26    26    25    2
    27    39    37   ar
    28    39    40   ar
    29   108   107    1
    30    24    27    1
    31    24    25    1
    32    37    35   ar
    33    87    86    1
    34    27    28    1
    35    31    34    1
    36    31    30    1
    37    40    38   ar
    38   107   110    1
    39   107   106    1
    40    35    34    1
    41    35    36   ar
    42   110   111    1
    43    38    36   ar
    44   112   111   ar
    45   112   114   ar
    46    86    89    1
    47    86    85    1
    48    89    90    1
    49   105   104   ar
    50   105   103   ar
    51   111   113   ar
    52   104   102   ar
    53   114   115   ar
    54   103   101   ar
    55    90    92   ar
    56    90    91   ar
    57   113   115   ar
    58    92    94   ar
    59   102   100   ar
    60    62    63    1
    61    62    59    1
    62    65    63   ar
    63   101   100   ar
    64    63    64   ar
    65    91    93   ar
    66   100    99    1
    67    94    93   ar
    68    59    60    1
    69    59    58    1
    70    61    60    2
    71    58    53   am
    72    99    96    1
    73    76    74   ar
    74    76    75   ar
    75    95    96    1
    76    74    72   ar
    77    83    82   ar
    78    56    55    1
    79    56    57    1
    80    54    53    2
    81    53    52    1
    82    84    82   ar
    83    55    52    1
    84    82    81    1
    85    96    97    1
    86    75    73   ar
    87    52    51    1
    88    72    71   ar
    89    78    81    1
    90    78    79    1
    91    78    77    1
    92    57    51    1
    93    80    79    2
    94    51    43   am
    95    97    98    2
    96    73    71   ar
    97    71    70    1
    98    43    44    2
    99    43    42    1
   100    45    46    1
   101    45    42    1
   102    47    46   ar
   103    47    49   ar
   104    46    48   ar
   105    49    50   ar
   106    66    67    1
   107    42    41    1
   108    70    67    1
   109    67    68    1
   110    48    50   ar
   111    68    69    2
