@<TRIPOS>MOLECULE
tmp/5himA01.pdb
 104 101 0 0 0
SMALL
GASTEIGER

@<TRIPOS>ATOM
      1  N          2.7900  -18.5480  -33.4450 N.3    11  PHE11      -0.1241
      2  CA         1.5780  -19.3190  -33.1730 C.3    11  PHE11       0.1605
      3  C          0.3730  -18.4320  -32.8340 C.2    11  PHE11       0.2264
      4  O         -0.7030  -18.6120  -33.3950 O.2    11  PHE11      -0.2867
      5  CB         1.8210  -20.3080  -32.0300 C.3    11  PHE11       0.0534
      6  CG         0.5720  -21.0070  -31.5490 C.ar   11  PHE11      -0.0203
      7  CD1        0.0210  -22.0580  -32.2740 C.ar   11  PHE11      -0.0042
      8  CD2       -0.0540  -20.6080  -30.3710 C.ar   11  PHE11      -0.0042
      9  CE1       -1.1360  -22.7110  -31.8320 C.ar   11  PHE11      -0.0003
     10  CE2       -1.2030  -21.2490  -29.9250 C.ar   11  PHE11      -0.0003
     11  CZ        -1.7490  -22.3040  -30.6590 C.ar   11  PHE11      -0.0000
     12  N         -3.2040  -17.8570  -34.7670 N.3    15  TRP15      -0.1241
     13  CA        -4.4730  -18.0710  -34.0680 C.3    15  TRP15       0.1605
     14  C         -5.4100  -16.8700  -34.2790 C.2    15  TRP15       0.2264
     15  O         -6.5720  -17.0260  -34.6740 O.2    15  TRP15      -0.2867
     16  CB        -4.2320  -18.3190  -32.5570 C.3    15  TRP15       0.0550
     17  CG        -5.4600  -18.8320  -31.8460 C.ar   15  TRP15       0.0003
     18  CD1       -6.5450  -18.0870  -31.4340 C.ar   15  TRP15       0.0946
     19  CD2       -5.7500  -20.1940  -31.4820 C.ar   15  TRP15       0.0152
     20  NE1       -7.4850  -18.9050  -30.8520 N.ar   15  TRP15      -0.2442
     21  CE2       -7.0290  -20.2000  -30.8700 C.ar   15  TRP15       0.0810
     22  CE3       -5.0700  -21.4070  -31.6340 C.ar   15  TRP15       0.0012
     23  CZ2       -7.6270  -21.3660  -30.3950 C.ar   15  TRP15       0.0191
     24  CZ3       -5.6740  -22.5750  -31.1710 C.ar   15  TRP15       0.0001
     25  CH2       -6.9410  -22.5450  -30.5550 C.ar   15  TRP15       0.0015
     26  N         -7.5360  -19.6930  -20.8590 N.3   114  GLY114     -0.1210
     27  CA        -6.9410  -20.1600  -22.0880 C.3   114  GLY114      0.1956
     28  C         -5.9000  -21.2510  -21.8930 C.2   114  GLY114      0.2611
     29  O         -4.9970  -21.3850  -22.7240 O.2   114  GLY114     -0.2717
     30  N         -6.0290  -22.0260  -20.8120 N.am  115  ASN115     -0.1974
     31  CA        -5.1030  -23.1270  -20.5190 C.3   115  ASN115      0.1688
     32  C         -3.6840  -22.5900  -20.4370 C.2   115  ASN115      0.2292
     33  O         -2.8450  -22.8910  -21.2790 O.2   115  ASN115     -0.2864
     34  CB        -5.2030  -24.2500  -21.5850 C.3   115  ASN115      0.1181
     35  CG        -4.4420  -25.5310  -21.1780 C.2   115  ASN115      0.2629
     36  OD1       -4.4080  -25.9060  -20.0030 O.2   115  ASN115     -0.2716
     37  ND2       -3.8300  -26.1990  -22.1540 N.am  115  ASN115     -0.0877
     38  N         -0.8790  -24.4800  -17.2510 N.3   118  THR118     -0.1203
     39  CA        -0.2110  -25.6460  -17.8210 C.3   118  THR118      0.1994
     40  C          1.2280  -25.3720  -18.3330 C.2   118  THR118      0.2617
     41  O          1.9940  -26.3000  -18.5640 O.2   118  THR118     -0.2717
     42  CB        -1.0670  -26.2160  -18.9840 C.3   118  THR118      0.1784
     43  OG1       -0.5010  -27.4360  -19.4640 O.3   118  THR118     -0.2211
     44  CG2       -1.1310  -25.2180  -20.1360 C.3   118  THR118      0.0376
     45  N          1.6050  -24.1100  -18.5040 N.am  119  HIS119     -0.1975
     46  CA         2.9470  -23.8150  -19.0140 C.3   119  HIS119      0.1656
     47  C          4.0580  -24.0090  -17.9830 C.2   119  HIS119      0.2291
     48  O          5.2250  -24.0230  -18.3420 O.2   119  HIS119     -0.2864
     49  CB         3.0000  -22.3910  -19.5620 C.3   119  HIS119      0.0771
     50  CG         2.2420  -22.2200  -20.8420 C.ar  119  HIS119      0.0820
     51  ND1        2.4750  -23.0060  -21.9510 N.ar  119  HIS119     -0.2267
     52  CD2        1.2490  -21.3670  -21.1840 C.ar  119  HIS119      0.1154
     53  CE1        1.6580  -22.6400  -22.9230 C.ar  119  HIS119      0.1986
     54  NE2        0.9070  -21.6460  -22.4850 N.ar  119  HIS119     -0.2212
     55  N         -6.9720  -27.5660  -19.9490 N.3   148  ARG148     -0.1245
     56  CA        -7.5170  -28.6650  -20.7300 C.3   148  ARG148      0.1563
     57  C         -7.8050  -29.8480  -19.8100 C.2   148  ARG148      0.2260
     58  O         -7.2460  -29.9660  -18.7220 O.2   148  ARG148     -0.2867
     59  CB        -6.5580  -29.0910  -21.8430 C.3   148  ARG148      0.0307
     60  CG        -6.5240  -28.1190  -23.0030 C.3   148  ARG148      0.0489
     61  CD        -5.7710  -28.6380  -24.2390 C.3   148  ARG148      0.2205
     62  NE        -5.8600  -27.6360  -25.3020 N.pl3 148  ARG148     -0.0865
     63  CZ        -6.8430  -27.5750  -26.1940 C.cat 148  ARG148      0.5346
     64  NH1       -7.7990  -28.5030  -26.1990 N.pl3 148  ARG148      0.1354
     65  NH2       -6.8520  -26.6020  -27.1010 N.pl3 148  ARG148      0.1354
     66  N         -0.8440  -28.4430  -33.4030 N.3   184  TYR184     -0.1241
     67  CA        -1.9070  -27.5380  -33.8440 C.3   184  TYR184      0.1605
     68  C         -1.8020  -27.3650  -35.3410 C.2   184  TYR184      0.2264
     69  O         -0.7530  -26.9460  -35.8560 O.2   184  TYR184     -0.2867
     70  CB        -1.8180  -26.1770  -33.1600 C.3   184  TYR184      0.0534
     71  CG        -1.9500  -26.2220  -31.6550 C.ar  184  TYR184     -0.0201
     72  CD1       -0.8980  -26.6700  -30.8590 C.ar  184  TYR184     -0.0009
     73  CD2       -3.1110  -25.7920  -31.0260 C.ar  184  TYR184     -0.0009
     74  CE1       -1.0100  -26.7020  -29.4720 C.ar  184  TYR184      0.0417
     75  CE2       -3.2330  -25.8190  -29.6320 C.ar  184  TYR184      0.0417
     76  CZ        -2.1770  -26.2750  -28.8690 C.ar  184  TYR184      0.1957
     77  OH        -2.2840  -26.3070  -27.4930 O.3   184  TYR184     -0.2866
     78  N          3.4110  -27.7260  -29.6120 N.3   194  LEU194     -0.1245
     79  CA         3.6050  -27.0750  -28.3180 C.3   194  LEU194      0.1561
     80  C          3.6260  -28.0450  -27.1490 C.2   194  LEU194      0.2260
     81  O          2.8270  -28.9840  -27.0940 O.2   194  LEU194     -0.2867
     82  CB         2.5060  -26.0440  -28.0810 C.3   194  LEU194      0.0270
     83  CG         2.4840  -24.9260  -29.1120 C.3   194  LEU194      0.0019
     84  CD1        1.3350  -23.9780  -28.8200 C.3   194  LEU194      0.0001
     85  CD2        3.8280  -24.2140  -29.0910 C.3   194  LEU194      0.0001
     86  N          3.3120  -28.7420  -22.9980 N.3   196  MET196     -0.1245
     87  CA         2.6860  -28.2130  -21.8020 C.3   196  MET196      0.1570
     88  C          2.5810  -29.3150  -20.7700 C.2   196  MET196      0.2261
     89  O          2.7690  -30.4860  -21.0810 O.2   196  MET196     -0.2867
     90  CB         1.3150  -27.6160  -22.1130 C.3   196  MET196      0.0387
     91  CG         0.3700  -28.5550  -22.8130 C.3   196  MET196      0.0595
     92  SD        -0.8340  -27.6220  -23.7810 S.3   196  MET196     -0.1393
     93  CE         0.2300  -26.8590  -25.0060 C.3   196  MET196      0.0692
     94  N        -12.2610  -29.0330  -21.5160 N.3   233  PHE233     -0.1241
     95  CA       -11.6770  -28.0810  -20.5760 C.3   233  PHE233      0.1605
     96  C        -12.3310  -28.1810  -19.2010 C.2   233  PHE233      0.2264
     97  O        -13.4640  -28.6690  -19.0680 O.2   233  PHE233     -0.2867
     98  CB       -11.8130  -26.6450  -21.0990 C.3   233  PHE233      0.0534
     99  CG       -10.7900  -26.2630  -22.1490 C.ar  233  PHE233     -0.0203
    100  CD1       -9.7670  -25.3690  -21.8470 C.ar  233  PHE233     -0.0042
    101  CD2      -10.8600  -26.7840  -23.4430 C.ar  233  PHE233     -0.0042
    102  CE1       -8.8270  -25.0010  -22.8100 C.ar  233  PHE233     -0.0003
    103  CE2       -9.9120  -26.4280  -24.4180 C.ar  233  PHE233     -0.0003
    104  CZ        -8.8970  -25.5340  -24.0950 C.ar  233  PHE233     -0.0000
@<TRIPOS>BOND
     1    69    68    2
     2    68    67    1
     3    12    13    1
     4    15    14    2
     5    14    13    1
     6    13    16    1
     7    67    66    1
     8    67    70    1
     9     1     2    1
    10     4     3    2
    11     2     3    1
    12     2     5    1
    13    70    71    1
    14    16    17    1
    15     7     9   ar
    16     7     6   ar
    17     5     6    1
    18    17    19   ar
    19    17    18   ar
    20     9    11   ar
    21    71    73   ar
    22    71    72   ar
    23    22    19   ar
    24    22    24   ar
    25     6     8   ar
    26    19    21   ar
    27    18    20   ar
    28    24    25   ar
    29    73    75   ar
    30    21    20   ar
    31    21    23   ar
    32    72    74   ar
    33    11    10   ar
    34    25    23   ar
    35     8    10   ar
    36    75    76   ar
    37    78    79    1
    38    74    76   ar
    39    83    85    1
    40    83    84    1
    41    83    82    1
    42    76    77    1
    43    79    82    1
    44    79    80    1
    45    80    81    2
    46    65    63    1
    47    64    63    1
    48    63    62    2
    49    62    61    1
    50    93    92    1
    51   103   104   ar
    52   103   101   ar
    53    61    60    1
    54   104   102   ar
    55    92    91    1
    56   101    99   ar
    57    60    59    1
    58    86    87    1
    59    53    54   ar
    60    53    51   ar
    61    91    90    1
    62   102   100   ar
    63    29    28    2
    64    54    52   ar
    65    37    35   am
    66    99   100   ar
    67    99    98    1
    68    90    87    1
    69    27    28    1
    70    27    26    1
    71    51    50   ar
    72    28    30   am
    73    59    56    1
    74    87    88    1
    75    34    35    1
    76    34    31    1
    77    94    95    1
    78    33    32    2
    79    52    50   ar
    80    35    36    2
    81    98    95    1
    82    89    88    2
    83    50    49    1
    84    30    31    1
    85    56    55    1
    86    56    57    1
    87    95    96    1
    88    31    32    1
    89    44    42    1
    90    57    58    2
    91    49    46    1
    92    43    42    1
    93    96    97    2
    94    46    45    1
    95    46    47    1
    96    42    39    1
    97    41    40    2
    98    45    40   am
    99    48    47    2
   100    40    39    1
   101    39    38    1
