@<TRIPOS>MOLECULE
tmp/5hinA02.pdb
 218 210 0 0 0
SMALL
GASTEIGER

@<TRIPOS>ATOM
      1  N         17.9940  -16.8430   27.8840 N.3     7  TYR7       -0.1241
      2  CA        19.3080  -17.3860   27.4550 C.3     7  TYR7        0.1605
      3  C         20.4670  -16.6380   28.0520 C.2     7  TYR7        0.2264
      4  O         21.4310  -17.2540   28.5570 O.2     7  TYR7       -0.2867
      5  CB        19.3850  -17.4360   25.9160 C.3     7  TYR7        0.0534
      6  CG        18.7160  -18.6700   25.2990 C.ar    7  TYR7       -0.0201
      7  CD1       17.3000  -18.8450   25.3410 C.ar    7  TYR7       -0.0009
      8  CD2       19.4770  -19.6480   24.6840 C.ar    7  TYR7       -0.0009
      9  CE1       16.7030  -19.9680   24.7610 C.ar    7  TYR7        0.0417
     10  CE2       18.8510  -20.8130   24.1580 C.ar    7  TYR7        0.0417
     11  CZ        17.4860  -20.9240   24.1960 C.ar    7  TYR7        0.1957
     12  OH        16.8770  -22.0760   23.7110 O.3     7  TYR7       -0.2866
     13  N         20.2460  -19.5150   30.9770 N.3    11  LEU11      -0.1231
     14  CA        20.7610  -20.7200   30.3780 C.3    11  LEU11       0.1693
     15  C         22.2530  -20.6550   30.1190 C.2    11  LEU11       0.2591
     16  O         22.9790  -21.5880   30.3870 O.2    11  LEU11      -0.2718
     17  CB        20.0310  -21.0190   29.0710 C.3    11  LEU11       0.0284
     18  CG        20.5890  -22.2620   28.3160 C.3    11  LEU11       0.0019
     19  CD1       20.2990  -23.5370   29.1110 C.3    11  LEU11       0.0001
     20  CD2       20.1090  -22.4160   26.8880 C.3    11  LEU11       0.0001
     21  N         22.7170  -19.5880   29.4390 N.am   12  MET12      -0.1979
     22  CA        24.1820  -19.5920   29.1620 C.3    12  MET12       0.1605
     23  C         25.0820  -19.5110   30.3930 C.2    12  MET12       0.2287
     24  O         26.0740  -20.2090   30.4260 O.2    12  MET12      -0.2864
     25  CB        24.5770  -18.4960   28.1230 C.3    12  MET12       0.0413
     26  CG        23.8250  -18.5820   26.7930 C.3    12  MET12       0.0598
     27  SD        23.8660  -20.2260   25.9990 S.3    12  MET12      -0.1393
     28  CE        25.6310  -20.3500   25.8200 C.3    12  MET12       0.0692
     29  N         25.0770  -23.2210   31.6400 N.3    15  LEU15      -0.1231
     30  CA        25.9500  -24.0360   30.7940 C.3    15  LEU15       0.1693
     31  C         27.3890  -23.7460   31.0010 C.2    15  LEU15       0.2591
     32  O         28.2240  -24.6670   31.0330 O.2    15  LEU15      -0.2718
     33  CB        25.6880  -23.7880   29.3090 C.3    15  LEU15       0.0284
     34  CG        24.4310  -24.4550   28.7900 C.3    15  LEU15       0.0019
     35  CD1       24.2250  -24.2030   27.2920 C.3    15  LEU15       0.0001
     36  CD2       24.4590  -25.9530   29.1090 C.3    15  LEU15       0.0001
     37  N         27.7270  -22.4600   31.0480 N.am   16  GLN16      -0.1979
     38  CA        29.1160  -22.0350   31.1930 C.3    16  GLN16       0.1601
     39  C         29.6970  -22.6140   32.4630 C.2    16  GLN16       0.2287
     40  O         30.8330  -23.0860   32.4960 O.2    16  GLN16      -0.2864
     41  CB        29.2100  -20.5090   31.2170 C.3    16  GLN16       0.0394
     42  CG        29.1460  -19.8600   29.8440 C.3    16  GLN16       0.0908
     43  CD        29.8350  -20.6870   28.7760 C.2    16  GLN16       0.2608
     44  OE1       30.9100  -21.2430   29.0030 O.2    16  GLN16      -0.2717
     45  NE2       29.2190  -20.7720   27.6030 N.am   16  GLN16      -0.0878
     46  N         34.7120  -24.5960   27.9310 N.3    21  PRO21      -0.2116
     47  CA        34.2590  -24.0390   26.6670 C.3    21  PRO21       0.1372
     48  C         34.3140  -24.9510   25.4330 C.2    21  PRO21       0.2244
     49  O         33.3660  -24.8670   24.6850 O.2    21  PRO21      -0.2868
     50  CB        35.1750  -22.7910   26.4880 C.3    21  PRO21       0.0268
     51  CG        35.7880  -22.5320   27.8020 C.3    21  PRO21       0.0207
     52  CD        35.7180  -23.7810   28.6350 C.3    21  PRO21       0.0892
     53  N         31.2970  -27.1900   25.7710 N.3    24  ALA24      -0.1231
     54  CA        30.1640  -26.4930   25.4600 C.3    24  ALA24       0.1694
     55  C         30.0280  -26.2760   23.9110 C.2    24  ALA24       0.2592
     56  O         28.8620  -26.3020   23.4240 O.2    24  ALA24      -0.2718
     57  CB        30.1680  -25.0930   26.1260 C.3    24  ALA24       0.0304
     58  N         31.1580  -25.9790   23.2630 N.am   25  HIS25      -0.1976
     59  CA        31.1750  -25.8420   21.7710 C.3    25  HIS25       0.1656
     60  C         30.6400  -27.1610   21.0950 C.2    25  HIS25       0.2291
     61  O         29.7530  -27.1480   20.2660 O.2    25  HIS25      -0.2864
     62  CB        32.5260  -25.4440   21.3200 C.3    25  HIS25       0.0771
     63  CG        32.6910  -25.3140   19.8570 C.ar   25  HIS25       0.0820
     64  ND1       33.9450  -25.2180   19.2980 N.ar   25  HIS25      -0.2267
     65  CD2       31.8000  -25.0440   18.9010 C.ar   25  HIS25       0.1154
     66  CE1       33.7750  -25.0720   17.9750 C.ar   25  HIS25       0.1986
     67  NE2       32.4930  -24.9850   17.7350 N.ar   25  HIS25      -0.2212
     68  N         28.8680  -29.5440   22.3530 N.3    27  LEU27      -0.1231
     69  CA        27.4180  -29.7190   22.5980 C.3    27  LEU27       0.1693
     70  C         26.5770  -28.8320   21.7640 C.2    27  LEU27       0.2591
     71  O         25.5240  -29.1870   21.2240 O.2    27  LEU27      -0.2718
     72  CB        27.1080  -29.5200   24.0610 C.3    27  LEU27       0.0284
     73  CG        25.7480  -29.9490   24.5670 C.3    27  LEU27       0.0019
     74  CD1       25.6160  -31.5020   24.3370 C.3    27  LEU27       0.0001
     75  CD2       25.7220  -29.4400   26.0290 C.3    27  LEU27       0.0001
     76  N         27.0570  -27.5540   21.5580 N.am   28  ALA28      -0.1980
     77  CA        26.3690  -26.6450   20.7540 C.3    28  ALA28       0.1597
     78  C         26.2230  -27.1120   19.2840 C.2    28  ALA28       0.2287
     79  O         25.1620  -26.9210   18.6850 O.2    28  ALA28      -0.2864
     80  CB        27.0790  -25.2520   20.7620 C.3    28  ALA28       0.0319
     81  N         23.6280  -29.9280   19.3520 N.3    31  PHE31      -0.1227
     82  CA        22.2810  -29.4040   19.4400 C.3    31  PHE31       0.1736
     83  C         21.8000  -28.7370   18.1650 C.2    31  PHE31       0.2596
     84  O         20.6770  -28.8290   17.6600 O.2    31  PHE31      -0.2718
     85  CB        22.1340  -28.4390   20.6140 C.3    31  PHE31       0.0547
     86  CG        21.6980  -29.0640   21.9170 C.ar   31  PHE31      -0.0202
     87  CD1       22.4360  -30.0430   22.4820 C.ar   31  PHE31      -0.0042
     88  CD2       20.5370  -28.6420   22.4550 C.ar   31  PHE31      -0.0042
     89  CE1       22.0080  -30.6790   23.6820 C.ar   31  PHE31      -0.0003
     90  CE2       20.0870  -29.2210   23.6590 C.ar   31  PHE31      -0.0003
     91  CZ        20.8470  -30.2040   24.2370 C.ar   31  PHE31      -0.0000
     92  N         22.7610  -27.9710   17.5170 N.am   32  THR32      -0.1953
     93  CA        22.4070  -27.2200   16.3440 C.3    32  THR32       0.1897
     94  C         22.1030  -28.2060   15.2020 C.2    32  THR32       0.2313
     95  O         21.1510  -27.9760   14.4480 O.2    32  THR32      -0.2863
     96  CB        23.5460  -26.1980   16.0170 C.3    32  THR32       0.1794
     97  OG1       23.6620  -25.2610   17.1020 O.3    32  THR32      -0.2208
     98  CG2       23.2580  -25.4570   14.7900 C.3    32  THR32       0.0378
     99  N         17.7770  -28.4400   17.7690 N.3    36  LEU36      -0.1231
    100  CA        17.2660  -28.1840   19.1450 C.3    36  LEU36       0.1693
    101  C         17.5970  -26.7690   19.5180 C.2    36  LEU36       0.2592
    102  O         18.5220  -26.5130   20.2850 O.2    36  LEU36      -0.2718
    103  CB        17.9110  -29.1230   20.1240 C.3    36  LEU36       0.0284
    104  CG        17.6710  -30.6470   19.8360 C.3    36  LEU36       0.0019
    105  CD1       18.5140  -31.4590   20.7640 C.3    36  LEU36       0.0001
    106  CD2       16.1730  -30.9990   19.9440 C.3    36  LEU36       0.0001
    107  N         16.8220  -25.8940   18.9540 N.am   37  LEU37      -0.1966
    108  CA        17.1340  -24.4490   18.9740 C.3    37  LEU37       0.1713
    109  C         15.8620  -23.6920   19.3160 C.2    37  LEU37       0.2458
    110  O         14.7490  -24.1580   18.9890 O.2    37  LEU37      -0.2730
    111  CB        17.6220  -23.9790   17.5840 C.3    37  LEU37       0.0310
    112  CG        18.9060  -24.6470   17.0710 C.3    37  LEU37       0.0022
    113  CD1       19.0820  -24.3860   15.5600 C.3    37  LEU37       0.0001
    114  CD2       20.0770  -24.2030   18.0050 C.3    37  LEU37       0.0001
    115  N         15.9790  -22.5080   19.9670 N.am   38  PRO38      -0.2727
    116  CA        14.7850  -21.6890   20.1320 C.3    38  PRO38       0.1402
    117  C         14.2030  -21.2270   18.7630 C.2    38  PRO38       0.2269
    118  O         14.8970  -21.1410   17.7370 O.2    38  PRO38      -0.2865
    119  CB        15.2830  -20.5410   21.0330 C.3    38  PRO38       0.0296
    120  CG        16.7350  -20.3690   20.5950 C.3    38  PRO38       0.0237
    121  CD        17.2070  -21.7880   20.3660 C.3    38  PRO38       0.0939
    122  N         32.8490  -22.1280   14.0910 N.3    67  PHE67      -0.1241
    123  CA        31.7370  -22.6810   14.8840 C.3    67  PHE67       0.1605
    124  C         31.4980  -24.0520   14.2880 C.2    67  PHE67       0.2264
    125  O         31.5260  -25.0570   15.0630 O.2    67  PHE67      -0.2867
    126  CB        30.4860  -21.8410   14.8790 C.3    67  PHE67       0.0534
    127  CG        29.3210  -22.4390   15.6050 C.ar   67  PHE67      -0.0203
    128  CD1       28.5620  -23.3520   14.9620 C.ar   67  PHE67      -0.0042
    129  CD2       29.1400  -22.2130   16.9190 C.ar   67  PHE67      -0.0042
    130  CE1       27.4740  -24.0280   15.6090 C.ar   67  PHE67      -0.0003
    131  CE2       28.1100  -22.8400   17.6310 C.ar   67  PHE67      -0.0003
    132  CZ        27.2930  -23.7510   17.0000 C.ar   67  PHE67      -0.0000
    133  N         18.7900  -21.1840   12.8500 N.3    80  MET80      -0.1301
    134  CA        19.0440  -20.1440   13.8230 C.3    80  MET80       0.1256
    135  C         18.7150  -18.7570   13.3170 C.3    80  MET80       0.2010
    136  O         18.6280  -17.7940   14.1660 O.3    80  MET80      -0.2188
    137  CB        20.5170  -20.1420   14.2450 C.3    80  MET80       0.0333
    138  CG        20.9730  -20.9870   15.3270 C.3    80  MET80       0.0592
    139  SD        22.5000  -20.3870   16.1900 S.3    80  MET80      -0.1393
    140  CE        23.0850  -21.9800   16.6080 C.3    80  MET80       0.0692
    141  N         40.6380  -23.5900   24.5140 N.3   103  VAL103     -0.1245
    142  CA        39.5550  -22.5700   24.3760 C.3   103  VAL103      0.1561
    143  C         39.2540  -22.0420   25.7760 C.2   103  VAL103      0.2260
    144  O         39.1130  -22.8230   26.7530 O.2   103  VAL103     -0.2867
    145  CB        38.2430  -23.0610   23.7700 C.3   103  VAL103      0.0252
    146  CG1       37.2660  -21.8610   23.4180 C.3   103  VAL103      0.0019
    147  CG2       38.4730  -23.8690   22.4990 C.3   103  VAL103      0.0019
    148  N         37.1590  -18.9290   28.1860 N.3   105  ARG105     -0.1245
    149  CA        36.1380  -17.9140   28.2420 C.3   105  ARG105      0.1563
    150  C         36.5980  -16.7820   29.2030 C.2   105  ARG105      0.2260
    151  O         37.1610  -17.0390   30.2050 O.2   105  ARG105     -0.2867
    152  CB        34.8530  -18.5460   28.7320 C.3   105  ARG105      0.0307
    153  CG        33.5950  -18.2460   28.0030 C.3   105  ARG105      0.0489
    154  CD        32.4400  -19.1090   28.4890 C.3   105  ARG105      0.2205
    155  NE        31.1000  -18.5450   28.3260 N.pl3 105  ARG105     -0.0865
    156  CZ        30.3930  -17.9450   29.2840 C.cat 105  ARG105      0.5346
    157  NH1       29.1820  -17.5410   29.0580 N.pl3 105  ARG105      0.1354
    158  NH2       30.9020  -17.7420   30.4790 N.pl3 105  ARG105      0.1354
    159  N         36.5850  -14.3690   24.2710 N.3   112  VAL112     -0.1245
    160  CA        37.1290  -15.7210   24.2830 C.3   112  VAL112      0.1561
    161  C         38.4750  -15.6230   23.7300 C.2   112  VAL112      0.2260
    162  O         38.8630  -14.7750   22.8980 O.2   112  VAL112     -0.2867
    163  CB        36.1940  -16.6260   23.4020 C.3   112  VAL112      0.0252
    164  CG1       36.8230  -17.9540   23.0170 C.3   112  VAL112      0.0019
    165  CG2       34.8850  -16.9060   24.0990 C.3   112  VAL112      0.0019
    166  N         42.7920  -23.4200   18.9820 N.3   116  TYR116     -0.1241
    167  CA        42.4260  -24.7260   18.4580 C.3   116  TYR116      0.1605
    168  C         43.5080  -25.3560   17.5980 C.2   116  TYR116      0.2264
    169  O         43.7390  -26.5300   17.7290 O.2   116  TYR116     -0.2867
    170  CB        41.1140  -24.6230   17.6990 C.3   116  TYR116      0.0534
    171  CG        39.8740  -24.9880   18.4450 C.ar  116  TYR116     -0.0201
    172  CD1       39.6920  -26.2530   18.9120 C.ar  116  TYR116     -0.0009
    173  CD2       38.8610  -24.1040   18.6340 C.ar  116  TYR116     -0.0009
    174  CE1       38.5500  -26.6250   19.5720 C.ar  116  TYR116      0.0417
    175  CE2       37.7120  -24.4660   19.2760 C.ar  116  TYR116      0.0417
    176  CZ        37.5530  -25.7490   19.7510 C.ar  116  TYR116      0.1957
    177  OH        36.4200  -26.1340   20.3870 O.3   116  TYR116     -0.2866
    178  N         30.2880  -14.8420   16.1090 N.3   325  TYR325     -0.1227
    179  CA        30.5220  -16.1310   16.6910 C.3   325  TYR325      0.1736
    180  C         30.5270  -16.0500   18.2200 C.2   325  TYR325      0.2596
    181  O         29.7080  -16.5760   18.8610 O.2   325  TYR325     -0.2718
    182  CB        31.8180  -16.7190   16.1400 C.3   325  TYR325      0.0548
    183  CG        32.2400  -18.1250   16.5940 C.ar  325  TYR325     -0.0200
    184  CD1       31.5160  -18.8290   17.5060 C.ar  325  TYR325     -0.0009
    185  CD2       33.3780  -18.6880   16.1160 C.ar  325  TYR325     -0.0009
    186  CE1       31.9370  -20.0660   17.9330 C.ar  325  TYR325      0.0417
    187  CE2       33.7740  -19.9190   16.5250 C.ar  325  TYR325      0.0417
    188  CZ        33.0590  -20.5920   17.4410 C.ar  325  TYR325      0.1957
    189  OH        33.5360  -21.7940   17.8000 O.3   325  TYR325     -0.2866
    190  N         31.4800  -15.3070   18.7550 N.am  326  THR326     -0.1953
    191  CA        31.7060  -15.3240   20.1930 C.3   326  THR326      0.1897
    192  C         30.4690  -14.8720   20.9300 C.2   326  THR326      0.2313
    193  O         30.1880  -15.4250   22.0280 O.2   326  THR326     -0.2863
    194  CB        32.9420  -14.4370   20.5100 C.3   326  THR326      0.1794
    195  OG1       34.0700  -14.9790   19.9010 O.3   326  THR326     -0.2208
    196  CG2       33.0680  -14.2850   22.0160 C.3   326  THR326      0.0378
    197  N         27.6220  -15.7780   20.7340 N.3   328  LEU328     -0.1231
    198  CA        26.7560  -16.9930   21.1040 C.3   328  LEU328      0.1693
    199  C         27.1110  -17.5830   22.4200 C.2   328  LEU328      0.2592
    200  O         26.2010  -18.1980   23.0490 O.2   328  LEU328     -0.2718
    201  CB        26.9310  -18.0380   19.9760 C.3   328  LEU328      0.0284
    202  CG        26.3520  -17.7340   18.6060 C.3   328  LEU328      0.0019
    203  CD1       26.9440  -18.7210   17.5860 C.3   328  LEU328      0.0001
    204  CD2       24.8380  -17.8590   18.6870 C.3   328  LEU328      0.0001
    205  N         28.3200  -17.5570   22.9240 N.am  329  THR329     -0.1953
    206  CA        28.6290  -18.1500   24.2160 C.3   329  THR329      0.1897
    207  C         28.0300  -17.3340   25.3650 C.2   329  THR329      0.2313
    208  O         27.8040  -17.8380   26.4650 O.2   329  THR329     -0.2863
    209  CB        30.0900  -18.4010   24.4070 C.3   329  THR329      0.1794
    210  OG1       30.2440  -19.2640   25.5720 O.3   329  THR329     -0.2208
    211  CG2       30.8730  -17.1340   24.6880 C.3   329  THR329      0.0378
    212  N         21.8010  -18.6010   20.8970 N.3   333  PRO333     -0.2116
    213  CA        21.1380  -18.4050   19.6270 C.3   333  PRO333      0.1372
    214  C         20.2120  -17.2220   19.4760 C.2   333  PRO333      0.2244
    215  O         20.1300  -16.6760   18.3590 O.2   333  PRO333     -0.2868
    216  CB        20.4610  -19.8030   19.3550 C.3   333  PRO333      0.0268
    217  CG        21.3570  -20.7150   20.1190 C.3   333  PRO333      0.0207
    218  CD        21.7450  -20.0200   21.3550 C.3   333  PRO333      0.0892
@<TRIPOS>BOND
     1   133   134    1
     2   135   134    1
     3   135   136    1
     4   134   137    1
     5   122   123    1
     6   137   138    1
     7   124   123    1
     8   124   125    2
     9    95    94    2
    10    98    96    1
    11   126   123    1
    12   126   127    1
    13   128   127   ar
    14   128   130   ar
    15    94    93    1
    16   138   139    1
    17   113   112    1
    18   127   129   ar
    19   130   132   ar
    20    96    93    1
    21    96    97    1
    22   178   179    1
    23   185   187   ar
    24   185   183   ar
    25   182   183    1
    26   182   179    1
    27   139   140    1
    28    93    92    1
    29   187   188   ar
    30   183   184   ar
    31   179   180    1
    32   129   131   ar
    33   132   131   ar
    34   112   111    1
    35   112   114    1
    36   188   189    1
    37   188   186   ar
    38   184   186   ar
    39    92    83   am
    40   111   108    1
    41   203   202    1
    42   168   169    2
    43   168   167    1
    44    84    83    2
    45   170   171    1
    46   170   167    1
    47    67    66   ar
    48    67    65   ar
    49   118   117    2
    50    99   100    1
    51    66    64   ar
    52    83    82    1
    53   180   190   am
    54   180   181    2
    55   215   214    2
    56   171   173   ar
    57   171   172   ar
    58   167   166    1
    59   202   204    1
    60   202   201    1
    61   173   175   ar
    62    79    78    2
    63   190   191    1
    64   117   116    1
    65    65    63   ar
    66   172   174   ar
    67   107   108    1
    68   107   101   am
    69   108   109    1
    70   110   109    2
    71   100   101    1
    72   100   103    1
    73   175   176   ar
    74    78    77    1
    75    64    63   ar
    76   109   115   am
    77    81    82    1
    78   216   213    1
    79   216   217    1
    80    82    85    1
    81   214   213    1
    82   101   102    2
    83   174   176   ar
    84   213   212    1
    85   176   177    1
    86   104   106    1
    87   104   103    1
    88   104   105    1
    89    63    62    1
    90   195   194    1
    91   115   116    1
    92   115   121    1
    93   201   198    1
    94   217   218    1
    95   116   119    1
    96   191   194    1
    97   191   192    1
    98    61    60    2
    99   121   120    1
   100   194   196    1
   101   120   119    1
   102    85    86    1
   103   197   198    1
   104    77    80    1
   105    77    76    1
   106   212   218    1
   107   192   193    2
   108    60    59    1
   109   198   199    1
   110    71    70    2
   111    62    59    1
   112    76    70   am
   113    70    69    1
   114    59    58    1
   115    86    88   ar
   116    86    87   ar
   117    68    69    1
   118   199   205   am
   119   199   200    2
   120    88    90   ar
   121    87    89   ar
   122   147   145    1
   123    69    72    1
   124   162   161    2
   125   205   206    1
   126   164   163    1
   127    58    55   am
   128   163   165    1
   129   163   160    1
   130   146   145    1
   131    56    55    2
   132    90    91   ar
   133    89    91   ar
   134    12    11    1
   135   161   160    1
   136   145   142    1
   137    55    54    1
   138    72    73    1
   139    10    11   ar
   140    10     8   ar
   141    11     9   ar
   142   206   209    1
   143   206   207    1
   144   159   160    1
   145    74    73    1
   146   142   141    1
   147   142   143    1
   148   209   211    1
   149   209   210    1
   150    73    75    1
   151     8     6   ar
   152    49    48    2
   153     9     7   ar
   154     6     7   ar
   155     6     5    1
   156   207   208    2
   157    48    47    1
   158    54    53    1
   159    54    57    1
   160   143   144    2
   161    28    27    1
   162     5     2    1
   163    27    26    1
   164    50    47    1
   165    50    51    1
   166    47    46    1
   167    26    25    1
   168    20    18    1
   169    35    34    1
   170     2     1    1
   171     2     3    1
   172    45    43   am
   173    51    52    1
   174    46    52    1
   175   153   154    1
   176   153   152    1
   177     3     4    2
   178    25    22    1
   179   148   149    1
   180   149   152    1
   181   149   150    1
   182    18    17    1
   183    18    19    1
   184   155   154    1
   185   155   156    2
   186    43    44    2
   187    43    42    1
   188    34    36    1
   189    34    33    1
   190   157   156    1
   191    17    14    1
   192    22    21    1
   193    22    23    1
   194   150   151    2
   195   156   158    1
   196    33    30    1
   197    21    15   am
   198    42    41    1
   199    15    14    1
   200    15    16    2
   201    14    13    1
   202    23    24    2
   203    30    31    1
   204    30    29    1
   205    31    32    2
   206    31    37   am
   207    37    38    1
   208    38    41    1
   209    38    39    1
   210    39    40    2
