@<TRIPOS>MOLECULE
tmp/5hioA00.pdb
 153 150 0 0 0
SMALL
GASTEIGER

@<TRIPOS>ATOM
      1  N        -21.1250   -3.7710   -5.2980 N.3    72  HIS72      -0.1226
      2  CA       -21.2550   -2.3590   -5.6260 C.3    72  HIS72       0.1752
      3  C        -22.6900   -2.0200   -5.9940 C.2    72  HIS72       0.2596
      4  O        -23.4490   -2.8670   -6.4820 O.2    72  HIS72      -0.2718
      5  CB       -20.3130   -1.9910   -6.7670 C.3    72  HIS72       0.0759
      6  CG       -18.8980   -1.8290   -6.3190 C.ar   72  HIS72       0.0818
      7  ND1      -17.8250   -1.8690   -7.1840 N.ar   72  HIS72      -0.2268
      8  CD2      -18.3830   -1.6320   -5.0820 C.ar   72  HIS72       0.1154
      9  CE1      -16.7090   -1.6970   -6.4970 C.ar   72  HIS72       0.1986
     10  NE2      -17.0200   -1.5480   -5.2210 N.ar   72  HIS72      -0.2212
     11  N        -23.0390   -0.7450   -5.7820 N.am   73  TYR73      -0.1962
     12  CA       -24.4260   -0.2980   -5.9050 C.3    73  TYR73       0.1771
     13  C        -24.9940   -0.5790   -7.2880 C.2    73  TYR73       0.2620
     14  O        -26.2050   -0.8030   -7.4250 O.2    73  TYR73      -0.2715
     15  CB       -24.5240    1.2020   -5.5980 C.3    73  TYR73       0.0574
     16  CG       -24.0870    2.0780   -6.7520 C.ar   73  TYR73      -0.0198
     17  CD1      -25.0150    2.6280   -7.6290 C.ar   73  TYR73      -0.0009
     18  CD2      -22.7410    2.3360   -6.9690 C.ar   73  TYR73      -0.0009
     19  CE1      -24.6080    3.4280   -8.7060 C.ar   73  TYR73       0.0417
     20  CE2      -22.3230    3.1230   -8.0230 C.ar   73  TYR73       0.0417
     21  CZ       -23.2550    3.6640   -8.8960 C.ar   73  TYR73       0.1957
     22  OH       -22.7980    4.4360   -9.9440 O.3    73  TYR73      -0.2866
     23  N        -24.1500   -0.5590   -8.3160 N.am   74  ASP74      -0.1957
     24  CA       -24.5770   -0.7380   -9.7010 C.3    74  ASP74       0.1840
     25  C        -24.5590   -2.1980  -10.1450 C.2    74  ASP74       0.2622
     26  O        -24.7480   -2.4740  -11.3380 O.2    74  ASP74      -0.2715
     27  CB       -23.6990    0.1100  -10.6390 C.3    74  ASP74       0.1450
     28  CG       -22.2020   -0.1230  -10.4380 C.2    74  ASP74       0.3671
     29  OD1      -21.7670   -0.2800   -9.2760 O.co2  74  ASP74      -0.2456
     30  OD2      -21.4630   -0.1100  -11.4490 O.co2  74  ASP74      -0.2456
     31  N        -24.3410   -3.1330   -9.2200 N.am   75  HIS75      -0.1973
     32  CA       -24.3630   -4.5530   -9.5460 C.3    75  HIS75       0.1656
     33  C        -25.3110   -5.3620   -8.6820 C.2    75  HIS75       0.2291
     34  O        -25.4080   -6.5830   -8.8710 O.2    75  HIS75      -0.2864
     35  CB       -22.9340   -5.1160   -9.4680 C.3    75  HIS75       0.0771
     36  CG       -22.0300   -4.4730  -10.4670 C.ar   75  HIS75       0.0820
     37  ND1      -21.8120   -5.0090  -11.7180 N.ar   75  HIS75      -0.2267
     38  CD2      -21.3840   -3.2830  -10.4460 C.ar   75  HIS75       0.1154
     39  CE1      -21.0380   -4.1930  -12.4150 C.ar   75  HIS75       0.1986
     40  NE2      -20.7540   -3.1440  -11.6630 N.ar   75  HIS75      -0.2212
     41  N        -10.7650   -5.2060   -7.9020 N.3   160  HIS160     -0.1241
     42  CA       -11.7480   -4.1560   -8.1470 C.3   160  HIS160      0.1621
     43  C        -12.5210   -3.8570   -6.8740 C.2   160  HIS160      0.2264
     44  O        -12.7380   -2.6940   -6.5120 O.2   160  HIS160     -0.2867
     45  CB       -12.7120   -4.5790   -9.2490 C.3   160  HIS160      0.0745
     46  CG       -13.8690   -3.6400   -9.4120 C.ar  160  HIS160      0.0817
     47  ND1      -13.7410   -2.4160  -10.0280 N.ar  160  HIS160     -0.2268
     48  CD2      -15.1530   -3.7110   -8.9840 C.ar  160  HIS160      0.1154
     49  CE1      -14.9070   -1.7890  -10.0190 C.ar  160  HIS160      0.1986
     50  NE2      -15.7770   -2.5470   -9.3760 N.ar  160  HIS160     -0.2212
     51  N        -16.5640   -6.2370  -13.2030 N.3   179  ASP179     -0.1239
     52  CA       -15.6830   -5.0870  -13.4030 C.3   179  ASP179      0.1674
     53  C        -14.2080   -5.4410  -13.2300 C.2   179  ASP179      0.2266
     54  O        -13.3810   -4.5390  -13.1110 O.2   179  ASP179     -0.2867
     55  CB       -16.0330   -3.9390  -12.4490 C.3   179  ASP179      0.1410
     56  CG       -17.3940   -3.3130  -12.7340 C.2   179  ASP179      0.3668
     57  OD1      -17.9360   -3.4990  -13.8500 O.co2 179  ASP179     -0.2456
     58  OD2      -17.9140   -2.6610  -11.8070 O.co2 179  ASP179     -0.2456
     59  N        -13.3940   -0.9460  -17.2950 N.3   183  GLU183     -0.1245
     60  CA       -14.4720   -0.4110  -18.1160 C.3   183  GLU183      0.1567
     61  C        -14.0090   -0.4090  -19.5610 C.2   183  GLU183      0.2260
     62  O        -12.9870    0.2090  -19.8780 O.2   183  GLU183     -0.2867
     63  CB       -14.8150    1.0170  -17.6730 C.3   183  GLU183      0.0388
     64  CG       -15.9170    1.7040  -18.4450 C.3   183  GLU183      0.1160
     65  CD       -16.0880    3.1820  -18.0070 C.2   183  GLU183      0.3649
     66  OE1      -15.0970    3.9480  -17.9400 O.co2 183  GLU183     -0.2457
     67  OE2      -17.2220    3.5650  -17.6910 O.co2 183  GLU183     -0.2457
     68  N        -10.2530   -0.3160  -13.3670 N.3   194  LEU194     -0.1245
     69  CA       -11.1440    0.0300  -12.2500 C.3   194  LEU194      0.1561
     70  C        -10.6050   -0.6470  -10.9900 C.2   194  LEU194      0.2260
     71  O        -11.1780   -1.6170  -10.4750 O.2   194  LEU194     -0.2867
     72  CB       -12.5960   -0.3900  -12.5150 C.3   194  LEU194      0.0270
     73  CG       -13.2800    0.1820  -13.7380 C.3   194  LEU194      0.0019
     74  CD1      -14.5660   -0.5380  -13.9400 C.3   194  LEU194      0.0001
     75  CD2      -13.5180    1.6860  -13.5690 C.3   194  LEU194      0.0001
     76  N        -10.3040   -0.3800   -7.4610 N.3   196  PHE196     -0.1241
     77  CA       -10.8730    0.3710   -6.3490 C.3   196  PHE196      0.1605
     78  C        -10.6550   -0.2800   -4.9930 C.2   196  PHE196      0.2264
     79  O        -11.1180    0.2710   -3.9850 O.2   196  PHE196     -0.2867
     80  CB       -12.3670    0.6030   -6.5730 C.3   196  PHE196      0.0534
     81  CG       -12.6740    1.3690   -7.8220 C.ar  196  PHE196     -0.0203
     82  CD1      -11.8060    2.3530   -8.2880 C.ar  196  PHE196     -0.0042
     83  CD2      -13.8310    1.1130   -8.5350 C.ar  196  PHE196     -0.0042
     84  CE1      -12.0880    3.0580   -9.4490 C.ar  196  PHE196     -0.0003
     85  CE2      -14.1220    1.8240   -9.7000 C.ar  196  PHE196     -0.0003
     86  CZ       -13.2500    2.7940  -10.1530 C.ar  196  PHE196     -0.0000
     87  N        -20.5820   -3.6890  -17.7680 N.3   222  HIS222     -0.1241
     88  CA       -21.1170   -2.5460  -18.4840 C.3   222  HIS222      0.1621
     89  C        -20.7320   -2.6650  -19.9510 C.2   222  HIS222      0.2264
     90  O        -19.6010   -3.0450  -20.2730 O.2   222  HIS222     -0.2867
     91  CB       -20.5870   -1.2170  -17.8870 C.3   222  HIS222      0.0745
     92  CG       -20.6600   -1.1610  -16.3930 C.ar  222  HIS222      0.0817
     93  ND1      -21.8140   -0.8290  -15.7120 N.ar  222  HIS222     -0.2268
     94  CD2      -19.7290   -1.4280  -15.4430 C.ar  222  HIS222      0.1154
     95  CE1      -21.5880   -0.8900  -14.4100 C.ar  222  HIS222      0.1986
     96  NE2      -20.3310   -1.2490  -14.2210 N.ar  222  HIS222     -0.2212
     97  N        -19.8940    6.6980  -18.3620 N.3   274  SER274     -0.1217
     98  CA       -20.7260    6.2450  -17.2570 C.3   274  SER274      0.1889
     99  C        -21.6200    7.3350  -16.6650 C.2   274  SER274      0.2288
    100  O        -22.2320    7.1090  -15.6180 O.2   274  SER274     -0.2866
    101  CB       -19.8280    5.6880  -16.1540 C.3   274  SER274      0.2089
    102  OG       -19.0800    6.7460  -15.5630 O.3   274  SER274     -0.2183
    103  N        -25.1670    6.5900  -15.0910 N.3   277  PHE277     -0.1227
    104  CA       -25.3700    5.7250  -13.9340 C.3   277  PHE277      0.1736
    105  C        -24.3440    5.9260  -12.8240 C.2   277  PHE277      0.2595
    106  O        -24.3910    5.2010  -11.8280 O.2   277  PHE277     -0.2718
    107  CB       -25.3950    4.2400  -14.3520 C.3   277  PHE277      0.0547
    108  CG       -24.0600    3.6760  -14.7670 C.ar  277  PHE277     -0.0202
    109  CD1      -23.2350    3.0660  -13.8430 C.ar  277  PHE277     -0.0042
    110  CD2      -23.6450    3.7270  -16.0940 C.ar  277  PHE277     -0.0042
    111  CE1      -22.0160    2.5420  -14.2170 C.ar  277  PHE277     -0.0003
    112  CE2      -22.4210    3.1880  -16.4700 C.ar  277  PHE277     -0.0003
    113  CZ       -21.6130    2.5940  -15.5240 C.ar  277  PHE277     -0.0000
    114  N        -23.4230    6.8740  -12.9610 N.am  278  LEU278     -0.1980
    115  CA       -22.4960    7.2210  -11.8870 C.3   278  LEU278      0.1596
    116  C        -22.8300    8.6300  -11.4220 C.2   278  LEU278      0.2287
    117  O        -22.4340    9.6020  -12.0760 O.2   278  LEU278     -0.2864
    118  CB       -21.0470    7.1500  -12.3680 C.3   278  LEU278      0.0297
    119  CG       -20.1700    6.1260  -11.6620 C.3   278  LEU278      0.0022
    120  CD1      -20.4360    4.7400  -12.2120 C.3   278  LEU278      0.0001
    121  CD2      -18.6990    6.4910  -11.8150 C.3   278  LEU278      0.0001
    122  N        -18.9770   10.9520   -8.2370 N.3   282  LEU282     -0.1231
    123  CA       -18.4310    9.6390   -7.9270 C.3   282  LEU282      0.1693
    124  C        -17.3490    9.2270   -8.9130 C.2   282  LEU282      0.2592
    125  O        -16.3800    8.5730   -8.5170 O.2   282  LEU282     -0.2718
    126  CB       -19.5440    8.5980   -7.8930 C.3   282  LEU282      0.0284
    127  CG       -19.1490    7.1630   -7.4990 C.3   282  LEU282      0.0019
    128  CD1      -18.5110    7.0840   -6.1140 C.3   282  LEU282      0.0001
    129  CD2      -20.3700    6.2480   -7.5540 C.3   282  LEU282      0.0001
    130  N        -17.4720    9.5960  -10.1870 N.am  283  HIS283     -0.1976
    131  CA       -16.4470    9.1860  -11.1360 C.3   283  HIS283      0.1656
    132  C        -15.1020    9.8000  -10.7750 C.2   283  HIS283      0.2291
    133  O        -14.1090    9.0840  -10.6020 O.2   283  HIS283     -0.2864
    134  CB       -16.8120    9.5450  -12.5750 C.3   283  HIS283      0.0771
    135  CG       -15.8570    8.9530  -13.5650 C.ar  283  HIS283      0.0820
    136  ND1      -14.7310    9.6140  -14.0110 N.ar  283  HIS283     -0.2267
    137  CD2      -15.8110    7.7170  -14.1220 C.ar  283  HIS283      0.1154
    138  CE1      -14.0540    8.8270  -14.8290 C.ar  283  HIS283      0.1986
    139  NE2      -14.6900    7.6710  -14.9160 N.ar  283  HIS283     -0.2212
    140  N        -13.8220    8.2450   -7.7640 N.3   286  SER286     -0.1202
    141  CA       -13.3610    6.8970   -8.0750 C.3   286  SER286      0.2020
    142  C        -11.9790    6.9230   -8.7100 C.2   286  SER286      0.2618
    143  O        -11.1100    6.1210   -8.3450 O.2   286  SER286     -0.2717
    144  CB       -14.3710    6.2100   -8.9920 C.3   286  SER286      0.2103
    145  OG       -15.5500    5.9120   -8.2690 O.3   286  SER286     -0.2182
    146  N        -11.7440    7.8510   -9.6450 N.am  287  MET287     -0.1979
    147  CA       -10.4160    7.9760  -10.2400 C.3   287  MET287      0.1605
    148  C         -9.3710    8.3060   -9.1780 C.2   287  MET287      0.2287
    149  O         -8.2570    7.7640   -9.1940 O.2   287  MET287     -0.2864
    150  CB       -10.4180    9.0520  -11.3320 C.3   287  MET287      0.0413
    151  CG       -11.3530    8.7930  -12.5250 C.3   287  MET287      0.0598
    152  SD       -11.0900    7.2120  -13.3800 S.3   287  MET287     -0.1393
    153  CE       -12.2310    6.1680  -12.4860 C.3   287  MET287      0.0692
@<TRIPOS>BOND
     1    90    89    2
     2    89    88    1
     3    62    61    2
     4    61    60    1
     5    88    91    1
     6    88    87    1
     7    64    65    1
     8    64    63    1
     9    97    98    1
    10    60    63    1
    11    60    59    1
    12    65    66   ar
    13    65    67   ar
    14    91    92    1
    15    98    99    1
    16    98   101    1
    17    99   100    2
    18   112   110   ar
    19   112   113   ar
    20    92    93   ar
    21    92    94   ar
    22   101   102    1
    23   110   108   ar
    24    93    95   ar
    25   113   111   ar
    26    94    96   ar
    27   103   104    1
    28   139   138   ar
    29   139   137   ar
    30   138   136   ar
    31   108   107    1
    32   108   109   ar
    33    95    96   ar
    34   107   104    1
    35   111   109   ar
    36   137   135   ar
    37   136   135   ar
    38    74    73    1
    39   104   105    1
    40    57    56   ar
    41    73    75    1
    42    73    72    1
    43   135   134    1
    44    52    53    1
    45    52    51    1
    46    52    55    1
    47   152   151    1
    48   152   153    1
    49    68    69    1
    50    53    54    2
    51   114   105   am
    52   114   115    1
    53   105   106    2
    54    56    55    1
    55    56    58   ar
    56   134   131    1
    57   151   150    1
    58    72    69    1
    59    39    37   ar
    60    39    40   ar
    61   118   115    1
    62   118   119    1
    63    69    70    1
    64   120   119    1
    65   117   116    2
    66   115   116    1
    67   121   119    1
    68    37    36   ar
    69    40    38   ar
    70    30    28   ar
    71    26    25    2
    72   150   147    1
    73   131   132    1
    74   131   130    1
    75    70    71    2
    76   132   133    2
    77    27    28    1
    78    27    24    1
    79    36    38   ar
    80    36    35    1
    81    28    29   ar
    82   147   146    1
    83   147   148    1
    84   130   124   am
    85    86    85   ar
    86    86    84   ar
    87    25    24    1
    88    25    31   am
    89    47    49   ar
    90    47    46   ar
    91    49    50   ar
    92    22    21    1
    93    24    23    1
    94    85    83   ar
    95   146   142   am
    96    32    35    1
    97    32    31    1
    98    32    33    1
    99    84    82   ar
   100    46    45    1
   101    46    48   ar
   102    50    48   ar
   103    45    42    1
   104   149   148    2
   105   144   145    1
   106   144   141    1
   107   124   125    2
   108   124   123    1
   109    21    19   ar
   110    21    20   ar
   111    34    33    2
   112   142   143    2
   113   142   141    1
   114    19    17   ar
   115    83    81   ar
   116    23    13   am
   117    82    81   ar
   118   122   123    1
   119    42    41    1
   120    42    43    1
   121   141   140    1
   122    20    18   ar
   123   123   126    1
   124   126   127    1
   125    81    80    1
   126    17    16   ar
   127   129   127    1
   128   127   128    1
   129    76    77    1
   130    14    13    2
   131    13    12    1
   132     7     9   ar
   133     7     6   ar
   134    18    16   ar
   135    43    44    2
   136     5     6    1
   137     5     2    1
   138    16    15    1
   139    80    77    1
   140     9    10   ar
   141     4     3    2
   142    77    78    1
   143     6     8   ar
   144     3    11   am
   145     3     2    1
   146    12    11    1
   147    12    15    1
   148     2     1    1
   149    10     8   ar
   150    78    79    2
