@<TRIPOS>MOLECULE
tmp/5hipA00.pdb
 162 156 0 0 0
SMALL
GASTEIGER

@<TRIPOS>ATOM
      1  N        -21.1930   -3.7810   -5.4350 N.3    72  HIS72      -0.1226
      2  CA       -21.3360   -2.3770   -5.7790 C.3    72  HIS72       0.1752
      3  C        -22.7790   -2.0840   -6.1330 C.2    72  HIS72       0.2596
      4  O        -23.5050   -2.9570   -6.5990 O.2    72  HIS72      -0.2718
      5  CB       -20.4130   -2.0160   -6.9250 C.3    72  HIS72       0.0759
      6  CG       -18.9990   -1.8540   -6.4910 C.ar   72  HIS72       0.0818
      7  ND1      -17.9480   -1.8110   -7.3810 N.ar   72  HIS72      -0.2268
      8  CD2      -18.4660   -1.7140   -5.2510 C.ar   72  HIS72       0.1154
      9  CE1      -16.8220   -1.6430   -6.6970 C.ar   72  HIS72       0.1986
     10  NE2      -17.1110   -1.5870   -5.4090 N.ar   72  HIS72      -0.2212
     11  N        -23.1860   -0.8350   -5.8940 N.am   73  TYR73      -0.1962
     12  CA       -24.5980   -0.4560   -5.9540 C.3    73  TYR73       0.1771
     13  C        -25.1850   -0.6730   -7.3420 C.2    73  TYR73       0.2619
     14  O        -26.3960   -0.8790   -7.4800 O.2    73  TYR73      -0.2715
     15  CB       -24.7720    1.0140   -5.5460 C.3    73  TYR73       0.0574
     16  CG       -24.4210    1.9220   -6.6760 C.ar   73  TYR73      -0.0198
     17  CD1      -25.4020    2.4370   -7.5380 C.ar   73  TYR73      -0.0009
     18  CD2      -23.1060    2.2350   -6.9190 C.ar   73  TYR73      -0.0009
     19  CE1      -25.0560    3.2420   -8.5970 C.ar   73  TYR73       0.0417
     20  CE2      -22.7570    3.0220   -7.9550 C.ar   73  TYR73       0.0417
     21  CZ       -23.7270    3.5240   -8.8030 C.ar   73  TYR73       0.1957
     22  OH       -23.3060    4.2890   -9.8570 O.3    73  TYR73      -0.2866
     23  N        -24.3530   -0.6280   -8.3750 N.am   74  ASP74      -0.1971
     24  CA       -24.8160   -0.8210   -9.7350 C.3    74  ASP74       0.1709
     25  C        -24.7940   -2.2860  -10.1800 C.2    74  ASP74       0.2293
     26  O        -24.9730   -2.5550  -11.3670 O.2    74  ASP74      -0.2864
     27  CB       -23.9760    0.0160  -10.7230 C.3    74  ASP74       0.1436
     28  CG       -22.4700   -0.1620  -10.5620 C.2    74  ASP74       0.3671
     29  OD1      -21.9870   -0.2330   -9.4070 O.co2  74  ASP74      -0.2456
     30  OD2      -21.7460   -0.1800  -11.6060 O.co2  74  ASP74      -0.2456
     31  N        -26.7870    5.7170   -3.1410 N.3   113  LEU113     -0.1245
     32  CA       -26.2960    5.8480   -4.5080 C.3   113  LEU113      0.1561
     33  C        -27.3910    5.5490   -5.5250 C.2   113  LEU113      0.2260
     34  O        -27.5650    6.2990   -6.4880 O.2   113  LEU113     -0.2867
     35  CB       -25.0920    4.9420   -4.7090 C.3   113  LEU113      0.0270
     36  CG       -23.8850    5.3800   -3.8840 C.3   113  LEU113      0.0019
     37  CD1      -22.7760    4.3810   -3.9900 C.3   113  LEU113      0.0001
     38  CD2      -23.3760    6.7450   -4.2920 C.3   113  LEU113      0.0001
     39  N        -10.7820   -5.1490   -8.0180 N.3   160  HIS160     -0.1241
     40  CA       -11.7870   -4.1100   -8.2490 C.3   160  HIS160      0.1621
     41  C        -12.5590   -3.8340   -6.9740 C.2   160  HIS160      0.2264
     42  O        -12.7720   -2.6810   -6.5960 O.2   160  HIS160     -0.2867
     43  CB       -12.7510   -4.5560   -9.3560 C.3   160  HIS160      0.0745
     44  CG       -13.9580   -3.6620   -9.5010 C.ar  160  HIS160      0.0817
     45  ND1      -13.9210   -2.4500  -10.1630 N.ar  160  HIS160     -0.2268
     46  CD2      -15.2230   -3.7910   -9.0310 C.ar  160  HIS160      0.1154
     47  CE1      -15.1160   -1.8820  -10.1160 C.ar  160  HIS160      0.1986
     48  NE2      -15.9270   -2.6740   -9.4340 N.ar  160  HIS160     -0.2212
     49  N        -16.6810   -6.2600  -13.2940 N.3   179  ASP179     -0.1239
     50  CA       -15.8040   -5.1010  -13.4900 C.3   179  ASP179      0.1674
     51  C        -14.3080   -5.4640  -13.3610 C.2   179  ASP179      0.2266
     52  O        -13.4470   -4.5670  -13.3280 O.2   179  ASP179     -0.2867
     53  CB       -16.1830   -3.9520  -12.5340 C.3   179  ASP179      0.1410
     54  CG       -17.5880   -3.3510  -12.8240 C.2   179  ASP179      0.3668
     55  OD1      -18.1020   -3.5420  -13.9390 O.co2 179  ASP179     -0.2456
     56  OD2      -18.1750   -2.6880  -11.9370 O.co2 179  ASP179     -0.2456
     57  N        -13.4230   -0.9720  -17.3930 N.3   183  GLU183     -0.1245
     58  CA       -14.5070   -0.4110  -18.2040 C.3   183  GLU183      0.1567
     59  C        -14.0670   -0.3970  -19.6620 C.2   183  GLU183      0.2260
     60  O        -13.0330    0.1860  -19.9870 O.2   183  GLU183     -0.2867
     61  CB       -14.8300    1.0200  -17.7390 C.3   183  GLU183      0.0388
     62  CG       -16.0420    1.6980  -18.4050 C.3   183  GLU183      0.1160
     63  CD       -16.1400    3.1960  -18.0550 C.2   183  GLU183      0.3649
     64  OE1      -15.0990    3.8640  -17.8760 O.co2 183  GLU183     -0.2457
     65  OE2      -17.2650    3.7250  -18.0050 O.co2 183  GLU183     -0.2457
     66  N        -10.2440   -0.2880  -13.4450 N.3   194  LEU194     -0.1245
     67  CA       -11.1380    0.0520  -12.3310 C.3   194  LEU194      0.1561
     68  C        -10.5910   -0.6260  -11.0750 C.2   194  LEU194      0.2260
     69  O        -11.1260   -1.6330  -10.5910 O.2   194  LEU194     -0.2867
     70  CB       -12.5770   -0.3890  -12.6110 C.3   194  LEU194      0.0270
     71  CG       -13.2310    0.1530  -13.8800 C.3   194  LEU194      0.0019
     72  CD1      -14.4930   -0.5460  -14.1440 C.3   194  LEU194      0.0001
     73  CD2      -13.4560    1.6110  -13.6970 C.3   194  LEU194      0.0001
     74  N        -10.3280   -0.3260   -7.4750 N.3   196  PHE196     -0.1241
     75  CA       -10.8750    0.4200   -6.3440 C.3   196  PHE196      0.1605
     76  C        -10.7040   -0.2840   -5.0090 C.2   196  PHE196      0.2264
     77  O        -11.2300    0.2040   -4.0060 O.2   196  PHE196     -0.2867
     78  CB       -12.3510    0.7130   -6.5790 C.3   196  PHE196      0.0534
     79  CG       -12.6190    1.4930   -7.8510 C.ar  196  PHE196     -0.0203
     80  CD1      -11.7870    2.5230   -8.2360 C.ar  196  PHE196     -0.0042
     81  CD2      -13.7000    1.1760   -8.6620 C.ar  196  PHE196     -0.0042
     82  CE1      -12.0190    3.2310   -9.4050 C.ar  196  PHE196     -0.0003
     83  CE2      -13.9360    1.8960   -9.8660 C.ar  196  PHE196     -0.0003
     84  CZ       -13.1030    2.9240  -10.2140 C.ar  196  PHE196     -0.0000
     85  N        -20.6530   -3.6890  -17.8460 N.3   222  HIS222     -0.1241
     86  CA       -21.1930   -2.5410  -18.5520 C.3   222  HIS222      0.1621
     87  C        -20.8000   -2.6730  -20.0170 C.2   222  HIS222      0.2264
     88  O        -19.6570   -3.0350  -20.3210 O.2   222  HIS222     -0.2867
     89  CB       -20.6250   -1.2200  -17.9590 C.3   222  HIS222      0.0745
     90  CG       -20.7270   -1.1520  -16.4670 C.ar  222  HIS222      0.0817
     91  ND1      -21.8960   -0.8310  -15.8140 N.ar  222  HIS222     -0.2268
     92  CD2      -19.8190   -1.4230  -15.5000 C.ar  222  HIS222      0.1154
     93  CE1      -21.6910   -0.8940  -14.5090 C.ar  222  HIS222      0.1986
     94  NE2      -20.4400   -1.2540  -14.2930 N.ar  222  HIS222     -0.2212
     95  N        -20.0700    6.7430  -18.3130 N.3   274  SER274     -0.1217
     96  CA       -20.9510    6.2720  -17.2570 C.3   274  SER274      0.1889
     97  C        -21.8440    7.3630  -16.6750 C.2   274  SER274      0.2288
     98  O        -22.4720    7.1370  -15.6350 O.2   274  SER274     -0.2866
     99  CB       -20.1130    5.6360  -16.1300 C.3   274  SER274      0.2089
    100  OG       -19.3350    6.6220  -15.4900 O.3   274  SER274     -0.2183
    101  N        -25.4770    6.6450  -15.1720 N.3   277  PHE277     -0.1227
    102  CA       -25.7160    5.7160  -14.0690 C.3   277  PHE277      0.1736
    103  C        -24.7030    5.8700  -12.9340 C.2   277  PHE277      0.2595
    104  O        -24.7130    5.0620  -12.0060 O.2   277  PHE277     -0.2718
    105  CB       -25.7320    4.2560  -14.5570 C.3   277  PHE277      0.0547
    106  CG       -24.3800    3.6860  -14.8910 C.ar  277  PHE277     -0.0202
    107  CD1      -23.5950    3.0920  -13.9150 C.ar  277  PHE277     -0.0042
    108  CD2      -23.8970    3.7070  -16.2030 C.ar  277  PHE277     -0.0042
    109  CE1      -22.3500    2.5680  -14.2220 C.ar  277  PHE277     -0.0003
    110  CE2      -22.6370    3.1650  -16.5100 C.ar  277  PHE277     -0.0003
    111  CZ       -21.8800    2.6000  -15.5200 C.ar  277  PHE277     -0.0000
    112  N        -23.8590    6.8780  -12.9760 N.am  278  LEU278     -0.1980
    113  CA       -22.8570    7.1200  -11.9460 C.3   278  LEU278      0.1596
    114  C        -22.8490    8.5980  -11.5840 C.2   278  LEU278      0.2287
    115  O        -22.5240    9.4160  -12.4390 O.2   278  LEU278     -0.2864
    116  CB       -21.4760    6.7230  -12.4620 C.3   278  LEU278      0.0297
    117  CG       -20.4720    6.1180  -11.5010 C.3   278  LEU278      0.0022
    118  CD1      -20.5000    4.5770  -11.5230 C.3   278  LEU278      0.0001
    119  CD2      -19.1110    6.6450  -11.8840 C.3   278  LEU278      0.0001
    120  N        -18.9340   10.6480   -7.8360 N.3   282  LEU282     -0.1231
    121  CA       -18.4120    9.3000   -7.6050 C.3   282  LEU282      0.1693
    122  C        -17.3760    8.9240   -8.6510 C.2   282  LEU282      0.2592
    123  O        -16.3660    8.2850   -8.3230 O.2   282  LEU282     -0.2718
    124  CB       -19.5290    8.2690   -7.5740 C.3   282  LEU282      0.0284
    125  CG       -19.0670    6.8420   -7.2150 C.3   282  LEU282      0.0019
    126  CD1      -18.1740    6.7390   -5.9610 C.3   282  LEU282      0.0001
    127  CD2      -20.2480    5.9420   -7.0230 C.3   282  LEU282      0.0001
    128  N        -17.5770    9.3240   -9.9040 N.am  283  HIS283     -0.1976
    129  CA       -16.5800    8.9880  -10.9080 C.3   283  HIS283      0.1656
    130  C        -15.2490    9.6500  -10.5950 C.2   283  HIS283      0.2291
    131  O        -14.2120    8.9790  -10.5600 O.2   283  HIS283     -0.2864
    132  CB       -17.0110    9.3670  -12.3230 C.3   283  HIS283      0.0771
    133  CG       -16.0700    8.8240  -13.3530 C.ar  283  HIS283      0.0820
    134  ND1      -14.9450    9.5100  -13.7610 N.ar  283  HIS283     -0.2267
    135  CD2      -16.0090    7.6090  -13.9500 C.ar  283  HIS283      0.1154
    136  CE1      -14.2710    8.7660  -14.6210 C.ar  283  HIS283      0.1986
    137  NE2      -14.8940    7.6080  -14.7500 N.ar  283  HIS283     -0.2212
    138  N        -13.7720    8.1840   -7.5060 N.3   286  SER286     -0.1202
    139  CA       -13.2920    6.8380   -7.8150 C.3   286  SER286      0.2020
    140  C        -11.9610    6.8760   -8.5560 C.2   286  SER286      0.2618
    141  O        -11.0680    6.0790   -8.2760 O.2   286  SER286     -0.2717
    142  CB       -14.3360    6.0950   -8.6390 C.3   286  SER286      0.2103
    143  OG       -15.4540    5.7750   -7.8420 O.3   286  SER286     -0.2182
    144  N        -11.8130    7.7770   -9.5200 N.am  287  MET287     -0.1979
    145  CA       -10.5140    7.9550  -10.1550 C.3   287  MET287      0.1605
    146  C         -9.4380    8.2860   -9.1170 C.2   287  MET287      0.2287
    147  O         -8.3240    7.7520   -9.1640 O.2   287  MET287     -0.2864
    148  CB       -10.6040    9.0660  -11.2020 C.3   287  MET287      0.0413
    149  CG       -11.5190    8.7620  -12.4000 C.3   287  MET287      0.0598
    150  SD       -11.1020    7.2610  -13.2820 S.3   287  MET287     -0.1393
    151  CE       -12.2820    6.1090  -12.5820 C.3   287  MET287      0.0692
    152  N         -9.4720    7.6180   -5.7610 N.3   289  ARG289     -0.1245
    153  CA        -9.2430    6.4200   -4.9490 C.3   289  ARG289      0.1563
    154  C         -8.3330    5.4250   -5.6650 C.2   289  ARG289      0.2260
    155  O         -7.4250    4.8490   -5.0570 O.2   289  ARG289     -0.2867
    156  CB       -10.5750    5.7300   -4.6070 C.3   289  ARG289      0.0307
    157  CG       -10.4340    4.5600   -3.6610 C.3   289  ARG289      0.0489
    158  CD       -11.7450    3.8100   -3.5770 C.3   289  ARG289      0.2205
    159  NE       -12.8090    4.5720   -2.9200 N.pl3 289  ARG289     -0.0865
    160  CZ       -14.0950    4.5030   -3.2580 C.cat 289  ARG289      0.5346
    161  NH1      -14.4750    3.7160   -4.2590 N.pl3 289  ARG289      0.1354
    162  NH2      -14.9970    5.2190   -2.6040 N.pl3 289  ARG289      0.1354
@<TRIPOS>BOND
     1    88    87    2
     2    87    86    1
     3    60    59    2
     4    59    58    1
     5    86    89    1
     6    86    85    1
     7    62    63    1
     8    62    61    1
     9    95    96    1
    10    58    61    1
    11    58    57    1
    12    63    65   ar
    13    63    64   ar
    14    89    90    1
    15    96    97    1
    16    96    99    1
    17    97    98    2
    18   110   108   ar
    19   110   111   ar
    20    90    91   ar
    21    90    92   ar
    22   108   106   ar
    23    99   100    1
    24    91    93   ar
    25   111   109   ar
    26    92    94   ar
    27   101   102    1
    28   106   105    1
    29   106   107   ar
    30   137   136   ar
    31   137   135   ar
    32   136   134   ar
    33   105   102    1
    34    93    94   ar
    35   109   107   ar
    36    72    71    1
    37   102   103    1
    38   135   133   ar
    39    55    54   ar
    40    71    73    1
    41    71    70    1
    42   134   133   ar
    43    50    51    1
    44    50    49    1
    45    50    53    1
    46    66    67    1
    47    51    52    2
    48   133   132    1
    49   150   151    1
    50   150   149    1
    51   112   103   am
    52   112   113    1
    53   103   104    2
    54    54    53    1
    55    54    56   ar
    56    70    67    1
    57   116   113    1
    58   116   117    1
    59   115   114    2
    60   149   148    1
    61    67    68    1
    62   132   129    1
    63   113   114    1
    64   119   117    1
    65    30    28   ar
    66   118   117    1
    67    26    25    2
    68   148   145    1
    69    68    69    2
    70   129   130    1
    71   129   128    1
    72    27    28    1
    73    27    24    1
    74   130   131    2
    75    28    29   ar
    76    84    83   ar
    77    84    82   ar
    78    25    24    1
    79    45    47   ar
    80    45    44   ar
    81   145   144    1
    82   145   146    1
    83    47    48   ar
    84   128   122   am
    85    83    81   ar
    86    22    21    1
    87    24    23    1
    88   144   140   am
    89    44    43    1
    90    44    46   ar
    91    48    46   ar
    92    82    80   ar
    93    43    40    1
    94   147   146    2
    95    21    19   ar
    96    21    20   ar
    97    81    79   ar
    98   122   123    2
    99   122   121    1
   100   142   143    1
   101   142   139    1
   102    19    17   ar
   103   140   141    2
   104   140   139    1
   105    23    13   am
   106    40    39    1
   107    40    41    1
   108    80    79   ar
   109    20    18   ar
   110    79    78    1
   111   120   121    1
   112   139   138    1
   113   121   124    1
   114   124   125    1
   115    17    16   ar
   116    14    13    2
   117    74    75    1
   118     7     9   ar
   119     7     6   ar
   120    13    12    1
   121   125   127    1
   122   125   126    1
   123    41    42    2
   124     5     6    1
   125     5     2    1
   126    18    16   ar
   127     9    10   ar
   128    16    15    1
   129     4     3    2
   130    78    75    1
   131     6     8   ar
   132    34    33    2
   133    75    76    1
   134     3    11   am
   135     3     2    1
   136    12    11    1
   137    12    15    1
   138     2     1    1
   139   152   153    1
   140   154   155    2
   141   154   153    1
   142    33    32    1
   143    10     8   ar
   144    76    77    2
   145   153   156    1
   146    35    32    1
   147    35    36    1
   148   156   157    1
   149    32    31    1
   150    38    36    1
   151   161   160    1
   152    37    36    1
   153   157   158    1
   154   158   159    1
   155   160   159    2
   156   160   162    1
