@<TRIPOS>MOLECULE
tmp/5hiqA00.pdb
 162 156 0 0 0
SMALL
GASTEIGER

@<TRIPOS>ATOM
      1  N        -21.0480   -3.9650   -5.2800 N.3    73  HIS73      -0.1226
      2  CA       -21.1980   -2.5630   -5.6430 C.3    73  HIS73       0.1752
      3  C        -22.6520   -2.2470   -5.9740 C.2    73  HIS73       0.2596
      4  O        -23.4050   -3.0970   -6.4580 O.2    73  HIS73      -0.2718
      5  CB       -20.2960   -2.2150   -6.8260 C.3    73  HIS73       0.0759
      6  CG       -18.8590   -2.0280   -6.4520 C.ar   73  HIS73       0.0818
      7  ND1      -17.8400   -2.0280   -7.3810 N.ar   73  HIS73      -0.2268
      8  CD2      -18.2710   -1.8320   -5.2480 C.ar   73  HIS73       0.1154
      9  CE1      -16.6870   -1.8400   -6.7640 C.ar   73  HIS73       0.1986
     10  NE2      -16.9200   -1.7200   -5.4700 N.ar   73  HIS73      -0.2212
     11  N        -23.0370   -0.9950   -5.7110 N.am   74  TYR74      -0.1962
     12  CA       -24.4360   -0.5930   -5.8220 C.3    74  TYR74       0.1771
     13  C        -25.0010   -0.8540   -7.2120 C.2    74  TYR74       0.2619
     14  O        -26.2040   -1.1070   -7.3530 O.2    74  TYR74      -0.2715
     15  CB       -24.5760    0.8900   -5.4820 C.3    74  TYR74       0.0574
     16  CG       -24.1800    1.7900   -6.6280 C.ar   74  TYR74      -0.0198
     17  CD1      -25.1410    2.3460   -7.4630 C.ar   74  TYR74      -0.0009
     18  CD2      -22.8460    2.0630   -6.8910 C.ar   74  TYR74      -0.0009
     19  CE1      -24.7850    3.1590   -8.5160 C.ar   74  TYR74       0.0417
     20  CE2      -22.4790    2.8760   -7.9430 C.ar   74  TYR74       0.0417
     21  CZ       -23.4530    3.4200   -8.7530 C.ar   74  TYR74       0.1957
     22  OH       -23.0920    4.2310   -9.8040 O.3    74  TYR74      -0.2866
     23  N        -24.1670   -0.7800   -8.2470 N.am   75  ASP75      -0.1971
     24  CA       -24.6180   -0.9460   -9.6220 C.3    75  ASP75       0.1709
     25  C        -24.6230   -2.4030  -10.0710 C.2    75  ASP75       0.2293
     26  O        -24.7830   -2.6660  -11.2670 O.2    75  ASP75      -0.2864
     27  CB       -23.7450   -0.1150  -10.5720 C.3    75  ASP75       0.1436
     28  CG       -22.2580   -0.3610  -10.3730 C.2    75  ASP75       0.3671
     29  OD1      -21.8220   -0.4070   -9.2050 O.co2  75  ASP75      -0.2456
     30  OD2      -21.5260   -0.5180  -11.3780 O.co2  75  ASP75      -0.2456
     31  N        -26.6200    5.4920   -2.9690 N.3   114  LEU114     -0.1245
     32  CA       -26.1710    5.7230   -4.3380 C.3   114  LEU114      0.1561
     33  C        -27.2620    5.4050   -5.3510 C.2   114  LEU114      0.2260
     34  O        -27.3640    6.0780   -6.3840 O.2   114  LEU114     -0.2867
     35  CB       -24.9190    4.8930   -4.6250 C.3   114  LEU114      0.0270
     36  CG       -23.6720    5.2770   -3.8230 C.3   114  LEU114      0.0019
     37  CD1      -22.5690    4.2470   -4.0130 C.3   114  LEU114      0.0001
     38  CD2      -23.1790    6.6630   -4.2180 C.3   114  LEU114      0.0001
     39  N        -10.7110   -5.2700   -7.9150 N.3   161  HIS161     -0.1241
     40  CA       -11.7160   -4.2270   -8.0890 C.3   161  HIS161      0.1621
     41  C        -12.4710   -3.9950   -6.7880 C.2   161  HIS161      0.2264
     42  O        -12.6650   -2.8520   -6.3570 O.2   161  HIS161     -0.2867
     43  CB       -12.6790   -4.6210   -9.2100 C.3   161  HIS161      0.0745
     44  CG       -13.8660   -3.7170   -9.3370 C.ar  161  HIS161      0.0817
     45  ND1      -13.7890   -2.4590   -9.8950 N.ar  161  HIS161     -0.2268
     46  CD2      -15.1600   -3.8920   -8.9810 C.ar  161  HIS161      0.1154
     47  CE1      -14.9850   -1.8980   -9.8780 C.ar  161  HIS161      0.1986
     48  NE2      -15.8360   -2.7470   -9.3290 N.ar  161  HIS161     -0.2212
     49  N        -16.5730   -6.3130  -13.2420 N.3   180  ASP180     -0.1239
     50  CA       -15.6630   -5.1840  -13.3890 C.3   180  ASP180      0.1674
     51  C        -14.2000   -5.5760  -13.2110 C.2   180  ASP180      0.2266
     52  O        -13.3410   -4.6930  -13.1190 O.2   180  ASP180     -0.2867
     53  CB       -16.0200   -4.0840  -12.3860 C.3   180  ASP180      0.1410
     54  CG       -17.3940   -3.4890  -12.6330 C.2   180  ASP180      0.3668
     55  OD1      -17.9400   -3.6910  -13.7390 O.co2 180  ASP180     -0.2456
     56  OD2      -17.9230   -2.8180  -11.7180 O.co2 180  ASP180     -0.2456
     57  N        -13.3780   -0.9690  -17.1600 N.3   184  GLU184     -0.1245
     58  CA       -14.4540   -0.4200  -17.9770 C.3   184  GLU184      0.1567
     59  C        -13.9920   -0.3890  -19.4260 C.2   184  GLU184      0.2260
     60  O        -13.0050    0.2780  -19.7500 O.2   184  GLU184     -0.2867
     61  CB       -14.8310    0.9860  -17.5050 C.3   184  GLU184      0.0388
     62  CG       -16.0370    1.5880  -18.2050 C.3   184  GLU184      0.1160
     63  CD       -16.2650    3.0380  -17.8140 C.2   184  GLU184      0.3649
     64  OE1      -15.2880    3.7110  -17.4210 O.co2 184  GLU184     -0.2457
     65  OE2      -17.4210    3.5040  -17.8960 O.co2 184  GLU184     -0.2457
     66  N        -10.1950   -0.3400  -13.2740 N.3   195  LEU195     -0.1245
     67  CA       -11.0660    0.0020  -12.1440 C.3   195  LEU195      0.1561
     68  C        -10.4980   -0.6800  -10.8990 C.2   195  LEU195      0.2260
     69  O        -11.0190   -1.7010  -10.4410 O.2   195  LEU195     -0.2867
     70  CB       -12.5050   -0.4230  -12.4080 C.3   195  LEU195      0.0270
     71  CG       -13.2000    0.1740  -13.6300 C.3   195  LEU195      0.0019
     72  CD1      -14.5400   -0.5090  -13.8410 C.3   195  LEU195      0.0001
     73  CD2      -13.3770    1.6760  -13.4740 C.3   195  LEU195      0.0001
     74  N        -10.1940   -0.3210   -7.2760 N.3   197  PHE197     -0.1241
     75  CA       -10.7840    0.4100   -6.1610 C.3   197  PHE197      0.1605
     76  C        -10.5670   -0.2780   -4.8180 C.2   197  PHE197      0.2264
     77  O        -11.1440    0.1570   -3.8150 O.2   197  PHE197     -0.2867
     78  CB       -12.2810    0.6110   -6.4060 C.3   197  PHE197      0.0534
     79  CG       -12.5980    1.3550   -7.6760 C.ar  197  PHE197     -0.0203
     80  CD1      -11.7470    2.3390   -8.1540 C.ar  197  PHE197     -0.0042
     81  CD2      -13.7480    1.0660   -8.3950 C.ar  197  PHE197     -0.0042
     82  CE1      -12.0380    3.0210   -9.3230 C.ar  197  PHE197     -0.0003
     83  CE2      -14.0440    1.7450   -9.5650 C.ar  197  PHE197     -0.0003
     84  CZ       -13.1870    2.7230  -10.0290 C.ar  197  PHE197     -0.0000
     85  N        -20.5160   -3.8310  -17.6370 N.3   223  HIS223     -0.1241
     86  CA       -21.0130   -2.6570  -18.3430 C.3   223  HIS223      0.1621
     87  C        -20.5850   -2.7400  -19.8010 C.2   223  HIS223      0.2264
     88  O        -19.4280   -3.0600  -20.0890 O.2   223  HIS223     -0.2867
     89  CB       -20.4750   -1.3630  -17.7110 C.3   223  HIS223      0.0745
     90  CG       -20.5370   -1.3450  -16.2130 C.ar  223  HIS223      0.0817
     91  ND1      -21.6680   -0.9710  -15.5200 N.ar  223  HIS223     -0.2268
     92  CD2      -19.6070   -1.6500  -15.2760 C.ar  223  HIS223      0.1154
     93  CE1      -21.4340   -1.0490  -14.2220 C.ar  223  HIS223      0.1986
     94  NE2      -20.1900   -1.4590  -14.0460 N.ar  223  HIS223     -0.2212
     95  N        -20.1640    6.6600  -17.8890 N.3   275  SER275     -0.1217
     96  CA       -20.9850    6.1650  -16.7890 C.3   275  SER275      0.1889
     97  C        -21.8170    7.2650  -16.1380 C.2   275  SER275      0.2288
     98  O        -22.3080    7.0820  -15.0190 O.2   275  SER275     -0.2866
     99  CB       -20.1020    5.4920  -15.7390 C.3   275  SER275      0.2089
    100  OG       -19.2520    6.4360  -15.1100 O.3   275  SER275     -0.2183
    101  N        -25.5660    6.5430  -14.9350 N.3   278  PHE278     -0.1227
    102  CA       -25.8300    5.6540  -13.8110 C.3   278  PHE278      0.1736
    103  C        -24.7960    5.7940  -12.7000 C.2   278  PHE278      0.2595
    104  O        -24.7900    4.9720  -11.7750 O.2   278  PHE278     -0.2718
    105  CB       -25.8870    4.1910  -14.2770 C.3   278  PHE278      0.0547
    106  CG       -24.5470    3.6150  -14.6430 C.ar  278  PHE278     -0.0202
    107  CD1      -23.7840    2.9450  -13.7000 C.ar  278  PHE278     -0.0042
    108  CD2      -24.0540    3.7350  -15.9310 C.ar  278  PHE278     -0.0042
    109  CE1      -22.5540    2.4140  -14.0330 C.ar  278  PHE278     -0.0003
    110  CE2      -22.8220    3.2020  -16.2690 C.ar  278  PHE278     -0.0003
    111  CZ       -22.0730    2.5430  -15.3190 C.ar  278  PHE278     -0.0000
    112  N        -23.9290    6.8000  -12.7540 N.am  279  LEU279     -0.1980
    113  CA       -22.8800    6.9630  -11.7590 C.3   279  LEU279      0.1596
    114  C        -22.7150    8.4440  -11.4360 C.2   279  LEU279      0.2287
    115  O        -22.2790    9.2150  -12.3000 O.2   279  LEU279     -0.2864
    116  CB       -21.5660    6.3720  -12.2730 C.3   279  LEU279      0.0297
    117  CG       -20.5970    5.8470  -11.2150 C.3   279  LEU279      0.0022
    118  CD1      -20.3840    4.3480  -11.3890 C.3   279  LEU279      0.0001
    119  CD2      -19.2780    6.5920  -11.2880 C.3   279  LEU279      0.0001
    120  N        -18.9820   10.5230   -7.5860 N.3   283  LEU283     -0.1231
    121  CA       -18.5080    9.1710   -7.3110 C.3   283  LEU283      0.1693
    122  C        -17.4050    8.7710   -8.2840 C.2   283  LEU283      0.2592
    123  O        -16.4260    8.1280   -7.8890 O.2   283  LEU283     -0.2718
    124  CB       -19.6710    8.1800   -7.3760 C.3   283  LEU283      0.0284
    125  CG       -19.3220    6.6990   -7.1870 C.3   283  LEU283      0.0019
    126  CD1      -18.5650    6.4620   -5.8860 C.3   283  LEU283      0.0001
    127  CD2      -20.5820    5.8490   -7.2240 C.3   283  LEU283      0.0001
    128  N        -17.5390    9.1460   -9.5580 N.am  284  HIS284     -0.1976
    129  CA       -16.5120    8.7990  -10.5350 C.3   284  HIS284      0.1656
    130  C        -15.1990    9.5020  -10.2170 C.2   284  HIS284      0.2291
    131  O        -14.1490    8.8570  -10.1150 O.2   284  HIS284     -0.2864
    132  CB       -16.9760    9.1530  -11.9470 C.3   284  HIS284      0.0771
    133  CG       -16.0990    8.5910  -13.0220 C.ar  284  HIS284      0.0820
    134  ND1      -14.9330    9.2050  -13.4270 N.ar  284  HIS284     -0.2267
    135  CD2      -16.2070    7.4630  -13.7630 C.ar  284  HIS284      0.1154
    136  CE1      -14.3650    8.4820  -14.3760 C.ar  284  HIS284      0.1986
    137  NE2      -15.1180    7.4200  -14.5980 N.ar  284  HIS284     -0.2212
    138  N        -13.8090    7.9890   -7.2640 N.3   287  SER287     -0.1202
    139  CA       -13.3050    6.6620   -7.6040 C.3   287  SER287      0.2020
    140  C        -11.9480    6.7580   -8.2910 C.2   287  SER287      0.2618
    141  O        -11.0090    6.0350   -7.9390 O.2   287  SER287     -0.2717
    142  CB       -14.3120    5.9320   -8.4940 C.3   287  SER287      0.2103
    143  OG       -15.4730    5.5780   -7.7640 O.3   287  SER287     -0.2182
    144  N        -11.8270    7.6480   -9.2800 N.am  288  MET288     -0.1979
    145  CA       -10.5330    7.8740   -9.9120 C.3   288  MET288      0.1605
    146  C         -9.4820    8.2520   -8.8760 C.2   288  MET288      0.2287
    147  O         -8.3420    7.7770   -8.9330 O.2   288  MET288     -0.2864
    148  CB       -10.6480    8.9690  -10.9750 C.3   288  MET288      0.0413
    149  CG       -11.5970    8.6500  -12.1250 C.3   288  MET288      0.0598
    150  SD       -11.1720    7.1380  -13.0080 S.3   288  MET288     -0.1393
    151  CE       -12.2640    5.9580  -12.2140 C.3   288  MET288      0.0692
    152  N         -9.5130    7.4970   -5.5710 N.3   290  ARG290     -0.1245
    153  CA        -9.2160    6.3170   -4.7650 C.3   290  ARG290      0.1563
    154  C         -8.2930    5.3610   -5.5110 C.2   290  ARG290      0.2260
    155  O         -7.3840    4.7710   -4.9140 O.2   290  ARG290     -0.2867
    156  CB       -10.5130    5.6090   -4.3730 C.3   290  ARG290      0.0307
    157  CG       -10.3990    4.3540   -3.5020 C.3   290  ARG290      0.0489
    158  CD       -11.7440    3.7370   -3.0980 C.3   290  ARG290      0.2205
    159  NE       -12.8670    4.6910   -3.1050 N.pl3 290  ARG290     -0.0865
    160  CZ       -14.0490    4.4670   -3.7120 C.cat 290  ARG290      0.5346
    161  NH1      -14.2940    3.3090   -4.3680 N.pl3 290  ARG290      0.1354
    162  NH2      -15.0070    5.4140   -3.6580 N.pl3 290  ARG290      0.1354
@<TRIPOS>BOND
     1    88    87    2
     2    87    86    1
     3    60    59    2
     4    59    58    1
     5    86    89    1
     6    86    85    1
     7    62    63    1
     8    62    61    1
     9    58    61    1
    10    58    57    1
    11    65    63   ar
    12    95    96    1
    13    63    64   ar
    14    89    90    1
    15    96    97    1
    16    96    99    1
    17   110   108   ar
    18   110   111   ar
    19    90    91   ar
    20    90    92   ar
    21    97    98    2
    22   108   106   ar
    23    99   100    1
    24    91    93   ar
    25   111   109   ar
    26    92    94   ar
    27   101   102    1
    28   106   105    1
    29   106   107   ar
    30   137   136   ar
    31   137   135   ar
    32   136   134   ar
    33   105   102    1
    34    93    94   ar
    35   109   107   ar
    36    72    71    1
    37   102   103    1
    38   135   133   ar
    39    55    54   ar
    40    71    73    1
    41    71    70    1
    42   134   133   ar
    43    50    49    1
    44    50    51    1
    45    50    53    1
    46    66    67    1
    47    51    52    2
    48   133   132    1
    49   150   151    1
    50   150   149    1
    51   112   103   am
    52   112   113    1
    53   103   104    2
    54    54    53    1
    55    54    56   ar
    56    70    67    1
    57   115   114    2
    58   116   113    1
    59   116   117    1
    60    67    68    1
    61   149   148    1
    62   132   129    1
    63   113   114    1
    64   118   117    1
    65    30    28   ar
    66   119   117    1
    67    26    25    2
    68   148   145    1
    69    68    69    2
    70    27    28    1
    71    27    24    1
    72   129   130    1
    73   129   128    1
    74    28    29   ar
    75   130   131    2
    76    25    24    1
    77    84    83   ar
    78    84    82   ar
    79   145   144    1
    80   145   146    1
    81    45    47   ar
    82    45    44   ar
    83    47    48   ar
    84    22    21    1
    85    24    23    1
    86    83    81   ar
    87   128   122   am
    88    44    43    1
    89    44    46   ar
    90    48    46   ar
    91    82    80   ar
    92   144   140   am
    93    43    40    1
    94   147   146    2
    95    21    19   ar
    96    21    20   ar
    97    19    17   ar
    98   142   143    1
    99   142   139    1
   100    81    79   ar
   101   140   141    2
   102   140   139    1
   103   122   123    2
   104   122   121    1
   105    23    13   am
   106    80    79   ar
   107    40    39    1
   108    40    41    1
   109    20    18   ar
   110    79    78    1
   111   139   138    1
   112   120   121    1
   113    17    16   ar
   114     7     9   ar
   115     7     6   ar
   116   124   121    1
   117   124   125    1
   118    14    13    2
   119    74    75    1
   120   127   125    1
   121    13    12    1
   122   125   126    1
   123    18    16   ar
   124     5     6    1
   125     5     2    1
   126    41    42    2
   127     9    10   ar
   128    16    15    1
   129     4     3    2
   130     6     8   ar
   131    78    75    1
   132    34    33    2
   133    75    76    1
   134     3    11   am
   135     3     2    1
   136    12    11    1
   137    12    15    1
   138     2     1    1
   139   152   153    1
   140   154   155    2
   141   154   153    1
   142    10     8   ar
   143    33    32    1
   144    76    77    2
   145   153   156    1
   146    35    32    1
   147    35    36    1
   148   156   157    1
   149   161   160    1
   150    32    31    1
   151    38    36    1
   152    37    36    1
   153   160   162    1
   154   160   159    2
   155   157   158    1
   156   159   158    1
