@<TRIPOS>MOLECULE
tmp/5hisA00.pdb
 123 117 0 0 0
SMALL
GASTEIGER

@<TRIPOS>ATOM
      1  N        -21.0170   -3.7720   -5.3780 N.3    72  HIS72      -0.1241
      2  CA       -21.1560   -2.3650   -5.6960 C.3    72  HIS72       0.1621
      3  C        -22.5900   -2.0400   -6.0850 C.2    72  HIS72       0.2264
      4  O        -23.3410   -2.8860   -6.5720 O.2    72  HIS72      -0.2867
      5  CB       -20.1670   -1.9750   -6.7910 C.3    72  HIS72       0.0745
      6  CG       -18.7770   -1.8260   -6.2860 C.ar   72  HIS72       0.0817
      7  ND1      -17.6760   -1.7940   -7.1040 N.ar   72  HIS72      -0.2268
      8  CD2      -18.3110   -1.6350   -5.0270 C.ar   72  HIS72       0.1154
      9  CE1      -16.5880   -1.6320   -6.3870 C.ar   72  HIS72       0.1986
     10  NE2      -16.9440   -1.5130   -5.1230 N.ar   72  HIS72      -0.2212
     11  N        -24.0970   -0.5800   -8.3610 N.3    74  ASP74      -0.1239
     12  CA       -24.5150   -0.7610   -9.7380 C.3    74  ASP74       0.1674
     13  C        -24.4950   -2.2270  -10.1630 C.2    74  ASP74       0.2266
     14  O        -24.7410   -2.5210  -11.3320 O.2    74  ASP74      -0.2867
     15  CB       -23.6390    0.0930  -10.6610 C.3    74  ASP74       0.1410
     16  CG       -22.1230   -0.1730  -10.5180 C.2    74  ASP74       0.3668
     17  OD1      -21.5860   -0.2430   -9.3890 O.co2  74  ASP74      -0.2456
     18  OD2      -21.4430   -0.2430  -11.5650 O.co2  74  ASP74      -0.2456
     19  N        -10.7040   -5.2600   -8.0420 N.3   160  HIS160     -0.1241
     20  CA       -11.6630   -4.1810   -8.2680 C.3   160  HIS160      0.1621
     21  C        -12.3960   -3.8630   -6.9760 C.2   160  HIS160      0.2264
     22  O        -12.6520   -2.6930   -6.6510 O.2   160  HIS160     -0.2867
     23  CB       -12.6730   -4.5950   -9.3360 C.3   160  HIS160      0.0745
     24  CG       -13.8290   -3.6450   -9.4670 C.ar  160  HIS160      0.0817
     25  ND1      -13.7220   -2.4640  -10.1610 N.ar  160  HIS160     -0.2268
     26  CD2      -15.1180   -3.7090   -9.0320 C.ar  160  HIS160      0.1154
     27  CE1      -14.8840   -1.8240  -10.1360 C.ar  160  HIS160      0.1986
     28  NE2      -15.7560   -2.5640   -9.4750 N.ar  160  HIS160     -0.2212
     29  N        -16.5730   -6.2290  -13.2530 N.3   179  ASP179     -0.1239
     30  CA       -15.7040   -5.0720  -13.4380 C.3   179  ASP179      0.1674
     31  C        -14.2310   -5.4560  -13.3010 C.2   179  ASP179      0.2266
     32  O        -13.3860   -4.5820  -13.1830 O.2   179  ASP179     -0.2867
     33  CB       -16.0520   -3.9490  -12.4500 C.3   179  ASP179      0.1410
     34  CG       -17.4120   -3.2740  -12.7240 C.2   179  ASP179      0.3668
     35  OD1      -17.9150   -3.3870  -13.8580 O.co2 179  ASP179     -0.2456
     36  OD2      -17.9480   -2.6720  -11.7420 O.co2 179  ASP179     -0.2456
     37  N        -13.3160   -0.9880  -17.3320 N.3   183  GLU183     -0.1245
     38  CA       -14.3970   -0.4330  -18.1340 C.3   183  GLU183      0.1567
     39  C        -13.9720   -0.4540  -19.5930 C.2   183  GLU183      0.2260
     40  O        -12.9330    0.0960  -19.9390 O.2   183  GLU183     -0.2867
     41  CB       -14.7070    1.0020  -17.6670 C.3   183  GLU183      0.0388
     42  CG       -15.8530    1.6690  -18.4300 C.3   183  GLU183      0.1160
     43  CD       -16.0030    3.2100  -18.1290 C.2   183  GLU183      0.3649
     44  OE1      -14.9920    3.9360  -17.9110 O.co2 183  GLU183     -0.2457
     45  OE2      -17.1450    3.7050  -18.1590 O.co2 183  GLU183     -0.2457
     46  N        -10.1800   -0.3350  -13.4200 N.3   194  LEU194     -0.1245
     47  CA       -11.0560    0.0350  -12.2870 C.3   194  LEU194      0.1561
     48  C        -10.5250   -0.6520  -11.0090 C.2   194  LEU194      0.2260
     49  O        -11.0530   -1.6830  -10.5720 O.2   194  LEU194     -0.2867
     50  CB       -12.4920   -0.3850  -12.5620 C.3   194  LEU194      0.0270
     51  CG       -13.1540    0.2510  -13.7770 C.3   194  LEU194      0.0019
     52  CD1      -14.4540   -0.5140  -14.0050 C.3   194  LEU194      0.0001
     53  CD2      -13.3710    1.7160  -13.5890 C.3   194  LEU194      0.0001
     54  N        -10.2040   -0.4600   -7.3460 N.3   196  PHE196     -0.1241
     55  CA       -10.7230    0.2970   -6.2140 C.3   196  PHE196      0.1605
     56  C        -10.4830   -0.3780   -4.8790 C.2   196  PHE196      0.2264
     57  O        -10.8160    0.2030   -3.8450 O.2   196  PHE196     -0.2867
     58  CB       -12.2090    0.5640   -6.4160 C.3   196  PHE196      0.0534
     59  CG       -12.5160    1.3310   -7.6770 C.ar  196  PHE196     -0.0203
     60  CD1      -11.7380    2.4120   -8.0520 C.ar  196  PHE196     -0.0042
     61  CD2      -13.5850    0.9720   -8.4740 C.ar  196  PHE196     -0.0042
     62  CE1      -12.0160    3.1060   -9.2120 C.ar  196  PHE196     -0.0003
     63  CE2      -13.8820    1.6770   -9.6480 C.ar  196  PHE196     -0.0003
     64  CZ       -13.1050    2.7380  -10.0100 C.ar  196  PHE196     -0.0000
     65  N        -20.5700   -3.6890  -17.8220 N.3   222  HIS222     -0.1241
     66  CA       -21.0710   -2.5200  -18.5290 C.3   222  HIS222      0.1621
     67  C        -20.6720   -2.6390  -19.9890 C.2   222  HIS222      0.2264
     68  O        -19.5260   -3.0170  -20.2810 O.2   222  HIS222     -0.2867
     69  CB       -20.4820   -1.2330  -17.9630 C.3   222  HIS222      0.0745
     70  CG       -20.6000   -1.1390  -16.4830 C.ar  222  HIS222      0.0817
     71  ND1      -21.7810   -0.7920  -15.8630 N.ar  222  HIS222     -0.2268
     72  CD2      -19.7230   -1.4390  -15.4950 C.ar  222  HIS222      0.1154
     73  CE1      -21.6080   -0.8550  -14.5500 C.ar  222  HIS222      0.1986
     74  NE2      -20.3650   -1.2140  -14.3100 N.ar  222  HIS222     -0.2212
     75  N        -19.8610    6.7850  -18.4280 N.3   274  SER274     -0.1217
     76  CA       -20.7130    6.2780  -17.3660 C.3   274  SER274      0.1889
     77  C        -21.6100    7.3400  -16.7420 C.2   274  SER274      0.2288
     78  O        -22.2760    7.0620  -15.7440 O.2   274  SER274     -0.2866
     79  CB       -19.8420    5.6160  -16.2870 C.3   274  SER274      0.2089
     80  OG       -19.1250    6.6020  -15.5490 O.3   274  SER274     -0.2183
     81  N        -25.1550    6.6180  -15.0680 N.3   277  PHE277     -0.1227
     82  CA       -25.3680    5.7400  -13.9260 C.3   277  PHE277      0.1736
     83  C        -24.3400    5.9090  -12.8110 C.2   277  PHE277      0.2595
     84  O        -24.3880    5.1490  -11.8430 O.2   277  PHE277     -0.2718
     85  CB       -25.4150    4.2540  -14.3640 C.3   277  PHE277      0.0547
     86  CG       -24.1210    3.6950  -14.8750 C.ar  277  PHE277     -0.0202
     87  CD1      -23.2470    3.0170  -14.0190 C.ar  277  PHE277     -0.0042
     88  CD2      -23.7780    3.7840  -16.2250 C.ar  277  PHE277     -0.0042
     89  CE1      -22.0500    2.4750  -14.4820 C.ar  277  PHE277     -0.0003
     90  CE2      -22.5810    3.2290  -16.6950 C.ar  277  PHE277     -0.0003
     91  CZ       -21.7140    2.5760  -15.8250 C.ar  277  PHE277     -0.0000
     92  N        -23.4200    6.8570  -12.9100 N.am  278  LEU278     -0.1980
     93  CA       -22.4850    7.1380  -11.8180 C.3   278  LEU278      0.1596
     94  C        -22.7510    8.5650  -11.3580 C.2   278  LEU278      0.2287
     95  O        -22.4360    9.5110  -12.1010 O.2   278  LEU278     -0.2864
     96  CB       -21.0320    6.9700  -12.2710 C.3   278  LEU278      0.0297
     97  CG       -20.1020    6.0320  -11.4810 C.3   278  LEU278      0.0022
     98  CD1      -20.0760    4.6220  -12.0390 C.3   278  LEU278      0.0001
     99  CD2      -18.7060    6.5910  -11.4910 C.3   278  LEU278      0.0001
    100  N        -17.4620    9.5680  -10.1420 N.3   283  HIS283     -0.1241
    101  CA       -16.4150    9.1600  -11.0730 C.3   283  HIS283      0.1621
    102  C        -15.0860    9.7920  -10.7040 C.2   283  HIS283      0.2264
    103  O        -14.0760    9.0960  -10.5710 O.2   283  HIS283     -0.2867
    104  CB       -16.7460    9.5070  -12.5200 C.3   283  HIS283      0.0745
    105  CG       -15.8000    8.8650  -13.4890 C.ar  283  HIS283      0.0817
    106  ND1      -14.6590    9.4940  -13.9370 N.ar  283  HIS283     -0.2268
    107  CD2      -15.7930    7.6270  -14.0400 C.ar  283  HIS283      0.1154
    108  CE1      -13.9990    8.6760  -14.7390 C.ar  283  HIS283      0.1986
    109  NE2      -14.6660    7.5330  -14.8200 N.ar  283  HIS283     -0.2212
    110  N        -13.7790    8.2060   -7.6540 N.3   286  SER286     -0.1202
    111  CA       -13.3220    6.8570   -7.9400 C.3   286  SER286      0.2020
    112  C        -11.9460    6.8750   -8.5860 C.2   286  SER286      0.2618
    113  O        -11.0720    6.0670   -8.2240 O.2   286  SER286     -0.2717
    114  CB       -14.3370    6.1540   -8.8400 C.3   286  SER286      0.2103
    115  OG       -15.5180    5.9100   -8.0890 O.3   286  SER286     -0.2182
    116  N        -11.7270    7.7880   -9.5350 N.am  287  MET287     -0.1979
    117  CA       -10.4090    7.9310  -10.1410 C.3   287  MET287      0.1605
    118  C         -9.3470    8.2590   -9.0970 C.2   287  MET287      0.2287
    119  O         -8.2360    7.7050   -9.1200 O.2   287  MET287     -0.2864
    120  CB       -10.4380    9.0220  -11.2130 C.3   287  MET287      0.0413
    121  CG       -11.3410    8.7000  -12.4350 C.3   287  MET287      0.0598
    122  SD       -10.9360    7.2110  -13.3210 S.3   287  MET287     -0.1393
    123  CE       -12.1320    6.0770  -12.5880 C.3   287  MET287      0.0692
@<TRIPOS>BOND
     1    68    67    2
     2    67    66    1
     3    40    39    2
     4    39    38    1
     5    66    69    1
     6    66    65    1
     7    42    43    1
     8    42    41    1
     9    75    76    1
    10    45    43   ar
    11    38    41    1
    12    38    37    1
    13    43    44   ar
    14    69    70    1
    15    76    77    1
    16    76    79    1
    17    77    78    2
    18    90    88   ar
    19    90    91   ar
    20    70    71   ar
    21    70    72   ar
    22    79    80    1
    23    88    86   ar
    24    71    73   ar
    25    91    89   ar
    26    72    74   ar
    27    81    82    1
    28    86    85    1
    29    86    87   ar
    30   109   108   ar
    31   109   107   ar
    32   108   106   ar
    33    73    74   ar
    34    89    87   ar
    35    85    82    1
    36   107   105   ar
    37    52    51    1
    38   106   105   ar
    39    82    83    1
    40    35    34   ar
    41    51    53    1
    42    51    50    1
    43   105   104    1
    44    30    31    1
    45    30    29    1
    46    30    33    1
    47    46    47    1
    48   122   123    1
    49   122   121    1
    50    31    32    2
    51    92    83   am
    52    92    93    1
    53    83    84    2
    54    34    33    1
    55    34    36   ar
    56    50    47    1
    57   104   101    1
    58   121   120    1
    59    47    48    1
    60    96    93    1
    61    96    97    1
    62    95    94    2
    63    98    97    1
    64    93    94    1
    65    18    16   ar
    66    99    97    1
    67    14    13    2
    68   120   117    1
    69   101   102    1
    70   101   100    1
    71    48    49    2
    72   102   103    2
    73    15    16    1
    74    15    12    1
    75    16    17   ar
    76    13    12    1
    77    25    27   ar
    78    25    24   ar
    79   117   116    1
    80   117   118    1
    81    27    28   ar
    82    64    63   ar
    83    64    62   ar
    84    12    11    1
    85    63    61   ar
    86   116   112   am
    87    28    26   ar
    88    24    23    1
    89    24    26   ar
    90    23    20    1
    91    62    60   ar
    92   119   118    2
    93   114   115    1
    94   114   111    1
    95   112   113    2
    96   112   111    1
    97    61    59   ar
    98    20    19    1
    99    20    21    1
   100    60    59   ar
   101   111   110    1
   102    59    58    1
   103    54    55    1
   104     7     9   ar
   105     7     6   ar
   106    21    22    2
   107     5     6    1
   108     5     2    1
   109     4     3    2
   110    58    55    1
   111     9    10   ar
   112     6     8   ar
   113    55    56    1
   114     3     2    1
   115     2     1    1
   116    10     8   ar
   117    56    57    2
