@<TRIPOS>MOLECULE
tmp/5hj5B00.pdb
 159 155 0 0 0
SMALL
GASTEIGER

@<TRIPOS>ATOM
      1  N         10.4050   42.8380    8.1940 N.3    40  PRO40      -0.2102
      2  CA         9.4780   42.3620    7.1580 C.3    40  PRO40       0.1504
      3  C          9.7740   40.9380    6.7150 C.2    40  PRO40       0.2576
      4  O         10.8640   40.4140    6.9700 O.2    40  PRO40      -0.2718
      5  CB         9.7490   43.3370    6.0100 C.3    40  PRO40       0.0282
      6  CG        11.2780   43.5040    6.1000 C.3    40  PRO40       0.0208
      7  CD        11.6340   43.3940    7.5930 C.3    40  PRO40       0.0893
      8  N          8.8280   40.3070    6.0240 N.am   41  THR41      -0.1939
      9  CA         9.1620   39.1080    5.2650 C.3    41  THR41       0.2028
     10  C          9.2520   39.4770    3.7880 C.2    41  THR41       0.2643
     11  O          9.5590   40.6260    3.4510 O.2    41  THR41      -0.2714
     12  CB         8.1310   37.9980    5.5040 C.3    41  THR41       0.1808
     13  OG1        6.8260   38.4710    5.1460 O.3    41  THR41      -0.2208
     14  CG2        8.1270   37.5750    6.9910 C.3    41  THR41       0.0379
     15  N          8.9800   38.5210    2.9000 N.am   42  GLY42      -0.1939
     16  CA         9.1310   38.7400    1.4750 C.3    42  GLY42       0.2014
     17  C         10.5250   38.3970    0.9900 C.2    42  GLY42       0.2639
     18  O         11.4180   38.0100    1.7500 O.2    42  GLY42      -0.2714
     19  N         10.7110   38.5410   -0.3250 N.am   43  GLY43      -0.1939
     20  CA        12.0010   38.2380   -0.9240 C.3    43  GLY43       0.2014
     21  C         13.0600   39.2980   -0.6990 C.2    43  GLY43       0.2640
     22  O         14.2520   38.9750   -0.6280 O.2    43  GLY43      -0.2714
     23  N         12.6580   40.5620   -0.5830 N.am   44  THR44      -0.1937
     24  CA        13.6470   41.6360   -0.5240 C.3    44  THR44       0.2013
     25  C         14.6060   41.5300    0.6620 C.2    44  THR44       0.2484
     26  O         15.8150   41.7380    0.4530 O.2    44  THR44      -0.2729
     27  CB        12.9490   43.0090   -0.5300 C.3    44  THR44       0.1807
     28  OG1       12.0780   43.1070   -1.6680 O.3    44  THR44      -0.2208
     29  CG2       13.9820   44.1220   -0.6210 C.3    44  THR44       0.0379
     30  N         14.1780   41.2230    1.8920 N.am   45  PRO45      -0.2726
     31  CA        15.1190   41.2730    3.0190 C.3    45  PRO45       0.1402
     32  C         16.0090   40.0490    3.1680 C.2    45  PRO45       0.2269
     33  O         16.8090   40.0100    4.1080 O.2    45  PRO45      -0.2865
     34  CB        14.1850   41.4110    4.2320 C.3    45  PRO45       0.0296
     35  CG        12.9890   40.6250    3.8360 C.3    45  PRO45       0.0237
     36  CD        12.7990   40.9970    2.3660 C.3    45  PRO45       0.0939
     37  N          7.1550   41.8130   13.7660 N.3    70  ASN70      -0.1225
     38  CA         7.0070   41.7190   12.3220 C.3    70  ASN70       0.1785
     39  C          5.8460   42.5830   11.8370 C.2    70  ASN70       0.2597
     40  O          4.9580   42.9660   12.6010 O.2    70  ASN70      -0.2718
     41  CB         6.8260   40.2700   11.8880 C.3    70  ASN70       0.1169
     42  CG         8.1380   39.6510   11.4650 C.2    70  ASN70       0.2627
     43  OD1        9.0090   39.3940   12.2990 O.2    70  ASN70      -0.2716
     44  ND2        8.3090   39.4500   10.1630 N.am   70  ASN70      -0.0877
     45  N          5.8780   42.9030   10.5400 N.am   71  MET71      -0.1965
     46  CA         4.8710   43.8010    9.9840 C.3    71  MET71       0.1736
     47  C          3.5080   43.1400    9.8800 C.2    71  MET71       0.2616
     48  O          2.4840   43.8170   10.0130 O.2    71  MET71      -0.2715
     49  CB         5.2800   44.2790    8.5980 C.3    71  MET71       0.0427
     50  CG         6.4510   45.2010    8.5820 C.3    71  MET71       0.0599
     51  SD         6.7030   45.7910    6.9220 S.3    71  MET71      -0.1393
     52  CE         7.2220   47.4720    7.3120 C.3    71  MET71       0.0692
     53  N          3.4630   41.8410    9.5810 N.am   72  ASP72      -0.1971
     54  CA         2.1890   41.2530    9.1870 C.3    72  ASP72       0.1709
     55  C          2.2450   39.7370    9.2720 C.2    72  ASP72       0.2293
     56  O          3.2950   39.1390    9.5130 O.2    72  ASP72      -0.2864
     57  CB         1.7900   41.6900    7.7700 C.3    72  ASP72       0.1436
     58  CG         2.9810   41.9510    6.8800 C.2    72  ASP72       0.3671
     59  OD1        3.8640   41.0750    6.7790 O.co2  72  ASP72      -0.2456
     60  OD2        3.0290   43.0460    6.2800 O.co2  72  ASP72      -0.2456
     61  N          4.3370   33.6820    7.6050 N.3    85  TYR85      -0.1241
     62  CA         5.4120   34.6140    7.9200 C.3    85  TYR85       0.1605
     63  C          6.1310   34.2060    9.2010 C.2    85  TYR85       0.2264
     64  O          7.3220   34.5020    9.3640 O.2    85  TYR85      -0.2867
     65  CB         4.8520   36.0350    7.9650 C.3    85  TYR85       0.0534
     66  CG         4.5490   36.5610    6.5660 C.ar   85  TYR85      -0.0201
     67  CD1        4.9160   35.8350    5.4320 C.ar   85  TYR85      -0.0009
     68  CD2        3.9250   37.7820    6.3800 C.ar   85  TYR85      -0.0009
     69  CE1        4.6580   36.3160    4.1510 C.ar   85  TYR85       0.0417
     70  CE2        3.6680   38.2770    5.1030 C.ar   85  TYR85       0.0417
     71  CZ         4.0290   37.5350    3.9940 C.ar   85  TYR85       0.1957
     72  OH         3.7810   38.0280    2.7300 O.3    85  TYR85      -0.2866
     73  N          9.8460   46.3740    3.2650 N.3   137  GLY137     -0.1210
     74  CA         9.9210   46.4520    1.8280 C.3   137  GLY137      0.1956
     75  C          8.8460   47.3640    1.2720 C.2   137  GLY137      0.2612
     76  O          8.2420   48.1710    1.9910 O.2   137  GLY137     -0.2717
     77  N          8.6050   47.2430   -0.0330 N.am  138  VAL138     -0.1965
     78  CA         7.5260   47.9930   -0.6700 C.3   138  VAL138      0.1727
     79  C          6.8330   47.0840   -1.6770 C.2   138  VAL138      0.2616
     80  O          7.4790   46.2790   -2.3570 O.2   138  VAL138     -0.2715
     81  CB         8.0310   49.3080   -1.3250 C.3   138  VAL138      0.0290
     82  CG1        8.8830   49.0570   -2.5850 C.3   138  VAL138      0.0023
     83  CG2        6.8700   50.2360   -1.6440 C.3   138  VAL138      0.0023
     84  N          5.5080   47.1870   -1.7470 N.am  139  GLY139     -0.1955
     85  CA         4.7750   46.4140   -2.7260 C.3   139  GLY139      0.1869
     86  C          4.9080   47.0090   -4.1160 C.2   139  GLY139      0.2309
     87  O          5.2560   48.1840   -4.2800 O.2   139  GLY139     -0.2863
     88  N          2.5580   49.5800   -1.4010 N.3   143  HIS143     -0.1241
     89  CA         2.2230   49.4020    0.0080 C.3   143  HIS143      0.1621
     90  C          3.4700   49.2920    0.8780 C.2   143  HIS143      0.2264
     91  O          4.5170   48.7990    0.4570 O.2   143  HIS143     -0.2867
     92  CB         1.3210   48.1760    0.2290 C.3   143  HIS143      0.0745
     93  CG         1.9310   46.8450   -0.1180 C.ar  143  HIS143      0.0817
     94  ND1        1.2720   45.9250   -0.9070 N.ar  143  HIS143     -0.2268
     95  CD2        3.0820   46.2430    0.2730 C.ar  143  HIS143      0.1154
     96  CE1        2.0070   44.8320   -1.0220 C.ar  143  HIS143      0.1986
     97  NE2        3.1090   44.9960   -0.3100 N.ar  143  HIS143     -0.2212
     98  N          4.1260   47.5640    4.7430 N.3   145  ALA145     -0.1231
     99  CA         3.4360   46.4440    5.3890 C.3   145  ALA145      0.1694
    100  C          2.3940   45.9400    4.3870 C.2   145  ALA145      0.2592
    101  O          2.7060   45.8250    3.1960 O.2   145  ALA145     -0.2718
    102  CB         2.8410   46.8360    6.7470 C.3   145  ALA145      0.0304
    103  N          1.1570   45.6680    4.7960 N.am  146  PHE146     -0.1976
    104  CA         0.1020   45.4000    3.8150 C.3   146  PHE146      0.1639
    105  C         -0.9360   46.5170    3.7980 C.2   146  PHE146      0.2290
    106  O         -2.1420   46.2800    3.6610 O.2   146  PHE146     -0.2864
    107  CB        -0.5590   44.0450    4.0470 C.3   146  PHE146      0.0560
    108  CG         0.2490   42.8780    3.5300 C.ar  146  PHE146     -0.0200
    109  CD1        0.8940   42.9500    2.3050 C.ar  146  PHE146     -0.0042
    110  CD2        0.3530   41.7080    4.2650 C.ar  146  PHE146     -0.0042
    111  CE1        1.6390   41.8690    1.8220 C.ar  146  PHE146     -0.0003
    112  CE2        1.0940   40.6240    3.7900 C.ar  146  PHE146     -0.0003
    113  CZ         1.7370   40.7070    2.5690 C.ar  146  PHE146     -0.0000
    114  N         -0.8160   42.1820   -5.4250 N.3   166  THR166     -0.1218
    115  CA        -0.0170   41.6230   -4.3390 C.3   166  THR166      0.1862
    116  C         -0.0750   40.0980   -4.3350 C.2   166  THR166      0.2287
    117  O          0.9510   39.4280   -4.1490 O.2   166  THR166     -0.2866
    118  CB        -0.4970   42.1820   -2.9980 C.3   166  THR166      0.1770
    119  OG1       -0.2500   43.5910   -2.9630 O.3   166  THR166     -0.2211
    120  CG2        0.2310   41.5110   -1.8280 C.3   166  THR166      0.0375
    121  N          3.0020   37.5240   -4.7610 N.3   170  ASN170     -0.1240
    122  CA         3.3440   36.5690   -3.7160 C.3   170  ASN170      0.1653
    123  C          3.0940   35.1250   -4.1240 C.2   170  ASN170      0.2266
    124  O          3.6110   34.2220   -3.4570 O.2   170  ASN170     -0.2867
    125  CB         2.5850   36.9050   -2.4310 C.3   170  ASN170      0.1155
    126  CG         3.1110   38.1670   -1.7710 C.2   170  ASN170      0.2627
    127  OD1        3.8350   38.9470   -2.4050 O.2   170  ASN170     -0.2716
    128  ND2        2.7670   38.3760   -0.4950 N.am  170  ASN170     -0.0877
    129  N          4.4980   33.5690   -6.2930 N.3   172  ARG172     -0.1231
    130  CA         5.7680   32.9200   -6.6100 C.3   172  ARG172      0.1694
    131  C          6.2780   32.0780   -5.4490 C.2   172  ARG172      0.2592
    132  O          7.1180   31.2000   -5.6580 O.2   172  ARG172     -0.2718
    133  CB         6.8220   33.9570   -7.0110 C.3   172  ARG172      0.0321
    134  CG         7.3440   34.8440   -5.8740 C.3   172  ARG172      0.0489
    135  CD         8.1330   36.0050   -6.4700 C.3   172  ARG172      0.2205
    136  NE         8.9420   36.7630   -5.5150 N.pl3 172  ARG172     -0.0865
    137  CZ         8.4870   37.7740   -4.7720 C.cat 172  ARG172      0.5346
    138  NH1        7.2080   38.1410   -4.8420 N.pl3 172  ARG172      0.1354
    139  NH2        9.3130   38.4180   -3.9530 N.pl3 172  ARG172      0.1354
    140  N          5.7870   32.3190   -4.2350 N.am  173  PHE173     -0.1976
    141  CA         6.1300   31.4970   -3.0840 C.3   173  PHE173      0.1639
    142  C          5.1630   30.3410   -2.8790 C.2   173  PHE173      0.2290
    143  O          5.3530   29.5420   -1.9550 O.2   173  PHE173     -0.2864
    144  CB         6.1900   32.3710   -1.8290 C.3   173  PHE173      0.0560
    145  CG         7.2030   33.4720   -1.9250 C.ar  173  PHE173     -0.0200
    146  CD1        8.5430   33.1730   -2.1370 C.ar  173  PHE173     -0.0042
    147  CD2        6.8220   34.8020   -1.8410 C.ar  173  PHE173     -0.0042
    148  CE1        9.4900   34.1850   -2.2380 C.ar  173  PHE173     -0.0003
    149  CE2        7.7590   35.8150   -1.9410 C.ar  173  PHE173     -0.0003
    150  CZ         9.0950   35.5090   -2.1390 C.ar  173  PHE173     -0.0000
    151  N          9.5010   47.2930   -8.7880 N.3   208  LYS208     -0.1245
    152  CA         9.2350   48.2990   -7.7680 C.3   208  LYS208      0.1561
    153  C          9.4640   49.7200   -8.2660 C.2   208  LYS208      0.2260
    154  O          9.3960   50.6610   -7.4650 O.2   208  LYS208     -0.2867
    155  CB        10.1090   48.0440   -6.5360 C.3   208  LYS208      0.0271
    156  CG        10.0230   46.6320   -5.9490 C.3   208  LYS208      0.0035
    157  CD         8.5960   46.2710   -5.5520 C.3   208  LYS208      0.0206
    158  CE         8.5100   44.8370   -5.0270 C.3   208  LYS208      0.1093
    159  NZ         9.2100   44.6570   -3.7160 N.3   208  LYS208     -0.1314
@<TRIPOS>BOND
     1   151   152    1
     2   153   152    1
     3   153   154    2
     4   152   155    1
     5   133   130    1
     6   133   134    1
     7   130   129    1
     8   130   131    1
     9   155   156    1
    10   135   134    1
    11   135   136    1
    12   156   157    1
    13   132   131    2
    14   157   158    1
    15   136   137    2
    16   131   140   am
    17   114   115    1
    18   158   159    1
    19   138   137    1
    20   137   139    1
    21   121   122    1
    22   115   116    1
    23   115   118    1
    24   116   117    2
    25    87    86    2
    26   140   141    1
    27   123   122    1
    28   123   124    2
    29    86    85    1
    30   122   125    1
    31   141   142    1
    32   141   144    1
    33   118   119    1
    34   118   120    1
    35   142   143    2
    36    85    84    1
    37    82    81    1
    38   125   126    1
    39   127   126    2
    40    80    79    2
    41   148   150   ar
    42   148   146   ar
    43   150   149   ar
    44   146   145   ar
    45   149   147   ar
    46   145   147   ar
    47   145   144    1
    48   126   128   am
    49    84    79   am
    50    79    78    1
    51    28    27    1
    52    83    81    1
    53    88    89    1
    54    81    78    1
    55    96    94   ar
    56    96    97   ar
    57    20    21    1
    58    20    19    1
    59    94    93   ar
    60    21    22    2
    61    21    23   am
    62    78    77    1
    63    29    27    1
    64    23    24    1
    65    27    24    1
    66    24    25    1
    67    19    17   am
    68    97    95   ar
    69    93    92    1
    70    93    95   ar
    71    77    75   am
    72    89    92    1
    73    89    90    1
    74    26    25    2
    75    91    90    2
    76    25    30   am
    77    17    16    1
    78    17    18    2
    79    75    74    1
    80    75    76    2
    81    16    15    1
    82   111   109   ar
    83   111   113   ar
    84    74    73    1
    85    30    36    1
    86    30    31    1
    87   109   108   ar
    88    36    35    1
    89   113   112   ar
    90    72    71    1
    91    15    10   am
    92    31    32    1
    93    31    34    1
    94    32    33    2
    95   101   100    2
    96    11    10    2
    97   108   107    1
    98   108   110   ar
    99   106   105    2
   100    10     9    1
   101   112   110   ar
   102   105   104    1
   103   104   107    1
   104   104   103    1
   105    35    34    1
   106    71    69   ar
   107    71    70   ar
   108    69    67   ar
   109   100   103   am
   110   100    99    1
   111    98    99    1
   112    70    68   ar
   113    13    12    1
   114     9    12    1
   115     9     8    1
   116    99   102    1
   117    67    66   ar
   118    12    14    1
   119     5     6    1
   120     5     2    1
   121     8     3   am
   122     6     7    1
   123    60    58   ar
   124    68    66   ar
   125    66    65    1
   126     3     4    2
   127     3     2    1
   128    59    58   ar
   129    58    57    1
   130    51    52    1
   131    51    50    1
   132     2     1    1
   133     7     1    1
   134    61    62    1
   135    57    54    1
   136    62    65    1
   137    62    63    1
   138    50    49    1
   139    49    46    1
   140    54    55    1
   141    54    53    1
   142    63    64    2
   143    55    56    2
   144    53    47   am
   145    47    46    1
   146    47    48    2
   147    46    45    1
   148    44    42   am
   149    45    39   am
   150    42    41    1
   151    42    43    2
   152    39    38    1
   153    39    40    2
   154    41    38    1
   155    38    37    1
