@<TRIPOS>MOLECULE
tmp/5hj9A00.pdb
 130 120 0 0 0
SMALL
GASTEIGER

@<TRIPOS>ATOM
      1  N        -23.7610  -10.7980   30.4520 N.3   102  HIS102     -0.1241
      2  CA       -23.9730  -10.8940   31.8870 C.3   102  HIS102      0.1621
      3  C        -25.4110  -11.1320   32.3120 C.2   102  HIS102      0.2264
      4  O        -25.6580  -11.4280   33.4750 O.2   102  HIS102     -0.2867
      5  CB       -23.4130   -9.6720   32.6030 C.3   102  HIS102      0.0745
      6  CG       -22.7260  -10.0080   33.8890 C.ar  102  HIS102      0.0817
      7  ND1      -21.8010   -9.1840   34.4840 N.ar  102  HIS102     -0.2268
      8  CD2      -22.8020  -11.1140   34.6720 C.ar  102  HIS102      0.1154
      9  CE1      -21.3460   -9.7560   35.5860 C.ar  102  HIS102      0.1986
     10  NE2      -21.9370  -10.9300   35.7160 N.ar  102  HIS102     -0.2212
     11  N        -19.3470   -2.1180   35.6990 N.3   127  HIS127     -0.1241
     12  CA       -20.7260   -1.6320   35.7780 C.3   127  HIS127      0.1621
     13  C        -21.4710   -2.2650   36.9390 C.2   127  HIS127      0.2264
     14  O        -21.1050   -3.3480   37.3910 O.2   127  HIS127     -0.2867
     15  CB       -21.4620   -1.9740   34.4960 C.3   127  HIS127      0.0745
     16  CG       -20.7620   -1.5040   33.2670 C.ar  127  HIS127      0.0817
     17  ND1      -19.9060   -2.3050   32.5480 N.ar  127  HIS127     -0.2268
     18  CD2      -20.7750   -0.3090   32.6390 C.ar  127  HIS127      0.1154
     19  CE1      -19.4270   -1.6260   31.5230 C.ar  127  HIS127      0.1986
     20  NE2      -19.9320   -0.4100   31.5590 N.ar  127  HIS127     -0.2212
     21  N        -24.7570   -3.0840   36.8240 N.3   129  ASP129     -0.1239
     22  CA       -25.6850   -4.0560   36.2490 C.3   129  ASP129      0.1674
     23  C        -26.9800   -4.1280   37.0390 C.2   129  ASP129      0.2266
     24  O        -27.5620   -5.1950   37.1680 O.2   129  ASP129     -0.2867
     25  CB       -25.0360   -5.4470   36.1740 C.3   129  ASP129      0.1410
     26  CG       -23.9980   -5.5310   35.0960 C.2   129  ASP129      0.3668
     27  OD1      -23.8160   -4.5270   34.3890 O.co2 129  ASP129     -0.2456
     28  OD2      -23.3770   -6.5850   34.9340 O.co2 129  ASP129     -0.2456
     29  N        -29.6260   -1.5960   36.8000 N.3   131  ASN131     -0.1240
     30  CA       -30.7240   -0.7770   36.2730 C.3   131  ASN131      0.1653
     31  C        -32.0450   -1.5360   36.3770 C.2   131  ASN131      0.2266
     32  O        -32.0630   -2.7480   36.2210 O.2   131  ASN131     -0.2867
     33  CB       -30.4560   -0.3850   34.8200 C.3   131  ASN131      0.1155
     34  CG       -29.6220    0.8830   34.7010 C.2   131  ASN131      0.2627
     35  OD1      -29.8840    1.8840   35.3750 O.2   131  ASN131     -0.2716
     36  ND2      -28.6180    0.8500   33.8340 N.am  131  ASN131     -0.0877
     37  N        -34.0390    1.5510   33.1000 N.3   136  THR136     -0.1203
     38  CA       -33.0240    1.3440   32.0740 C.3   136  THR136      0.1994
     39  C        -33.2090    2.3050   30.9130 C.2   136  THR136      0.2618
     40  O        -34.3340    2.5730   30.4990 O.2   136  THR136     -0.2717
     41  CB       -33.0530   -0.0600   31.5080 C.3   136  THR136      0.1784
     42  OG1      -31.9880   -0.1890   30.5660 O.3   136  THR136     -0.2211
     43  CG2      -34.3760   -0.3420   30.8080 C.3   136  THR136      0.0376
     44  N        -32.1060    2.8200   30.3850 N.am  137  VAL137     -0.1965
     45  CA       -32.1650    3.7640   29.2740 C.3   137  VAL137      0.1727
     46  C        -31.8780    3.0180   27.9710 C.2   137  VAL137      0.2616
     47  O        -32.5760    3.1920   26.9750 O.2   137  VAL137     -0.2715
     48  CB       -31.1820    4.9650   29.4910 C.3   137  VAL137      0.0290
     49  CG1      -30.9410    5.7380   28.2050 C.3   137  VAL137      0.0023
     50  CG2      -31.7150    5.8940   30.5520 C.3   137  VAL137      0.0023
     51  N        -30.8500    2.1770   27.9890 N.am  138  SER138     -0.1950
     52  CA       -30.5060    1.3860   26.8240 C.3   138  SER138      0.1924
     53  C        -31.4980    0.2370   26.6320 C.2   138  SER138      0.2314
     54  O        -31.7190   -0.2090   25.5080 O.2   138  SER138     -0.2863
     55  CB       -29.1020    0.8330   26.9830 C.3   138  SER138      0.2116
     56  OG       -29.0920   -0.1640   27.9800 O.3   138  SER138     -0.2180
     57  N        -30.9290   -2.6940   27.5450 N.3   140  ASN140     -0.1240
     58  CA       -30.1340   -3.9080   27.3880 C.3   140  ASN140      0.1653
     59  C        -30.0800   -4.6670   28.6940 C.2   140  ASN140      0.2266
     60  O        -29.5750   -4.1550   29.6870 O.2   140  ASN140     -0.2867
     61  CB       -28.7260   -3.5660   26.9390 C.3   140  ASN140      0.1155
     62  CG       -28.6920   -2.9710   25.5530 C.2   140  ASN140      0.2627
     63  OD1      -29.4950   -3.3160   24.6950 O.2   140  ASN140     -0.2716
     64  ND2      -27.7590   -2.0700   25.3290 N.am  140  ASN140     -0.0877
     65  N        -28.4300   -7.1200   29.9220 N.3   142  HIS142     -0.1226
     66  CA       -27.1590   -7.4300   30.5940 C.3   142  HIS142      0.1752
     67  C        -26.7640   -6.3500   31.6310 C.2   142  HIS142      0.2597
     68  O        -25.9380   -6.6080   32.4920 O.2   142  HIS142     -0.2718
     69  CB       -26.0230   -7.7330   29.5950 C.3   142  HIS142      0.0759
     70  CG       -25.4650   -6.5370   28.8900 C.ar  142  HIS142      0.0818
     71  ND1      -24.2080   -6.5360   28.3200 N.ar  142  HIS142     -0.2268
     72  CD2      -25.9890   -5.3110   28.6420 C.ar  142  HIS142      0.1154
     73  CE1      -23.9760   -5.3590   27.7670 C.ar  142  HIS142      0.1986
     74  NE2      -25.0390   -4.5980   27.9450 N.ar  142  HIS142     -0.2212
     75  N        -27.3800   -5.1690   31.5780 N.am  143  GLY143     -0.1942
     76  CA       -27.1510   -4.1260   32.5780 C.3   143  GLY143      0.2014
     77  C        -28.2260   -4.0620   33.6540 C.2   143  GLY143      0.2639
     78  O        -28.2960   -3.0880   34.4130 O.2   143  GLY143     -0.2714
     79  N        -29.0370   -5.1190   33.7270 N.am  144  CYS144     -0.1967
     80  CA       -30.1710   -5.2110   34.6540 C.3   144  CYS144      0.1712
     81  C        -30.2880   -6.4740   35.5460 C.2   144  CYS144      0.2296
     82  O        -31.2120   -6.5120   36.3650 O.2   144  CYS144     -0.2864
     83  CB       -31.5010   -5.1060   33.8790 C.3   144  CYS144      0.0983
     84  SG       -31.7080   -3.6260   32.8560 S.3   144  CYS144     -0.0798
     85  N        -18.3270    2.7580   35.8390 N.3   180  ALA180     -0.1245
     86  CA       -19.3120    3.3240   34.9170 C.3   180  ALA180      0.1562
     87  C        -20.7130    3.0550   35.4190 C.2   180  ALA180      0.2260
     88  O        -21.4750    2.3340   34.8040 O.2   180  ALA180     -0.2867
     89  CB       -19.1360    2.7620   33.5440 C.3   180  ALA180      0.0290
     90  N        -24.4170    4.2460   36.3280 N.3   182  ASP182     -0.1239
     91  CA       -25.3900    5.2110   35.8780 C.3   182  ASP182      0.1674
     92  C        -25.9620    5.9240   37.0740 C.2   182  ASP182      0.2266
     93  O        -25.9660    5.4050   38.1750 O.2   182  ASP182     -0.2867
     94  CB       -26.5140    4.5150   35.1140 C.3   182  ASP182      0.1410
     95  CG       -26.0190    3.7900   33.8810 C.2   182  ASP182      0.3668
     96  OD1      -24.9250    4.1380   33.3960 O.co2 182  ASP182     -0.2456
     97  OD2      -26.7220    2.8760   33.3910 O.co2 182  ASP182     -0.2456
     98  N        -28.3940    3.9910   39.0440 N.3   185  GLU185     -0.1245
     99  CA       -27.7760    2.8900   39.7760 C.3   185  GLU185      0.1567
    100  C        -27.0460    3.3930   41.0190 C.2   185  GLU185      0.2260
    101  O        -27.0400    2.7180   42.0400 O.2   185  GLU185     -0.2867
    102  CB       -26.7980    2.1290   38.8920 C.3   185  GLU185      0.0388
    103  CG       -27.4160    1.3860   37.7460 C.3   185  GLU185      0.1160
    104  CD       -26.3530    0.7690   36.8510 C.2   185  GLU185      0.3649
    105  OE1      -25.4610    1.5040   36.3720 O.co2 185  GLU185     -0.2457
    106  OE2      -26.3960   -0.4600   36.6340 O.co2 185  GLU185     -0.2457
    107  N        -17.2100  -10.2030   35.1680 N.3   231  ASP231     -0.1239
    108  CA       -17.3390   -9.5320   33.8890 C.3   231  ASP231      0.1674
    109  C        -15.9320   -9.1010   33.4590 C.2   231  ASP231      0.2266
    110  O        -15.2610   -8.3830   34.1850 O.2   231  ASP231     -0.2867
    111  CB       -18.2840   -8.3410   34.0410 C.3   231  ASP231      0.1410
    112  CG       -18.6860   -7.7180   32.7020 C.2   231  ASP231      0.3668
    113  OD1      -17.9190   -7.8080   31.7240 O.co2 231  ASP231     -0.2456
    114  OD2      -19.7740   -7.1040   32.6290 O.co2 231  ASP231     -0.2456
    115  N        -18.7090   -3.5390   26.2260 N.3   245  THR245     -0.1218
    116  CA       -18.8470   -2.2690   26.9430 C.3   245  THR245      0.1862
    117  C        -17.5600   -1.9270   27.7010 C.2   245  THR245      0.2287
    118  O        -17.5520   -1.9100   28.9350 O.2   245  THR245     -0.2866
    119  CB       -20.0260   -2.3140   27.9680 C.3   245  THR245      0.1770
    120  OG1      -19.9150   -3.4930   28.7750 O.3   245  THR245     -0.2211
    121  CG2      -21.3960   -2.2970   27.2690 C.3   245  THR245      0.0375
    122  N        -19.0140  -12.0580   29.1240 N.3   276  GLU276     -0.1245
    123  CA       -18.7940  -10.9070   28.2510 C.3   276  GLU276      0.1567
    124  C        -17.5510  -10.9820   27.3540 C.2   276  GLU276      0.2260
    125  O        -17.1450   -9.9800   26.7780 O.2   276  GLU276     -0.2867
    126  CB       -18.8160   -9.5950   29.0490 C.3   276  GLU276      0.0388
    127  CG       -20.1560   -9.2780   29.7310 C.3   276  GLU276      0.1160
    128  CD       -21.2060   -8.7090   28.7910 C.2   276  GLU276      0.3649
    129  OE1      -20.8830   -8.4480   27.6120 O.co2 276  GLU276     -0.2457
    130  OE2      -22.3650   -8.5220   29.2380 O.co2 276  GLU276     -0.2457
@<TRIPOS>BOND
     1    63    62    2
     2    64    62   am
     3    54    53    2
     4    62    61    1
     5   115   116    1
     6    53    52    1
     7   125   124    2
     8    52    55    1
     9    52    51    1
    10    61    58    1
    11   116   117    1
    12   116   119    1
    13    47    46    2
    14    55    56    1
    15   121   119    1
    16   124   123    1
    17    58    57    1
    18    58    59    1
    19   129   128   ar
    20   117   118    2
    21    73    74   ar
    22    73    71   ar
    23    74    72   ar
    24   119   120    1
    25    46    51   am
    26    46    45    1
    27    49    48    1
    28   123   126    1
    29   123   122    1
    30    71    70   ar
    31    72    70   ar
    32    59    60    2
    33   128   130   ar
    34   128   127    1
    35    70    69    1
    36   126   127    1
    37    45    48    1
    38    45    44    1
    39    48    50    1
    40    69    66    1
    41    65    66    1
    42    44    39   am
    43     1     2    1
    44    40    39    2
    45    42    41    1
    46    66    67    1
    47    43    41    1
    48    39    38    1
    49    41    38    1
    50    19    20   ar
    51    19    17   ar
    52    20    18   ar
    53    75    67   am
    54    75    76    1
    55    67    68    2
    56   113   112   ar
    57     2     3    1
    58     2     5    1
    59    38    37    1
    60     3     4    2
    61    17    16   ar
    62    76    77    1
    63     5     6    1
    64   114   112   ar
    65    18    16   ar
    66   112   111    1
    67    84    83    1
    68    16    15    1
    69    97    95   ar
    70    96    95   ar
    71   109   108    1
    72   109   110    2
    73    89    86    1
    74    77    79   am
    75    77    78    2
    76    79    80    1
    77    36    34   am
    78    83    80    1
    79    95    94    1
    80   108   111    1
    81   108   107    1
    82     6     7   ar
    83     6     8   ar
    84    27    26   ar
    85     7     9   ar
    86    15    12    1
    87    80    81    1
    88     8    10   ar
    89    34    33    1
    90    34    35    2
    91    88    87    2
    92    33    30    1
    93    86    87    1
    94    86    85    1
    95    28    26   ar
    96    26    25    1
    97    94    91    1
    98    81    82    2
    99     9    10   ar
   100    11    12    1
   101    12    13    1
   102    91    90    1
   103    91    92    1
   104    25    22    1
   105    32    31    2
   106    22    21    1
   107    22    23    1
   108    30    31    1
   109    30    29    1
   110   105   104   ar
   111   106   104   ar
   112   104   103    1
   113    13    14    2
   114    23    24    2
   115    92    93    2
   116   103   102    1
   117   102    99    1
   118    98    99    1
   119    99   100    1
   120   100   101    2
