@<TRIPOS>MOLECULE
tmp/5hjaA00.pdb
 177 167 0 0 0
SMALL
GASTEIGER

@<TRIPOS>ATOM
      1  N        -23.7060  -10.7760   31.1330 N.3   102  HIS102     -0.1241
      2  CA       -23.8700  -10.9180   32.5760 C.3   102  HIS102      0.1621
      3  C        -25.3110  -11.1220   33.0280 C.2   102  HIS102      0.2264
      4  O        -25.5760  -11.2610   34.2220 O.2   102  HIS102     -0.2867
      5  CB       -23.2930   -9.6980   33.2800 C.3   102  HIS102      0.0745
      6  CG       -22.6040  -10.0200   34.5670 C.ar  102  HIS102      0.0817
      7  ND1      -21.6910   -9.1650   35.1510 N.ar  102  HIS102     -0.2268
      8  CD2      -22.6810  -11.0980   35.3760 C.ar  102  HIS102      0.1154
      9  CE1      -21.2410   -9.7060   36.2670 C.ar  102  HIS102      0.1986
     10  NE2      -21.8230  -10.8810   36.4280 N.ar  102  HIS102     -0.2212
     11  N        -19.3340   -2.1270   36.3570 N.3   127  HIS127     -0.1241
     12  CA       -20.6970   -1.6370   36.4740 C.3   127  HIS127      0.1621
     13  C        -21.4280   -2.2680   37.6520 C.2   127  HIS127      0.2264
     14  O        -21.0170   -3.3070   38.1640 O.2   127  HIS127     -0.2867
     15  CB       -21.4550   -1.9060   35.1790 C.3   127  HIS127      0.0745
     16  CG       -20.7070   -1.4980   33.9530 C.ar  127  HIS127      0.0817
     17  ND1      -19.8710   -2.3510   33.2660 N.ar  127  HIS127     -0.2268
     18  CD2      -20.6520   -0.3140   33.2890 C.ar  127  HIS127      0.1154
     19  CE1      -19.3460   -1.7230   32.2310 C.ar  127  HIS127      0.1986
     20  NE2      -19.8070   -0.4810   32.2270 N.ar  127  HIS127     -0.2212
     21  N        -24.6750   -3.1610   37.5430 N.3   129  ASP129     -0.1239
     22  CA       -25.6620   -4.0900   36.9820 C.3   129  ASP129      0.1674
     23  C        -26.9440   -4.1740   37.8040 C.2   129  ASP129      0.2266
     24  O        -27.4660   -5.2630   38.0320 O.2   129  ASP129     -0.2867
     25  CB       -25.0680   -5.4920   36.8440 C.3   129  ASP129      0.1410
     26  CG       -23.9240   -5.5420   35.8650 C.2   129  ASP129      0.3668
     27  OD1      -23.6960   -4.5300   35.1690 O.co2 129  ASP129     -0.2456
     28  OD2      -23.2590   -6.5970   35.7830 O.co2 129  ASP129     -0.2456
     29  N        -29.5870   -1.5850   37.5290 N.3   131  ASN131     -0.1240
     30  CA       -30.6440   -0.7500   36.9690 C.3   131  ASN131      0.1653
     31  C        -31.9730   -1.4840   37.0170 C.2   131  ASN131      0.2266
     32  O        -32.0260   -2.6910   36.7800 O.2   131  ASN131     -0.2867
     33  CB       -30.3190   -0.3490   35.5320 C.3   131  ASN131      0.1155
     34  CG       -29.5150    0.9280   35.4540 C.2   131  ASN131      0.2627
     35  OD1      -29.8480    1.9230   36.0990 O.2   131  ASN131     -0.2716
     36  ND2      -28.4460    0.9090   34.6670 N.am  131  ASN131     -0.0877
     37  N        -33.8070    1.6310   33.7710 N.3   136  THR136     -0.1203
     38  CA       -32.7700    1.4370   32.7670 C.3   136  THR136      0.1994
     39  C        -32.9770    2.3610   31.5730 C.2   136  THR136      0.2618
     40  O        -34.1080    2.6750   31.2020 O.2   136  THR136     -0.2717
     41  CB       -32.7120   -0.0260   32.2820 C.3   136  THR136      0.1784
     42  OG1      -31.7000   -0.1540   31.2760 O.3   136  THR136     -0.2211
     43  CG2      -34.0520   -0.4620   31.7090 C.3   136  THR136      0.0376
     44  N        -31.8730    2.8100   30.9890 N.am  137  VAL137     -0.1965
     45  CA       -31.9280    3.7270   29.8590 C.3   137  VAL137      0.1727
     46  C        -31.6100    2.9860   28.5710 C.2   137  VAL137      0.2616
     47  O        -32.2640    3.1820   27.5450 O.2   137  VAL137     -0.2715
     48  CB       -30.9440    4.9000   30.0330 C.3   137  VAL137      0.0290
     49  CG1      -31.0210    5.8420   28.8430 C.3   137  VAL137      0.0023
     50  CG2      -31.2380    5.6450   31.3210 C.3   137  VAL137      0.0023
     51  N        -30.5990    2.1290   28.6370 N.am  138  SER138     -0.1950
     52  CA       -30.1970    1.3360   27.4870 C.3   138  SER138      0.1924
     53  C        -31.2080    0.2240   27.2390 C.2   138  SER138      0.2314
     54  O        -31.4460   -0.1680   26.0960 O.2   138  SER138     -0.2863
     55  CB       -28.7990    0.7510   27.6960 C.3   138  SER138      0.2116
     56  OG       -28.7940   -0.2140   28.7340 O.3   138  SER138     -0.2180
     57  N        -30.7390   -2.6810   28.1260 N.3   140  ASN140     -0.1240
     58  CA       -29.9360   -3.8940   28.0630 C.3   140  ASN140      0.1653
     59  C        -29.9320   -4.6080   29.4050 C.2   140  ASN140      0.2266
     60  O        -29.4460   -4.0750   30.4040 O.2   140  ASN140     -0.2867
     61  CB       -28.5080   -3.5690   27.6330 C.3   140  ASN140      0.1155
     62  CG       -28.4450   -2.9490   26.2530 C.2   140  ASN140      0.2627
     63  OD1      -29.2870   -3.2230   25.3980 O.2   140  ASN140     -0.2716
     64  ND2      -27.4420   -2.1090   26.0280 N.am  140  ASN140     -0.0877
     65  N        -28.3120   -7.0180   30.6890 N.3   142  HIS142     -0.1226
     66  CA       -27.0740   -7.4400   31.3360 C.3   142  HIS142      0.1752
     67  C        -26.6280   -6.3810   32.3390 C.2   142  HIS142      0.2596
     68  O        -25.7330   -6.6120   33.1500 O.2   142  HIS142     -0.2718
     69  CB       -25.9740   -7.7200   30.3070 C.3   142  HIS142      0.0759
     70  CG       -25.4290   -6.4900   29.6410 C.ar  142  HIS142      0.0818
     71  ND1      -24.1310   -6.4140   29.1840 N.ar  142  HIS142     -0.2268
     72  CD2      -26.0060   -5.3050   29.3500 C.ar  142  HIS142      0.1154
     73  CE1      -23.9310   -5.2250   28.6430 C.ar  142  HIS142      0.1986
     74  NE2      -25.0490   -4.5320   28.7290 N.ar  142  HIS142     -0.2212
     75  N        -27.2710   -5.2200   32.2810 N.am  143  GLY143     -0.1957
     76  CA       -27.0500   -4.1760   33.2590 C.3   143  GLY143      0.1869
     77  C        -28.1560   -4.1390   34.2970 C.2   143  GLY143      0.2309
     78  O        -28.2460   -3.1940   35.0790 O.2   143  GLY143     -0.2863
     79  N        -16.6380    1.7020   38.4750 N.3   179  ARG179     -0.1231
     80  CA       -16.1370    2.9780   37.9540 C.3   179  ARG179      0.1694
     81  C        -17.0520    3.5880   36.8780 C.2   179  ARG179      0.2592
     82  O        -16.7580    4.6540   36.3380 O.2   179  ARG179     -0.2718
     83  CB       -14.7170    2.8020   37.4050 C.3   179  ARG179      0.0321
     84  CG       -14.5950    1.7940   36.2810 C.3   179  ARG179      0.0489
     85  CD       -13.1430    1.5830   35.8830 C.3   179  ARG179      0.2205
     86  NE       -13.0160    0.6920   34.7310 N.pl3 179  ARG179     -0.0865
     87  CZ       -13.0420   -0.6370   34.7990 C.cat 179  ARG179      0.5346
     88  NH1      -13.1910   -1.2420   35.9700 N.pl3 179  ARG179      0.1354
     89  NH2      -12.9140   -1.3620   33.6930 N.pl3 179  ARG179      0.1354
     90  N        -18.1620    2.9130   36.5840 N.am  180  ALA180     -0.1966
     91  CA       -19.1740    3.4320   35.6620 C.3   180  ALA180      0.1728
     92  C        -20.5770    3.1470   36.1940 C.2   180  ALA180      0.2616
     93  O        -21.3370    2.3850   35.5970 O.2   180  ALA180     -0.2715
     94  CB       -18.9980    2.8330   34.2750 C.3   180  ALA180      0.0334
     95  N        -20.9080    3.7640   37.3230 N.am  181  VAL181     -0.1963
     96  CA       -22.1880    3.5460   37.9880 C.3   181  VAL181      0.1727
     97  C        -23.2120    4.6280   37.6430 C.2   181  VAL181      0.2616
     98  O        -22.9750    5.8090   37.8850 O.2   181  VAL181     -0.2715
     99  CB       -22.0100    3.5100   39.5180 C.3   181  VAL181      0.0290
    100  CG1      -23.3270    3.1920   40.2020 C.3   181  VAL181      0.0023
    101  CG2      -20.9380    2.5030   39.9070 C.3   181  VAL181      0.0023
    102  N        -24.3530    4.2270   37.0900 N.am  182  ASP182     -0.1957
    103  CA       -25.3900    5.1830   36.7130 C.3   182  ASP182      0.1840
    104  C        -25.9220    5.9200   37.9380 C.2   182  ASP182      0.2622
    105  O        -25.8140    5.4270   39.0610 O.2   182  ASP182     -0.2715
    106  CB       -26.5320    4.4770   35.9800 C.3   182  ASP182      0.1450
    107  CG       -26.0620    3.7470   34.7360 C.2   182  ASP182      0.3671
    108  OD1      -25.0050    4.1210   34.1870 O.co2 182  ASP182     -0.2456
    109  OD2      -26.7520    2.7990   34.3080 O.co2 182  ASP182     -0.2456
    110  N        -26.4810    7.1040   37.7110 N.am  183  ASP183     -0.1971
    111  CA       -27.0120    7.9350   38.7850 C.3   183  ASP183      0.1709
    112  C        -28.0680    7.2020   39.5980 C.2   183  ASP183      0.2293
    113  O        -28.0680    7.2620   40.8270 O.2   183  ASP183     -0.2864
    114  CB       -27.5990    9.2310   38.2210 C.3   183  ASP183      0.1436
    115  CG       -26.5330   10.2240   37.8090 C.2   183  ASP183      0.3671
    116  OD1      -25.3500   10.0000   38.1430 O.co2 183  ASP183     -0.2456
    117  OD2      -26.8790   11.2360   37.1640 O.co2 183  ASP183     -0.2456
    118  N        -28.3390    3.9840   39.8500 N.3   185  GLU185     -0.1231
    119  CA       -27.6630    2.8920   40.5430 C.3   185  GLU185      0.1699
    120  C        -26.9620    3.3960   41.8010 C.2   185  GLU185      0.2592
    121  O        -26.9820    2.7310   42.8390 O.2   185  GLU185     -0.2718
    122  CB       -26.6560    2.2090   39.6210 C.3   185  GLU185      0.0402
    123  CG       -27.2670    1.4870   38.4380 C.3   185  GLU185      0.1161
    124  CD       -26.2180    0.8230   37.5720 C.2   185  GLU185      0.3649
    125  OE1      -25.3100    1.5320   37.0900 O.co2 185  GLU185     -0.2457
    126  OE2      -26.2920   -0.4100   37.3780 O.co2 185  GLU185     -0.2457
    127  N        -26.3460    4.5720   41.6900 N.am  186  LYS186     -0.1980
    128  CA       -25.6850    5.2240   42.8160 C.3   186  LYS186      0.1596
    129  C        -26.6320    5.3780   43.9960 C.2   186  LYS186      0.2287
    130  O        -26.2830    5.0630   45.1330 O.2   186  LYS186     -0.2864
    131  CB       -25.1520    6.5960   42.4040 C.3   186  LYS186      0.0298
    132  CG       -23.9710    6.5680   41.4510 C.3   186  LYS186      0.0038
    133  CD       -23.4050    7.9670   41.2550 C.3   186  LYS186      0.0206
    134  CE       -22.2710    7.9820   40.2470 C.3   186  LYS186      0.1093
    135  NZ       -21.6800    9.3420   40.0930 N.3   186  LYS186     -0.1314
    136  N        -17.1820  -10.2270   35.8960 N.3   231  ASP231     -0.1239
    137  CA       -17.2650   -9.5460   34.6100 C.3   231  ASP231      0.1674
    138  C        -15.8600   -9.1360   34.1820 C.2   231  ASP231      0.2266
    139  O        -15.1690   -8.4250   34.9120 O.2   231  ASP231     -0.2867
    140  CB       -18.1830   -8.3240   34.7030 C.3   231  ASP231      0.1410
    141  CG       -18.5410   -7.7440   33.3420 C.2   231  ASP231      0.3668
    142  OD1      -17.7630   -7.9130   32.3790 O.co2 231  ASP231     -0.2456
    143  OD2      -19.6130   -7.1110   33.2410 O.co2 231  ASP231     -0.2456
    144  N        -18.6330   -3.5820   26.9920 N.3   245  THR245     -0.1218
    145  CA       -18.6960   -2.3010   27.6910 C.3   245  THR245      0.1862
    146  C        -17.3860   -1.9500   28.3950 C.2   245  THR245      0.2287
    147  O        -17.3150   -1.9770   29.6260 O.2   245  THR245     -0.2866
    148  CB       -19.8320   -2.2960   28.7300 C.3   245  THR245      0.1770
    149  OG1      -19.7760   -3.5020   29.5020 O.3   245  THR245     -0.2211
    150  CG2      -21.1860   -2.2090   28.0410 C.3   245  THR245      0.0375
    151  N        -14.4510   -0.0000   30.1480 N.3   247  VAL247     -0.1231
    152  CA       -14.3550    1.1780   30.9970 C.3   247  VAL247      0.1692
    153  C        -12.9630    1.3480   31.5990 C.2   247  VAL247      0.2591
    154  O        -12.3350    0.3940   32.0730 O.2   247  VAL247     -0.2718
    155  CB       -15.3650    1.1350   32.1700 C.3   247  VAL247      0.0266
    156  CG1      -15.5570    2.5170   32.7690 C.3   247  VAL247      0.0020
    157  CG2      -16.6930    0.5700   31.7220 C.3   247  VAL247      0.0020
    158  N        -12.5050    2.5920   31.5780 N.am  248  ARG248     -0.1980
    159  CA       -11.2690    3.0040   32.2230 C.3   248  ARG248      0.1597
    160  C        -11.5310    3.7670   33.5020 C.2   248  ARG248      0.2287
    161  O        -12.5770    4.4050   33.6610 O.2   248  ARG248     -0.2864
    162  CB       -10.4530    3.8790   31.2710 C.3   248  ARG248      0.0334
    163  CG       -11.3040    4.8420   30.4690 C.3   248  ARG248      0.0492
    164  CD       -11.5610    6.2090   31.1400 C.3   248  ARG248      0.2205
    165  NE       -12.8460    6.3240   31.8480 N.pl3 248  ARG248     -0.0865
    166  CZ       -14.0420    5.9600   31.3780 C.cat 248  ARG248      0.5346
    167  NH1      -14.1820    5.4170   30.1730 N.pl3 248  ARG248      0.1354
    168  NH2      -15.1140    6.1310   32.1390 N.pl3 248  ARG248      0.1354
    169  N        -18.9780  -12.0120   29.8650 N.3   276  GLU276     -0.1245
    170  CA       -18.7500  -10.8710   28.9810 C.3   276  GLU276      0.1567
    171  C        -17.4700  -10.9650   28.1600 C.2   276  GLU276      0.2260
    172  O        -16.9500   -9.9490   27.7020 O.2   276  GLU276     -0.2867
    173  CB       -18.7510   -9.5670   29.7810 C.3   276  GLU276      0.0388
    174  CG       -20.0730   -9.2570   30.4630 C.3   276  GLU276      0.1160
    175  CD       -21.1450   -8.8040   29.4910 C.2   276  GLU276      0.3649
    176  OE1      -20.8450   -8.6610   28.2860 O.co2 276  GLU276     -0.2457
    177  OE2      -22.2920   -8.5840   29.9360 O.co2 276  GLU276     -0.2457
@<TRIPOS>BOND
     1    63    62    2
     2    64    62   am
     3    54    53    2
     4    62    61    1
     5   144   145    1
     6    53    52    1
     7    52    55    1
     8    52    51    1
     9    47    46    2
    10    61    58    1
    11   145   146    1
    12   145   148    1
    13    55    56    1
    14   172   171    2
    15   150   148    1
    16    58    57    1
    17    58    59    1
    18   171   170    1
    19   176   175   ar
    20   146   147    2
    21    46    51   am
    22    46    45    1
    23    73    74   ar
    24    73    71   ar
    25    74    72   ar
    26   148   149    1
    27    49    48    1
    28   170   173    1
    29   170   169    1
    30    71    70   ar
    31    72    70   ar
    32    59    60    2
    33   175   177   ar
    34   175   174    1
    35    70    69    1
    36   173   174    1
    37    45    48    1
    38    45    44    1
    39    48    50    1
    40   151   152    1
    41   167   166    1
    42    69    66    1
    43   163   164    1
    44   163   162    1
    45    65    66    1
    46    44    39   am
    47   152   153    1
    48   152   155    1
    49     1     2    1
    50   164   165    1
    51    40    39    2
    52   162   159    1
    53    42    41    1
    54    66    67    1
    55   166   165    2
    56   166   168    1
    57    39    38    1
    58   158   153   am
    59   158   159    1
    60   153   154    2
    61    43    41    1
    62   157   155    1
    63   155   156    1
    64   159   160    1
    65    20    19   ar
    66    20    18   ar
    67    19    17   ar
    68    75    67   am
    69    75    76    1
    70    41    38    1
    71    67    68    2
    72   142   141   ar
    73     2     3    1
    74     2     5    1
    75    38    37    1
    76     3     4    2
    77   143   141   ar
    78    76    77    1
    79    17    16   ar
    80     5     6    1
    81    18    16   ar
    82   141   140    1
    83   160   161    2
    84    89    87    1
    85    16    15    1
    86   138   137    1
    87   138   139    2
    88   108   107   ar
    89    94    91    1
    90    77    78    2
    91   109   107   ar
    92     6     7   ar
    93     6     8   ar
    94   137   140    1
    95   137   136    1
    96    36    34   am
    97    86    87    2
    98    86    85    1
    99   107   106    1
   100    87    88    1
   101     7     9   ar
   102    27    26   ar
   103    15    12    1
   104     8    10   ar
   105    34    33    1
   106    34    35    2
   107    33    30    1
   108    93    92    2
   109    91    92    1
   110    91    90    1
   111    28    26   ar
   112    26    25    1
   113    85    84    1
   114   106   103    1
   115    92    95   am
   116     9    10   ar
   117    84    83    1
   118    82    81    2
   119    11    12    1
   120    12    13    1
   121    90    81   am
   122   103   102    1
   123   103   104    1
   124    32    31    2
   125    25    22    1
   126    81    80    1
   127    30    31    1
   128    30    29    1
   129    22    21    1
   130    22    23    1
   131   125   124   ar
   132   102    97   am
   133   117   115   ar
   134    95    96    1
   135   126   124   ar
   136    83    80    1
   137   124   123    1
   138    97    98    2
   139    97    96    1
   140    13    14    2
   141   110   104   am
   142   110   111    1
   143    23    24    2
   144   115   116   ar
   145   115   114    1
   146   104   105    2
   147    80    79    1
   148    96    99    1
   149   114   111    1
   150   123   122    1
   151   111   112    1
   152    99   101    1
   153    99   100    1
   154   112   113    2
   155   122   119    1
   156   118   119    1
   157   135   134    1
   158   134   133    1
   159   119   120    1
   160   133   132    1
   161   132   131    1
   162   127   120   am
   163   127   128    1
   164   120   121    2
   165   131   128    1
   166   128   129    1
   167   129   130    2
