@<TRIPOS>MOLECULE
tmp/5hjbA00.pdb
 189 194 0 0 0
SMALL
GASTEIGER

@<TRIPOS>ATOM
      1  N         58.4200    6.9890   -6.9820 N.3    30  PHE30      -0.1241
      2  CA        57.4910    7.8720   -6.2980 C.3    30  PHE30       0.1605
      3  C         57.9510    8.1350   -4.8720 C.2    30  PHE30       0.2264
      4  O         58.4130    7.2300   -4.1830 O.2    30  PHE30      -0.2867
      5  CB        56.1190    7.2210   -6.2840 C.3    30  PHE30       0.0534
      6  CG        55.6620    6.7340   -7.6410 C.ar   30  PHE30      -0.0203
      7  CD1       55.9950    7.4320   -8.8000 C.ar   30  PHE30      -0.0042
      8  CD2       54.9040    5.5730   -7.7580 C.ar   30  PHE30      -0.0042
      9  CE1       55.5650    6.9830  -10.0460 C.ar   30  PHE30      -0.0003
     10  CE2       54.4710    5.1270   -8.9960 C.ar   30  PHE30      -0.0003
     11  CZ        54.7930    5.8330  -10.1390 C.ar   30  PHE30      -0.0000
     12  N         55.8930    9.9250   -2.4650 N.3    32  HIS32      -0.1241
     13  CA        54.8100   10.2230   -1.5360 C.3    32  HIS32       0.1621
     14  C         53.6540    9.2750   -1.7730 C.2    32  HIS32       0.2264
     15  O         53.4100    8.8530   -2.9030 O.2    32  HIS32      -0.2867
     16  CB        54.2540   11.6600   -1.6820 C.3    32  HIS32       0.0745
     17  CG        55.2130   12.7380   -1.3000 C.ar   32  HIS32       0.0817
     18  ND1       56.3670   12.9930   -2.0070 N.ar   32  HIS32      -0.2268
     19  CD2       55.1820   13.6430   -0.2940 C.ar   32  HIS32       0.1154
     20  CE1       57.0290   13.9850   -1.4310 C.ar   32  HIS32       0.1986
     21  NE2       56.3260   14.4050   -0.3930 N.ar   32  HIS32      -0.2212
     22  N         49.5190    9.6530   -1.2510 N.3    34  TRP34      -0.1241
     23  CA        48.5250   10.6640   -0.9950 C.3    34  TRP34       0.1605
     24  C         47.1570   10.1340   -1.3770 C.2    34  TRP34       0.2264
     25  O         47.0040    9.2080   -2.1840 O.2    34  TRP34      -0.2867
     26  CB        48.8320   11.9550   -1.7620 C.3    34  TRP34       0.0550
     27  CG        49.0550   11.8160   -3.2420 C.ar   34  TRP34       0.0003
     28  CD1       50.2550   11.8480   -3.8900 C.ar   34  TRP34       0.0946
     29  CD2       48.0550   11.6710   -4.2610 C.ar   34  TRP34       0.0152
     30  NE1       50.0660   11.7240   -5.2460 N.ar   34  TRP34      -0.2442
     31  CE2       48.7240   11.6120   -5.4980 C.ar   34  TRP34       0.0810
     32  CE3       46.6630   11.5670   -4.2450 C.ar   34  TRP34       0.0012
     33  CZ2       48.0490   11.4720   -6.7020 C.ar   34  TRP34       0.0191
     34  CZ3       45.9860   11.4400   -5.4510 C.ar   34  TRP34       0.0001
     35  CH2       46.6770   11.3900   -6.6560 C.ar   34  TRP34       0.0015
     36  N         46.8710   13.8660  -13.4730 N.3    58  HIS58      -0.1241
     37  CA        47.8050   14.4390  -14.4320 C.3    58  HIS58       0.1621
     38  C         48.1620   13.4110  -15.5070 C.2    58  HIS58       0.2264
     39  O         48.0340   12.1910  -15.3120 O.2    58  HIS58      -0.2867
     40  CB        49.0540   14.9450  -13.7020 C.3    58  HIS58       0.0745
     41  CG        50.0430   15.6580  -14.5710 C.ar   58  HIS58       0.0817
     42  ND1       51.2350   15.0860  -14.9600 N.ar   58  HIS58      -0.2268
     43  CD2       50.0440   16.9060  -15.0880 C.ar   58  HIS58       0.1154
     44  CE1       51.9100   15.9430  -15.7060 C.ar   58  HIS58       0.1986
     45  NE2       51.2150   17.0600  -15.7920 N.ar   58  HIS58      -0.2212
     46  N         50.9000   12.3220  -16.6280 N.3    60  SER60      -0.1202
     47  CA        51.9970   11.4130  -16.2860 C.3    60  SER60       0.2020
     48  C         51.5300   10.1560  -15.5580 C.2    60  SER60       0.2619
     49  O         52.3560    9.2730  -15.3080 O.2    60  SER60      -0.2717
     50  CB        53.0280   12.1660  -15.4230 C.3    60  SER60       0.2103
     51  OG        52.3950   13.0370  -14.4900 O.3    60  SER60      -0.2182
     52  N         50.3050   10.0760  -15.1970 N.am   61  PHE61      -0.1962
     53  CA        49.6830    8.9810  -14.4700 C.3    61  PHE61       0.1756
     54  C         49.0600    7.9910  -15.4470 C.2    61  PHE61       0.2461
     55  O         48.4250    8.3990  -16.4290 O.2    61  PHE61      -0.2730
     56  CB        48.5940    9.4990  -13.5220 C.3    61  PHE61       0.0574
     57  CG        49.1170    9.9350  -12.1810 C.ar   61  PHE61      -0.0200
     58  CD1       49.3140    9.0120  -11.1690 C.ar   61  PHE61      -0.0042
     59  CD2       49.4170   11.2670  -11.9300 C.ar   61  PHE61      -0.0042
     60  CE1       49.8240    9.4060   -9.9470 C.ar   61  PHE61      -0.0003
     61  CE2       49.9150   11.6620  -10.6990 C.ar   61  PHE61      -0.0003
     62  CZ        50.1160   10.7410   -9.7060 C.ar   61  PHE61      -0.0000
     63  N         49.2750    6.7030  -15.1830 N.am   62  PRO62      -0.2727
     64  CA        48.5070    5.6690  -15.8770 C.3    62  PRO62       0.1402
     65  C         47.0190    5.9350  -15.7420 C.2    62  PRO62       0.2269
     66  O         46.5510    6.4480  -14.7200 O.2    62  PRO62      -0.2865
     67  CB        48.9010    4.3890  -15.1440 C.3    62  PRO62       0.0296
     68  CG        50.2430    4.6800  -14.5790 C.3    62  PRO62       0.0237
     69  CD        50.2700    6.1300  -14.2560 C.3    62  PRO62       0.0939
     70  N         50.5760    7.2440   -5.4270 N.3    78  SER78      -0.1202
     71  CA        51.9180    7.6650   -5.0470 C.3    78  SER78       0.2020
     72  C         52.5160    8.5020   -6.1670 C.2    78  SER78       0.2619
     73  O         52.1990    8.3120   -7.3460 O.2    78  SER78      -0.2717
     74  CB        52.8250    6.4780   -4.7430 C.3    78  SER78       0.2103
     75  OG        52.2990    5.7430   -3.6530 O.3    78  SER78      -0.2182
     76  N         53.3840    9.4390   -5.7880 N.am   79  GLY79      -0.1942
     77  CA        53.8710   10.3830   -6.7740 C.3    79  GLY79       0.2014
     78  C         55.1390   11.0790   -6.3330 C.2    79  GLY79       0.2639
     79  O         55.6930   10.8060   -5.2630 O.2    79  GLY79      -0.2714
     80  N         55.5990   11.9960   -7.1800 N.am   80  TYR80      -0.1959
     81  CA        56.8250   12.7090   -6.8760 C.3    80  TYR80       0.1771
     82  C         56.6950   14.2160   -6.8630 C.2    80  TYR80       0.2619
     83  O         57.6830   14.8770   -6.5440 O.2    80  TYR80      -0.2715
     84  CB        57.9400   12.3270   -7.8650 C.3    80  TYR80       0.0574
     85  CG        57.5580   12.4160   -9.3200 C.ar   80  TYR80      -0.0198
     86  CD1       56.9570   11.3430   -9.9420 C.ar   80  TYR80      -0.0009
     87  CD2       57.8190   13.5540  -10.0700 C.ar   80  TYR80      -0.0009
     88  CE1       56.6120   11.3890  -11.2590 C.ar   80  TYR80       0.0417
     89  CE2       57.4720   13.6160  -11.4070 C.ar   80  TYR80       0.0417
     90  CZ        56.8730   12.5180  -11.9970 C.ar   80  TYR80       0.1957
     91  OH        56.4930   12.5100  -13.3260 O.3    80  TYR80      -0.2866
     92  N         55.5290   14.7680   -7.1960 N.am   81  ALA81      -0.1963
     93  CA        55.3450   16.1990   -7.4200 C.3    81  ALA81       0.1728
     94  C         53.8520   16.5070   -7.4080 C.2    81  ALA81       0.2617
     95  O         53.0440   15.6400   -7.7250 O.2    81  ALA81      -0.2715
     96  CB        55.9870   16.6240   -8.7430 C.3    81  ALA81       0.0334
     97  N         53.4890   17.7460   -7.0280 N.am   82  GLY82      -0.1940
     98  CA        52.0980   18.1630   -6.9640 C.3    82  GLY82       0.2014
     99  C         51.5900   18.7000   -8.2850 C.2    82  GLY82       0.2639
    100  O         52.3500   18.8680   -9.2460 O.2    82  GLY82      -0.2714
    101  N         50.2850   18.9880   -8.3230 N.am   83  PHE83      -0.1959
    102  CA        49.6380   19.3240   -9.5900 C.3    83  PHE83       0.1771
    103  C         48.1830   19.7450   -9.3750 C.2    83  PHE83       0.2619
    104  O         47.5670   19.4580   -8.3360 O.2    83  PHE83      -0.2715
    105  CB        49.6980   18.1370  -10.5590 C.3    83  PHE83       0.0574
    106  CG        49.0770   16.8570  -10.0020 C.ar   83  PHE83      -0.0200
    107  CD1       49.8230   16.0030   -9.1940 C.ar   83  PHE83      -0.0042
    108  CD2       47.7620   16.5140  -10.2900 C.ar   83  PHE83      -0.0042
    109  CE1       49.2810   14.8500   -8.6690 C.ar   83  PHE83      -0.0003
    110  CE2       47.1990   15.3440   -9.7730 C.ar   83  PHE83      -0.0003
    111  CZ        47.9610   14.5120   -8.9550 C.ar   83  PHE83      -0.0000
    112  N         47.6270   20.4010  -10.4030 N.am   84  ILE84      -0.1977
    113  CA        46.1930   20.7070  -10.4340 C.3    84  ILE84       0.1596
    114  C         45.4110   19.4630  -10.8470 C.2    84  ILE84       0.2287
    115  O         45.7650   18.7740  -11.8100 O.2    84  ILE84      -0.2864
    116  CB        45.8900   21.8850  -11.3740 C.3    84  ILE84       0.0276
    117  CG1       46.5020   23.2120  -10.8590 C.3    84  ILE84       0.0022
    118  CG2       44.3560   22.0070  -11.6200 C.3    84  ILE84       0.0022
    119  CD1       46.1680   23.5620   -9.4560 C.3    84  ILE84       0.0001
    120  N         43.9340   21.6920   -5.7500 N.3   105  ASP105     -0.1225
    121  CA        45.3930   21.8050   -5.7260 C.3   105  ASP105      0.1805
    122  C         45.9790   20.6740   -4.8890 C.2   105  ASP105      0.2598
    123  O         46.0150   20.7470   -3.6530 O.2   105  ASP105     -0.2718
    124  CB        45.8260   23.1550   -5.1890 C.3   105  ASP105      0.1424
    125  CG        47.3230   23.3850   -5.3120 C.2   105  ASP105      0.3668
    126  OD1       48.0740   22.4450   -5.6710 O.co2 105  ASP105     -0.2456
    127  OD2       47.7370   24.5280   -5.0580 O.co2 105  ASP105     -0.2456
    128  N         46.4920   19.6440   -5.5710 N.am  106  LEU106     -0.1966
    129  CA        47.0730   18.5030   -4.8750 C.3   106  LEU106      0.1728
    130  C         48.5510   18.7640   -4.6810 C.2   106  LEU106      0.2616
    131  O         49.3890   18.4260   -5.5350 O.2   106  LEU106     -0.2715
    132  CB        46.8410   17.2080   -5.6360 C.3   106  LEU106      0.0311
    133  CG        47.0890   16.0600   -4.6530 C.3   106  LEU106      0.0022
    134  CD1       45.9760   15.0260   -4.7530 C.3   106  LEU106      0.0001
    135  CD2       48.4560   15.4130   -4.8480 C.3   106  LEU106      0.0001
    136  N         48.8800   19.3500   -3.5380 N.am  107  PHE107     -0.1960
    137  CA        50.2670   19.6700   -3.2490 C.3   107  PHE107      0.1771
    138  C         50.8550   18.7000   -2.2360 C.2   107  PHE107      0.2619
    139  O         50.1310   18.0720   -1.4560 O.2   107  PHE107     -0.2715
    140  CB        50.4030   21.1070   -2.7540 C.3   107  PHE107      0.0574
    141  CG        49.6780   21.4040   -1.4670 C.ar  107  PHE107     -0.0200
    142  CD1       50.2670   21.1450   -0.2410 C.ar  107  PHE107     -0.0042
    143  CD2       48.4180   21.9850   -1.4840 C.ar  107  PHE107     -0.0042
    144  CE1       49.6030   21.4420    0.9290 C.ar  107  PHE107     -0.0003
    145  CE2       47.7570   22.2850   -0.3150 C.ar  107  PHE107     -0.0003
    146  CZ        48.3410   22.0150    0.8890 C.ar  107  PHE107     -0.0000
    147  N         52.1780   18.5900   -2.2510 N.am  108  LEU108     -0.1963
    148  CA        52.9220   17.7190   -1.3460 C.3   108  LEU108      0.1728
    149  C         53.8970   18.5530   -0.5200 C.2   108  LEU108      0.2616
    150  O         54.4170   19.5670   -0.9970 O.2   108  LEU108     -0.2715
    151  CB        53.6950   16.6250   -2.1360 C.3   108  LEU108      0.0311
    152  CG        53.0210   16.0640   -3.4040 C.3   108  LEU108      0.0022
    153  CD1       53.8970   15.1880   -4.2690 C.3   108  LEU108      0.0001
    154  CD2       51.7980   15.2990   -2.9670 C.3   108  LEU108      0.0001
    155  N         54.1610   18.1150    0.7170 N.am  109  HIS109     -0.1959
    156  CA        55.1940   18.7270    1.5530 C.3   109  HIS109      0.1787
    157  C         56.5240   17.9680    1.4560 C.2   109  HIS109      0.2620
    158  O         56.5760   16.7860    1.1080 O.2   109  HIS109     -0.2715
    159  CB        54.7520   18.7820    3.0140 C.3   109  HIS109      0.0785
    160  CG        53.8640   19.9370    3.3410 C.ar  109  HIS109      0.0821
    161  ND1       53.4920   20.8870    2.4120 N.ar  109  HIS109     -0.2267
    162  CD2       53.2780   20.2970    4.5050 C.ar  109  HIS109      0.1154
    163  CE1       52.7070   21.7790    2.9890 C.ar  109  HIS109      0.1986
    164  NE2       52.5630   21.4450    4.2590 N.ar  109  HIS109     -0.2212
    165  N         57.6050   18.6610    1.7950 N.am  110  LEU110     -0.1977
    166  CA        58.9280   18.0560    1.7230 C.3   110  LEU110      0.1596
    167  C         59.2510   17.2730    2.9930 C.2   110  LEU110      0.2287
    168  O         58.6170   17.4320    4.0430 O.2   110  LEU110     -0.2864
    169  CB        60.0080   19.1120    1.5140 C.3   110  LEU110      0.0297
    170  CG        59.9740   20.0380    0.3030 C.3   110  LEU110      0.0022
    171  CD1       60.5620   21.3690    0.7280 C.3   110  LEU110      0.0001
    172  CD2       60.7550   19.4630   -0.8670 C.3   110  LEU110      0.0001
    173  N         59.0150   17.8080    7.1670 N.3   113  HIS113     -0.1227
    174  CA        57.8770   18.6370    7.5120 C.3   113  HIS113      0.1737
    175  C         56.6520   17.7650    7.7220 C.2   113  HIS113      0.2438
    176  O         56.5710   16.6730    7.1510 O.2   113  HIS113     -0.2733
    177  CB        57.5920   19.6560    6.4140 C.3   113  HIS113      0.0758
    178  CG        58.6400   20.7080    6.2990 C.ar  113  HIS113      0.0818
    179  ND1       58.4030   22.0310    6.6040 N.ar  113  HIS113     -0.2268
    180  CD2       59.9350   20.6320    5.9190 C.ar  113  HIS113      0.1154
    181  CE1       59.5100   22.7250    6.4140 C.ar  113  HIS113      0.1986
    182  NE2       60.4550   21.8990    5.9970 N.ar  113  HIS113     -0.2212
    183  N         55.6970   18.2010    8.5420 N.am  114  PRO114     -0.2729
    184  CA        54.5040   17.3800    8.8030 C.3   114  PRO114      0.1401
    185  C         53.8930   16.8900    7.5050 C.2   114  PRO114      0.2269
    186  O         54.1750   17.4340    6.4270 O.2   114  PRO114     -0.2865
    187  CB        53.5600   18.3490    9.5350 C.3   114  PRO114      0.0296
    188  CG        54.4810   19.3540   10.1900 C.3   114  PRO114      0.0237
    189  CD        55.6880   19.4720    9.2940 C.3   114  PRO114      0.0939
@<TRIPOS>BOND
     1    46    47    1
     2    55    54    2
     3    47    48    1
     4    47    50    1
     5    64    65    1
     6    64    63    1
     7    64    67    1
     8    45    44   ar
     9    45    43   ar
    10    65    66    2
    11    44    42   ar
    12    48    49    2
    13    48    52   am
    14    38    39    2
    15    38    37    1
    16    54    63   am
    17    54    53    1
    18    50    51    1
    19    52    53    1
    20    63    69    1
    21    67    68    1
    22    43    41   ar
    23    42    41   ar
    24    68    69    1
    25    41    40    1
    26    53    56    1
    27    37    40    1
    28    37    36    1
    29    56    57    1
    30    91    90    1
    31    57    59   ar
    32    57    58   ar
    33    90    89   ar
    34    90    88   ar
    35    59    61   ar
    36   115   114    2
    37   118   116    1
    38    89    87   ar
    39   116   117    1
    40   116   113    1
    41    88    86   ar
    42    58    60   ar
    43   117   119    1
    44   114   113    1
    45    61    62   ar
    46   105   106    1
    47   105   102    1
    48   113   112    1
    49   112   103   am
    50   108   106   ar
    51   108   110   ar
    52    11     9   ar
    53    11    10   ar
    54    87    85   ar
    55     9     7   ar
    56   106   107   ar
    57    60    62   ar
    58    86    85   ar
    59   110   111   ar
    60   102   103    1
    61   102   101    1
    62   103   104    2
    63    85    84    1
    64   100    99    2
    65   107   109   ar
    66    10     8   ar
    67   111   109   ar
    68     7     6   ar
    69    96    93    1
    70   101    99   am
    71    99    98    1
    72    84    81    1
    73     8     6   ar
    74    95    94    2
    75     6     5    1
    76    93    94    1
    77    93    92    1
    78    94    97   am
    79    73    72    2
    80    92    82   am
    81    80    81    1
    82    80    78   am
    83    97    98    1
    84     1     2    1
    85    81    82    1
    86    82    83    2
    87    77    78    1
    88    77    76    1
    89    33    35   ar
    90    33    31   ar
    91    35    34   ar
    92    78    79    2
    93     2     5    1
    94     2     3    1
    95    72    76   am
    96    72    71    1
    97   120   121    1
    98   121   124    1
    99   121   122    1
   100   126   125   ar
   101   132   129    1
   102   132   133    1
   103   128   122   am
   104   128   129    1
   105   131   130    2
   106    31    30   ar
   107    31    29   ar
   108    34    32   ar
   109    70    71    1
   110   125   124    1
   111   125   127   ar
   112    30    28   ar
   113    71    74    1
   114   122   123    2
   115   129   130    1
   116     3     4    2
   117   135   133    1
   118   134   133    1
   119    74    75    1
   120   130   136   am
   121   153   152    1
   122    29    32   ar
   123    29    27   ar
   124    28    27   ar
   125   136   137    1
   126   152   154    1
   127   152   151    1
   128   137   140    1
   129   137   138    1
   130    27    26    1
   131    15    14    2
   132   140   141    1
   133    12    13    1
   134   147   138   am
   135   147   148    1
   136   138   139    2
   137    25    24    2
   138   151   148    1
   139    18    20   ar
   140    18    17   ar
   141    14    13    1
   142    26    23    1
   143    16    13    1
   144    16    17    1
   145   143   141   ar
   146   143   145   ar
   147   141   142   ar
   148    20    21   ar
   149    24    23    1
   150   148   149    1
   151    17    19   ar
   152    22    23    1
   153   150   149    2
   154   172   170    1
   155   149   155   am
   156    21    19   ar
   157   145   146   ar
   158   142   144   ar
   159   170   171    1
   160   170   169    1
   161   155   156    1
   162   146   144   ar
   163   158   157    2
   164   157   156    1
   165   157   165   am
   166   169   166    1
   167   156   159    1
   168   166   165    1
   169   166   167    1
   170   161   163   ar
   171   161   160   ar
   172   163   164   ar
   173   167   168    2
   174   159   160    1
   175   160   162   ar
   176   164   162   ar
   177   180   182   ar
   178   180   178   ar
   179   182   181   ar
   180   178   177    1
   181   178   179   ar
   182   177   174    1
   183   181   179   ar
   184   186   185    2
   185   176   175    2
   186   173   174    1
   187   185   184    1
   188   174   175    1
   189   175   183   am
   190   183   184    1
   191   183   189    1
   192   184   187    1
   193   189   188    1
   194   187   188    1
