@<TRIPOS>MOLECULE
tmp/5hjcA00.pdb
 174 176 0 0 0
SMALL
GASTEIGER

@<TRIPOS>ATOM
      1  N        -28.5260  -21.5760    6.3030 N.3    26  TRP26      -0.1228
      2  CA       -28.2420  -21.6840    7.7350 C.3    26  TRP26       0.1722
      3  C        -28.3010  -23.1090    8.3220 C.2    26  TRP26       0.2437
      4  O        -27.6070  -23.3850    9.3020 O.2    26  TRP26      -0.2733
      5  CB       -29.1760  -20.7610    8.5380 C.3    26  TRP26       0.0563
      6  CG       -30.6200  -21.1780    8.6150 C.ar   26  TRP26       0.0003
      7  CD1      -31.6490  -20.7070    7.8530 C.ar   26  TRP26       0.0946
      8  CD2      -31.1960  -22.1300    9.5210 C.ar   26  TRP26       0.0152
      9  NE1      -32.8250  -21.3130    8.2190 N.ar   26  TRP26      -0.2442
     10  CE2      -32.5740  -22.1940    9.2400 C.ar   26  TRP26       0.0810
     11  CE3      -30.6780  -22.9430   10.5350 C.ar   26  TRP26       0.0012
     12  CZ2      -33.4420  -23.0340    9.9340 C.ar   26  TRP26       0.0191
     13  CZ3      -31.5400  -23.7750   11.2250 C.ar   26  TRP26       0.0001
     14  CH2      -32.9080  -23.8150   10.9220 C.ar   26  TRP26       0.0015
     15  N        -29.1100  -24.0250    7.7450 N.am   27  PRO27      -0.2718
     16  CA       -29.0130  -25.3650    8.3390 C.3    27  PRO27       0.1535
     17  C        -27.7030  -26.0850    8.0110 C.2    27  PRO27       0.2598
     18  O        -27.4900  -27.2020    8.4830 O.2    27  PRO27      -0.2715
     19  CB       -30.2000  -26.1130    7.7200 C.3    27  PRO27       0.0310
     20  CG       -31.1360  -25.0520    7.2760 C.3    27  PRO27       0.0237
     21  CD       -30.2570  -23.9340    6.8220 C.3    27  PRO27       0.0939
     22  N        -26.8380  -25.4510    7.2250 N.am   28  PHE28      -0.1974
     23  CA       -25.5880  -26.0720    6.8100 C.3    28  PHE28       0.1639
     24  C        -24.3720  -25.3070    7.3280 C.2    28  PHE28       0.2290
     25  O        -23.2330  -25.6430    7.0020 O.2    28  PHE28      -0.2864
     26  CB       -25.5380  -26.1790    5.2850 C.3    28  PHE28       0.0560
     27  CG       -26.7460  -26.8420    4.6850 C.ar   28  PHE28      -0.0200
     28  CD1      -26.8360  -28.2220    4.6260 C.ar   28  PHE28      -0.0042
     29  CD2      -27.7910  -26.0840    4.1820 C.ar   28  PHE28      -0.0042
     30  CE1      -27.9480  -28.8360    4.0760 C.ar   28  PHE28      -0.0003
     31  CE2      -28.9040  -26.6900    3.6300 C.ar   28  PHE28      -0.0003
     32  CZ       -28.9820  -28.0680    3.5780 C.ar   28  PHE28      -0.0000
     33  N        -24.6130  -31.0410   11.7870 N.3    32  VAL32      -0.1245
     34  CA       -25.9520  -31.3930   12.2430 C.3    32  VAL32       0.1561
     35  C        -25.9120  -31.8780   13.6850 C.2    32  VAL32       0.2260
     36  O        -25.3500  -32.9320   13.9810 O.2    32  VAL32      -0.2867
     37  CB       -26.5880  -32.4790   11.3560 C.3    32  VAL32       0.0252
     38  CG1      -27.9070  -32.9480   11.9500 C.3    32  VAL32       0.0019
     39  CG2      -26.7950  -31.9500    9.9500 C.3    32  VAL32       0.0019
     40  N        -29.2200  -31.9710   19.8850 N.3    36  ALA36      -0.1231
     41  CA       -30.2560  -30.9550   20.0460 C.3    36  ALA36       0.1694
     42  C        -31.5250  -31.2950   19.2760 C.2    36  ALA36       0.2592
     43  O        -32.6330  -31.1270   19.7830 O.2    36  ALA36      -0.2718
     44  CB       -29.7270  -29.5950   19.6090 C.3    36  ALA36       0.0304
     45  N        -31.3550  -31.7740   18.0490 N.am   37  LEU37      -0.1966
     46  CA       -32.4890  -32.1120   17.1990 C.3    37  LEU37       0.1728
     47  C        -33.0330  -33.4950   17.5470 C.2    37  LEU37       0.2616
     48  O        -34.0700  -33.9110   17.0290 O.2    37  LEU37      -0.2715
     49  CB       -32.0880  -32.0450   15.7220 C.3    37  LEU37       0.0311
     50  CG       -31.5020  -30.7080   15.2540 C.3    37  LEU37       0.0022
     51  CD1      -31.0770  -30.7760   13.7930 C.3    37  LEU37       0.0001
     52  CD2      -32.4860  -29.5700   15.4780 C.3    37  LEU37       0.0001
     53  N        -32.3220  -34.1900   18.4330 N.am   38  GLU38      -0.1963
     54  CA       -32.7030  -35.5230   18.9030 C.3    38  GLU38       0.1733
     55  C        -32.8740  -36.5080   17.7470 C.2    38  GLU38       0.2616
     56  O        -33.8960  -37.1840   17.6340 O.2    38  GLU38      -0.2715
     57  CB       -33.9840  -35.4510   19.7420 C.3    38  GLU38       0.0429
     58  CG       -33.8770  -34.5230   20.9480 C.3    38  GLU38       0.1163
     59  CD       -35.1110  -34.5560   21.8320 C.2    38  GLU38       0.3649
     60  OE1      -35.1470  -35.3800   22.7700 O.co2  38  GLU38      -0.2457
     61  OE2      -36.0410  -33.7550   21.5940 O.co2  38  GLU38      -0.2457
     62  N        -31.8570  -36.5780   16.8930 N.am   39  LEU39      -0.1963
     63  CA       -31.8460  -37.5010   15.7640 C.3    39  LEU39       0.1728
     64  C        -30.9930  -38.7190   16.1010 C.2    39  LEU39       0.2616
     65  O        -29.8110  -38.7760   15.7600 O.2    39  LEU39      -0.2715
     66  CB       -31.3200  -36.8050   14.5080 C.3    39  LEU39       0.0311
     67  CG       -31.9640  -35.4540   14.1820 C.3    39  LEU39       0.0022
     68  CD1      -31.3140  -34.8150   12.9630 C.3    39  LEU39       0.0001
     69  CD2      -33.4620  -35.6070   13.9760 C.3    39  LEU39       0.0001
     70  N        -31.6030  -39.6920   16.7700 N.am   40  HIS40      -0.1959
     71  CA       -30.8730  -40.8310   17.3260 C.3    40  HIS40       0.1787
     72  C        -30.3470  -41.7960   16.2660 C.2    40  HIS40       0.2620
     73  O        -29.6140  -42.7330   16.5810 O.2    40  HIS40      -0.2715
     74  CB       -31.7650  -41.5940   18.3070 C.3    40  HIS40       0.0785
     75  CG       -32.5490  -40.7080   19.2260 C.ar   40  HIS40       0.0821
     76  ND1      -31.9520  -39.8200   20.0960 N.ar   40  HIS40      -0.2267
     77  CD2      -33.8830  -40.5760   19.4130 C.ar   40  HIS40       0.1154
     78  CE1      -32.8840  -39.1780   20.7760 C.ar   40  HIS40       0.1986
     79  NE2      -34.0660  -39.6190   20.3820 N.ar   40  HIS40      -0.2212
     80  N        -30.7170  -41.5660   15.0110 N.am   41  ASP41      -0.1957
     81  CA       -30.3370  -42.4700   13.9320 C.3    41  ASP41       0.1840
     82  C        -29.5090  -41.7760   12.8530 C.2    41  ASP41       0.2622
     83  O        -29.1970  -42.3780   11.8260 O.2    41  ASP41      -0.2715
     84  CB       -31.5910  -43.0860   13.3070 C.3    41  ASP41       0.1450
     85  CG       -32.5080  -42.0410   12.6930 C.2    41  ASP41       0.3671
     86  OD1      -32.4830  -40.8790   13.1540 O.co2  41  ASP41      -0.2456
     87  OD2      -33.2530  -42.3760   11.7490 O.co2  41  ASP41      -0.2456
     88  N        -29.1560  -40.5150   13.0870 N.am   42  TYR42      -0.1974
     89  CA       -28.4650  -39.7160   12.0780 C.3    42  TYR42       0.1639
     90  C        -27.0810  -40.2630   11.7390 C.2    42  TYR42       0.2290
     91  O        -26.6980  -40.3210   10.5710 O.2    42  TYR42      -0.2864
     92  CB       -28.3400  -38.2610   12.5350 C.3    42  TYR42       0.0560
     93  CG       -27.7560  -37.3480   11.4810 C.ar   42  TYR42      -0.0198
     94  CD1      -28.5500  -36.8440   10.4590 C.ar   42  TYR42      -0.0009
     95  CD2      -26.4110  -36.9950   11.5020 C.ar   42  TYR42      -0.0009
     96  CE1      -28.0240  -36.0120    9.4890 C.ar   42  TYR42       0.0417
     97  CE2      -25.8750  -36.1630   10.5350 C.ar   42  TYR42       0.0417
     98  CZ       -26.6860  -35.6750    9.5310 C.ar   42  TYR42       0.1957
     99  OH       -26.1590  -34.8470    8.5650 O.3    42  TYR42      -0.2866
    100  N        -28.0310  -34.6740    3.2820 N.3    81  CYS81      -0.1235
    101  CA       -29.3190  -34.0360    3.5370 C.3    81  CYS81       0.1677
    102  C        -30.4370  -34.7390    2.7730 C.2    81  CYS81       0.2270
    103  O        -31.5110  -34.9910    3.3200 O.2    81  CYS81      -0.2867
    104  CB       -29.2650  -32.5540    3.1560 C.3    81  CYS81       0.0956
    105  SG       -30.7490  -31.6110    3.5870 S.3    81  CYS81      -0.0801
    106  N        -30.8720  -38.4730    4.4040 N.3    84  TYR84      -0.1227
    107  CA       -31.4610  -38.6150    5.7300 C.3    84  TYR84       0.1736
    108  C        -32.9120  -38.1510    5.7920 C.2    84  TYR84       0.2595
    109  O        -33.7690  -38.8440    6.3380 O.2    84  TYR84      -0.2718
    110  CB       -30.6370  -37.8480    6.7670 C.3    84  TYR84       0.0548
    111  CG       -31.1890  -37.9820    8.1660 C.ar   84  TYR84      -0.0200
    112  CD1      -31.0540  -39.1690    8.8710 C.ar   84  TYR84      -0.0009
    113  CD2      -31.8540  -36.9280    8.7790 C.ar   84  TYR84      -0.0009
    114  CE1      -31.5590  -39.3020   10.1460 C.ar   84  TYR84       0.0417
    115  CE2      -32.3630  -37.0530   10.0570 C.ar   84  TYR84       0.0417
    116  CZ       -32.2120  -38.2430   10.7350 C.ar   84  TYR84       0.1957
    117  OH       -32.7140  -38.3800   12.0080 O.3    84  TYR84      -0.2866
    118  N        -33.1800  -36.9750    5.2360 N.am   85  ASN85      -0.1961
    119  CA       -34.4990  -36.3620    5.3390 C.3    85  ASN85       0.1804
    120  C        -35.4630  -36.8240    4.2500 C.2    85  ASN85       0.2463
    121  O        -35.0410  -37.1310    3.1340 O.2    85  ASN85      -0.2730
    122  CB       -34.3700  -34.8360    5.2990 C.3    85  ASN85       0.1195
    123  CG       -33.4840  -34.2980    6.4050 C.2    85  ASN85       0.2630
    124  OD1      -33.9220  -34.1340    7.5440 O.2    85  ASN85      -0.2716
    125  ND2      -32.2320  -34.0120    6.0710 N.am   85  ASN85      -0.0877
    126  N        -36.7650  -36.8780    4.5780 N.am   86  PRO86      -0.2727
    127  CA       -37.8010  -37.1890    3.5860 C.3    86  PRO86       0.1402
    128  C        -37.8170  -36.1660    2.4530 C.2    86  PRO86       0.2269
    129  O        -37.5090  -34.9970    2.6900 O.2    86  PRO86      -0.2865
    130  CB       -39.1000  -37.1370    4.4000 C.3    86  PRO86       0.0296
    131  CG       -38.7630  -36.3520    5.6300 C.3    86  PRO86       0.0237
    132  CD       -37.3330  -36.6790    5.9220 C.3    86  PRO86       0.0939
    133  N        -39.9790  -34.4980    1.0100 N.3    88  ASP88      -0.1225
    134  CA       -40.9030  -33.3740    1.1210 C.3    88  ASP88       0.1805
    135  C        -40.4770  -32.3660    2.1830 C.2    88  ASP88       0.2598
    136  O        -41.1110  -31.3240    2.3430 O.2    88  ASP88      -0.2718
    137  CB       -42.3120  -33.8790    1.4300 C.3    88  ASP88       0.1424
    138  CG       -42.4430  -34.4070    2.8430 C.2    88  ASP88       0.3668
    139  OD1      -41.9360  -35.5160    3.1160 O.co2  88  ASP88      -0.2456
    140  OD2      -43.0580  -33.7150    3.6810 O.co2  88  ASP88      -0.2456
    141  N        -39.4020  -32.6770    2.9010 N.am   89  HIS89      -0.1961
    142  CA       -38.9290  -31.8190    3.9830 C.3    89  HIS89       0.1787
    143  C        -38.4040  -30.4860    3.4510 C.2    89  HIS89       0.2620
    144  O        -37.7970  -30.4270    2.3810 O.2    89  HIS89      -0.2715
    145  CB       -37.8410  -32.5320    4.7900 C.3    89  HIS89       0.0785
    146  CG       -37.6610  -31.9920    6.1760 C.ar   89  HIS89       0.0821
    147  ND1      -37.1970  -30.7190    6.4270 N.ar   89  HIS89      -0.2267
    148  CD2      -37.8770  -32.5580    7.3880 C.ar   89  HIS89       0.1154
    149  CE1      -37.1380  -30.5220    7.7320 C.ar   89  HIS89       0.1986
    150  NE2      -37.5450  -31.6230    8.3380 N.ar   89  HIS89      -0.2212
    151  N        -38.6460  -29.4220    4.2080 N.am   90  GLU90      -0.1963
    152  CA       -38.2280  -28.0780    3.8240 C.3    90  GLU90       0.1733
    153  C        -36.7110  -27.9440    3.7540 C.2    90  GLU90       0.2616
    154  O        -36.1880  -27.1660    2.9550 O.2    90  GLU90      -0.2715
    155  CB       -38.8070  -27.0500    4.8030 C.3    90  GLU90       0.0429
    156  CG       -38.2060  -25.6480    4.7260 C.3    90  GLU90       0.1163
    157  CD       -38.5070  -24.9320    3.4230 C.2    90  GLU90       0.3649
    158  OE1      -39.3590  -25.4160    2.6460 O.co2  90  GLU90      -0.2457
    159  OE2      -37.8860  -23.8760    3.1800 O.co2  90  GLU90      -0.2457
    160  N        -36.0060  -28.7040    4.5870 N.am   91  VAL91      -0.1977
    161  CA       -34.5490  -28.6580    4.6090 C.3    91  VAL91       0.1596
    162  C        -33.9770  -29.2120    3.3040 C.2    91  VAL91       0.2287
    163  O        -32.8610  -28.8730    2.9110 O.2    91  VAL91      -0.2864
    164  CB       -33.9740  -29.4410    5.8150 C.3    91  VAL91       0.0276
    165  CG1      -34.0450  -30.9430    5.5730 C.3    91  VAL91       0.0022
    166  CG2      -32.5440  -29.0120    6.0970 C.3    91  VAL91       0.0022
    167  N        -34.3150  -26.3760    0.8720 N.3    94  MET94      -0.1245
    168  CA       -33.2370  -25.4440    1.1780 C.3    94  MET94       0.1570
    169  C        -31.9250  -25.9040    0.5570 C.2    94  MET94       0.2261
    170  O        -31.1930  -25.1090   -0.0330 O.2    94  MET94      -0.2867
    171  CB       -33.0730  -25.2940    2.6920 C.3    94  MET94       0.0387
    172  CG       -34.1830  -24.5100    3.3660 C.3    94  MET94       0.0595
    173  SD       -34.0880  -24.6000    5.1620 S.3    94  MET94      -0.1393
    174  CE       -35.1200  -23.2110    5.6230 C.3    94  MET94       0.0692
@<TRIPOS>BOND
     1   170   169    2
     2   169   168    1
     3   167   168    1
     4   133   134    1
     5   134   137    1
     6   134   135    1
     7   168   171    1
     8   137   138    1
     9   135   136    2
    10   135   141   am
    11   144   143    2
    12   128   129    2
    13   128   127    1
    14   158   157   ar
    15   171   172    1
    16   102   103    2
    17   102   101    1
    18   138   139   ar
    19   138   140   ar
    20   141   142    1
    21   163   162    2
    22   154   153    2
    23   121   120    2
    24   104   101    1
    25   104   105    1
    26   159   157   ar
    27   100   101    1
    28   162   161    1
    29   172   173    1
    30   157   156    1
    31   143   142    1
    32   143   151   am
    33    32    31   ar
    34    32    30   ar
    35   127   130    1
    36   127   126    1
    37    31    29   ar
    38   153   152    1
    39   153   160   am
    40   152   151    1
    41   152   155    1
    42   142   145    1
    43    30    28   ar
    44    29    27   ar
    45   120   126   am
    46   120   119    1
    47   130   131    1
    48   106   107    1
    49   126   132    1
    50   160   161    1
    51   161   164    1
    52    28    27   ar
    53    27    26    1
    54   156   155    1
    55   145   146    1
    56   173   174    1
    57   118   119    1
    58   118   108   am
    59    26    23    1
    60   122   119    1
    61   122   123    1
    62   165   164    1
    63   131   132    1
    64   107   108    1
    65   107   110    1
    66   108   109    2
    67   164   166    1
    68   125   123   am
    69   146   147   ar
    70   146   148   ar
    71     1     2    1
    72   123   124    2
    73   147   149   ar
    74   110   111    1
    75    23    22    1
    76    23    24    1
    77    21    20    1
    78    21    15    1
    79    25    24    2
    80    22    17   am
    81    20    19    1
    82   148   150   ar
    83    19    16    1
    84   149   150   ar
    85     2     3    1
    86     2     5    1
    87    15     3   am
    88    15    16    1
    89     7     9   ar
    90     7     6   ar
    91    17    16    1
    92    17    18    2
    93   111   113   ar
    94   111   112   ar
    95     9    10   ar
    96     3     4    2
    97     5     6    1
    98    99    98    1
    99     6     8   ar
   100   113   115   ar
   101   112   114   ar
   102    10     8   ar
   103    10    12   ar
   104    96    98   ar
   105    96    94   ar
   106     8    11   ar
   107    98    97   ar
   108    12    14   ar
   109    39    37    1
   110   115   116   ar
   111   114   116   ar
   112    94    93   ar
   113    97    95   ar
   114    11    13   ar
   115    91    90    2
   116   116   117    1
   117    14    13   ar
   118    37    38    1
   119    37    34    1
   120    93    95   ar
   121    93    92    1
   122    90    89    1
   123    87    85   ar
   124    33    34    1
   125    83    82    2
   126    89    92    1
   127    89    88    1
   128    34    35    1
   129    85    86   ar
   130    85    84    1
   131    82    88   am
   132    82    81    1
   133    68    67    1
   134    84    81    1
   135    35    36    2
   136    51    50    1
   137    81    80    1
   138    69    67    1
   139    67    66    1
   140    66    63    1
   141    80    72   am
   142    50    52    1
   143    50    49    1
   144    49    46    1
   145    65    64    2
   146    63    64    1
   147    63    62    1
   148    64    70   am
   149    72    73    2
   150    72    71    1
   151    70    71    1
   152    62    55   am
   153    48    47    2
   154    46    47    1
   155    46    45    1
   156    71    74    1
   157    47    53   am
   158    56    55    2
   159    55    54    1
   160    45    42   am
   161    74    75    1
   162    53    54    1
   163    54    57    1
   164    75    77   ar
   165    75    76   ar
   166    42    43    2
   167    42    41    1
   168    77    79   ar
   169    44    41    1
   170    57    58    1
   171    40    41    1
   172    76    78   ar
   173    79    78   ar
   174    58    59    1
   175    61    59   ar
   176    59    60   ar
