@<TRIPOS>MOLECULE
tmp/5hjdF00.pdb
 183 187 0 0 0
SMALL
GASTEIGER

@<TRIPOS>ATOM
      1  N        -50.8120   20.2190   17.9300 N.3    27  PHE27      -0.1241
      2  CA       -50.3120   19.8370   16.6150 C.3    27  PHE27       0.1605
      3  C        -49.7550   21.0610   15.8960 C.2    27  PHE27       0.2264
      4  O        -50.5080   21.9460   15.4640 O.2    27  PHE27      -0.2867
      5  CB       -51.4180   19.1690   15.7930 C.3    27  PHE27       0.0534
      6  CG       -51.8810   17.8510   16.3600 C.ar   27  PHE27      -0.0203
      7  CD1      -51.0470   17.1060   17.1750 C.ar   27  PHE27      -0.0042
      8  CD2      -53.1450   17.3590   16.0770 C.ar   27  PHE27      -0.0042
      9  CE1      -51.4600   15.8950   17.7000 C.ar   27  PHE27      -0.0003
     10  CE2      -53.5650   16.1490   16.5960 C.ar   27  PHE27      -0.0003
     11  CZ       -52.7230   15.4140   17.4100 C.ar   27  PHE27      -0.0000
     12  N        -48.0340   21.7140   12.8600 N.3    29  HIS29      -0.1241
     13  CA       -48.5610   21.9730   11.5200 C.3    29  HIS29       0.1621
     14  C        -49.8220   21.1660   11.2340 C.2    29  HIS29       0.2264
     15  O        -50.1850   20.2580   11.9800 O.2    29  HIS29      -0.2867
     16  CB       -47.5460   21.6510   10.4130 C.3    29  HIS29       0.0745
     17  CG       -46.1170   21.6420   10.8540 C.ar   29  HIS29       0.0817
     18  ND1      -45.5760   20.6220   11.6060 N.ar   29  HIS29      -0.2268
     19  CD2      -45.1020   22.5020   10.6020 C.ar   29  HIS29       0.1154
     20  CE1      -44.2950   20.8660   11.8180 C.ar   29  HIS29       0.1986
     21  NE2      -43.9830   22.0020   11.2210 N.ar   29  HIS29      -0.2212
     22  N        -51.3580   19.1990    7.6440 N.3    31  TRP31      -0.1241
     23  CA       -51.0150   18.8650    6.2650 C.3    31  TRP31       0.1605
     24  C        -52.1170   18.1360    5.5070 C.2    31  TRP31       0.2264
     25  O        -53.1110   17.6940    6.0820 O.2    31  TRP31      -0.2867
     26  CB       -49.7320   18.0300    6.2210 C.3    31  TRP31       0.0550
     27  CG       -49.7360   16.8130    7.0930 C.ar   31  TRP31       0.0003
     28  CD1      -49.1050   16.6700    8.2940 C.ar   31  TRP31       0.0946
     29  CD2      -50.3860   15.5630    6.8310 C.ar   31  TRP31       0.0152
     30  NE1      -49.3250   15.4140    8.8000 N.ar   31  TRP31      -0.2442
     31  CE2      -50.1080   14.7130    7.9200 C.ar   31  TRP31       0.0810
     32  CE3      -51.1790   15.0800    5.7840 C.ar   31  TRP31       0.0012
     33  CZ2      -50.5930   13.4110    7.9940 C.ar   31  TRP31       0.0191
     34  CZ3      -51.6590   13.7850    5.8610 C.ar   31  TRP31       0.0001
     35  CH2      -51.3520   12.9630    6.9500 C.ar   31  TRP31       0.0015
     36  N        -51.4970    6.0650    7.1780 N.3    54  LEU54      -0.1231
     37  CA       -50.8820    7.0120    8.0890 C.3    54  LEU54       0.1693
     38  C        -50.0550    6.3180    9.1690 C.2    54  LEU54       0.2592
     39  O        -50.0930    5.0960    9.2960 O.2    54  LEU54      -0.2718
     40  CB       -51.9610    7.8720    8.7360 C.3    54  LEU54       0.0284
     41  CG       -52.8810    8.6900    7.8290 C.3    54  LEU54       0.0019
     42  CD1      -53.6910    9.6710    8.6610 C.3    54  LEU54       0.0001
     43  CD2      -52.0920    9.4180    6.7610 C.3    54  LEU54       0.0001
     44  N        -49.3200    7.1070    9.9490 N.am   55  HIS55      -0.1962
     45  CA       -48.5550    6.5880   11.0780 C.3    55  HIS55       0.1787
     46  C        -49.5230    5.9900   12.0920 C.2    55  HIS55       0.2620
     47  O        -50.7120    6.3050   12.0700 O.2    55  HIS55      -0.2715
     48  CB       -47.7130    7.6970   11.7120 C.3    55  HIS55       0.0785
     49  CG       -46.4740    7.2060   12.3920 C.ar   55  HIS55       0.0821
     50  ND1      -46.5000    6.5500   13.6040 N.ar   55  HIS55      -0.2267
     51  CD2      -45.1700    7.2790   12.0320 C.ar   55  HIS55       0.1154
     52  CE1      -45.2670    6.2380   13.9600 C.ar   55  HIS55       0.1986
     53  NE2      -44.4410    6.6700   13.0240 N.ar   55  HIS55      -0.2212
     54  N        -49.0220    5.1140   12.9590 N.am   56  GLU56      -0.1963
     55  CA       -49.8620    4.4550   13.9520 C.3    56  GLU56       0.1733
     56  C        -50.4310    5.4710   14.9260 C.2    56  GLU56       0.2617
     57  O        -51.5830    5.3610   15.3100 O.2    56  GLU56      -0.2715
     58  CB       -49.0810    3.3730   14.7040 C.3    56  GLU56       0.0429
     59  CG       -47.6450    3.7620   14.9940 C.3    56  GLU56       0.1163
     60  CD       -46.7660    2.5640   15.2710 C.2    56  GLU56       0.3649
     61  OE1      -47.2600    1.4330   15.1010 O.co2  56  GLU56      -0.2457
     62  OE2      -45.5890    2.7430   15.6550 O.co2  56  GLU56      -0.2457
     63  N        -49.6430    6.4690   15.3140 N.am   57  SER57      -0.1936
     64  CA       -50.1090    7.4660   16.2760 C.3    57  SER57       0.2055
     65  C        -51.1960    8.3570   15.6820 C.2    57  SER57       0.2643
     66  O        -50.9940    9.5540   15.5480 O.2    57  SER57      -0.2714
     67  CB       -48.9260    8.3160   16.7830 C.3    57  SER57       0.2130
     68  OG       -47.8530    8.3610   15.8460 O.3    57  SER57      -0.2179
     69  N        -52.3250    7.7610   15.2980 N.am   58  PHE58      -0.1973
     70  CA       -53.4720    8.4890   14.7310 C.3    58  PHE58       0.1639
     71  C        -54.6470    7.5350   14.8050 C.2    58  PHE58       0.2290
     72  O        -54.4450    6.3070   14.7670 O.2    58  PHE58      -0.2864
     73  CB       -53.2160    8.9470   13.2760 C.3    58  PHE58       0.0560
     74  CG       -53.5870   10.3770   12.9960 C.ar   58  PHE58      -0.0200
     75  CD1      -54.4820   11.0810   13.7520 C.ar   58  PHE58      -0.0042
     76  CD2      -53.0030   10.9810   11.9780 C.ar   58  PHE58      -0.0042
     77  CE1      -54.7600   12.3560   13.4330 C.ar   58  PHE58      -0.0003
     78  CE2      -53.2300   12.1690   11.6610 C.ar   58  PHE58      -0.0003
     79  CZ       -54.1170   12.9140   12.3690 C.ar   58  PHE58      -0.0000
     80  N        -50.7730   17.1410   12.4010 N.3    76  GLY76      -0.1210
     81  CA       -49.9640   16.3130   13.2810 C.3    76  GLY76       0.1956
     82  C        -48.7610   17.0720   13.8010 C.2    76  GLY76       0.2612
     83  O        -48.5090   18.2030   13.3870 O.2    76  GLY76      -0.2717
     84  N        -48.0160   16.4620   14.7140 N.am   77  TYR77      -0.1962
     85  CA       -46.7830   17.0840   15.1720 C.3    77  TYR77       0.1771
     86  C        -45.5860   16.6390   14.3390 C.2    77  TYR77       0.2619
     87  O        -44.4690   17.1060   14.5610 O.2    77  TYR77      -0.2715
     88  CB       -46.5360   16.7830   16.6560 C.3    77  TYR77       0.0574
     89  CG       -46.3400   15.3200   16.9990 C.ar   77  TYR77      -0.0198
     90  CD1      -47.4310   14.4830   17.2010 C.ar   77  TYR77      -0.0009
     91  CD2      -45.0660   14.7810   17.1430 C.ar   77  TYR77      -0.0009
     92  CE1      -47.2620   13.1510   17.5220 C.ar   77  TYR77       0.0417
     93  CE2      -44.8870   13.4480   17.4640 C.ar   77  TYR77       0.0417
     94  CZ       -45.9890   12.6380   17.6530 C.ar   77  TYR77       0.1957
     95  OH       -45.8230   11.3090   17.9710 O.3    77  TYR77      -0.2866
     96  N        -45.8080   15.7580   13.3670 N.am   78  ALA78      -0.1963
     97  CA       -44.6670   15.1390   12.6920 C.3    78  ALA78       0.1728
     98  C        -44.8960   14.5590   11.2930 C.2    78  ALA78       0.2617
     99  O        -46.0180   14.2330   10.8960 O.2    78  ALA78      -0.2715
    100  CB       -44.0960   14.0530   13.5850 C.3    78  ALA78       0.0334
    101  N        -43.7880   14.4240   10.5650 N.am   79  GLY79      -0.1940
    102  CA       -43.7710   13.8020    9.2540 C.3    79  GLY79       0.2014
    103  C        -43.4510   12.3270    9.3860 C.2    79  GLY79       0.2639
    104  O        -43.2810   11.8300   10.5040 O.2    79  GLY79      -0.2714
    105  N        -43.3490   11.6400    8.2490 N.am   80  PHE80      -0.1959
    106  CA       -43.3330   10.1830    8.2180 C.3    80  PHE80       0.1771
    107  C        -43.3170    9.6740    6.7680 C.2    80  PHE80       0.2619
    108  O        -43.4710   10.4530    5.8230 O.2    80  PHE80      -0.2715
    109  CB       -44.5420    9.6200    8.9950 C.3    80  PHE80       0.0574
    110  CG       -45.8780   10.1190    8.5160 C.ar   80  PHE80      -0.0200
    111  CD1      -46.5390    9.4460    7.5140 C.ar   80  PHE80      -0.0042
    112  CD2      -46.4910   11.2240    9.0880 C.ar   80  PHE80      -0.0042
    113  CE1      -47.7590    9.8620    7.0730 C.ar   80  PHE80      -0.0003
    114  CE2      -47.7310   11.6490    8.6310 C.ar   80  PHE80      -0.0003
    115  CZ       -48.3520   10.9640    7.6130 C.ar   80  PHE80      -0.0000
    116  N        -43.0790    8.3790    6.5910 N.am   81  ILE81      -0.1977
    117  CA       -43.2780    7.7570    5.2880 C.3    81  ILE81       0.1596
    118  C        -44.7240    7.2820    5.2100 C.2    81  ILE81       0.2287
    119  O        -45.1740    6.5260    6.0710 O.2    81  ILE81      -0.2864
    120  CB       -42.3280    6.5680    5.0400 C.3    81  ILE81       0.0276
    121  CG1      -40.8700    7.0340    5.0060 C.3    81  ILE81       0.0022
    122  CG2      -42.6850    5.8690    3.7320 C.3    81  ILE81       0.0022
    123  CD1      -40.5810    8.0960    3.9670 C.3    81  ILE81       0.0001
    124  N        -47.2700    5.2070    3.0600 N.3    83  PRO83      -0.2116
    125  CA       -47.6380    4.2590    2.0030 C.3    83  PRO83       0.1372
    126  C        -49.0260    4.5260    1.4240 C.2    83  PRO83       0.2244
    127  O        -50.0100    4.5520    2.1640 O.2    83  PRO83      -0.2868
    128  CB       -47.6090    2.9060    2.7200 C.3    83  PRO83       0.0268
    129  CG       -46.7050    3.1160    3.8830 C.3    83  PRO83       0.0207
    130  CD       -46.9580    4.5210    4.3250 C.3    83  PRO83       0.0892
    131  N        -43.0960   10.2430    0.9520 N.3   102  ASP102     -0.1225
    132  CA       -42.4910   10.9670    2.0590 C.3   102  ASP102      0.1805
    133  C        -43.2820   12.2430    2.3270 C.2   102  ASP102      0.2598
    134  O        -43.2200   13.1970    1.5470 O.2   102  ASP102     -0.2718
    135  CB       -41.0270   11.3000    1.7450 C.3   102  ASP102      0.1424
    136  CG       -40.3070   11.9830    2.9030 C.2   102  ASP102      0.3668
    137  OD1      -40.9550   12.3610    3.9020 O.co2 102  ASP102     -0.2456
    138  OD2      -39.0750   12.1540    2.8080 O.co2 102  ASP102     -0.2456
    139  N        -44.0240   12.2640    3.4290 N.am  103  LEU103     -0.1966
    140  CA       -44.7140   13.4800    3.8330 C.3   103  LEU103      0.1728
    141  C        -43.7030   14.4560    4.4220 C.2   103  LEU103      0.2616
    142  O        -43.1410   14.2240    5.4940 O.2   103  LEU103     -0.2715
    143  CB       -45.8300   13.1820    4.8330 C.3   103  LEU103      0.0311
    144  CG       -46.9770   14.1920    4.7750 C.3   103  LEU103      0.0022
    145  CD1      -48.3100   13.4800    4.8440 C.3   103  LEU103      0.0001
    146  CD2      -46.8630   15.2270    5.8850 C.3   103  LEU103      0.0001
    147  N        -43.4760   15.5450    3.6980 N.am  104  PHE104     -0.1960
    148  CA       -42.4550   16.5260    4.0390 C.3   104  PHE104      0.1771
    149  C        -42.9510   17.5690    5.0320 C.2   104  PHE104      0.2619
    150  O        -44.1180   17.9540    5.0070 O.2   104  PHE104     -0.2715
    151  CB       -41.9690   17.2300    2.7730 C.3   104  PHE104      0.0574
    152  CG       -40.4810   17.2950    2.6500 C.ar  104  PHE104     -0.0200
    153  CD1      -39.6780   16.3660    3.2860 C.ar  104  PHE104     -0.0042
    154  CD2      -39.8830   18.2920    1.9010 C.ar  104  PHE104     -0.0042
    155  CE1      -38.3050   16.4250    3.1710 C.ar  104  PHE104     -0.0003
    156  CE2      -38.5130   18.3600    1.7830 C.ar  104  PHE104     -0.0003
    157  CZ       -37.7200   17.4250    2.4190 C.ar  104  PHE104     -0.0000
    158  N        -42.0490   18.0350    5.8910 N.am  105  LEU105     -0.1963
    159  CA       -42.3600   19.1080    6.8300 C.3   105  LEU105      0.1728
    160  C        -41.2380   20.1390    6.9150 C.2   105  LEU105      0.2616
    161  O        -40.0760   19.7910    7.1160 O.2   105  LEU105     -0.2715
    162  CB       -42.6370   18.5470    8.2260 C.3   105  LEU105      0.0311
    163  CG       -44.0120   17.9330    8.4870 C.3   105  LEU105      0.0022
    164  CD1      -44.2090   17.6880    9.9780 C.3   105  LEU105      0.0001
    165  CD2      -45.1150   18.8200    7.9350 C.3   105  LEU105      0.0001
    166  N        -41.5990   21.4090    6.7690 N.am  106  HIS106     -0.1959
    167  CA       -40.6520   22.5100    6.9200 C.3   106  HIS106      0.1787
    168  C        -40.7720   23.1140    8.3180 C.2   106  HIS106      0.2620
    169  O        -41.7780   22.9230    8.9990 O.2   106  HIS106     -0.2715
    170  CB       -40.8940   23.5840    5.8570 C.3   106  HIS106      0.0785
    171  CG       -40.4010   23.2130    4.4940 C.ar  106  HIS106      0.0821
    172  ND1      -41.1690   23.3640    3.3580 N.ar  106  HIS106     -0.2267
    173  CD2      -39.2110   22.7170    4.0800 C.ar  106  HIS106      0.1154
    174  CE1      -40.4760   22.9650    2.3060 C.ar  106  HIS106      0.1986
    175  NE2      -39.2860   22.5700    2.7170 N.ar  106  HIS106     -0.2212
    176  N        -39.7470   23.8450    8.7440 N.am  107  LEU107     -0.1977
    177  CA       -39.7510   24.4560   10.0720 C.3   107  LEU107      0.1596
    178  C        -40.6340   25.7030   10.1120 C.2   107  LEU107      0.2287
    179  O        -41.2990   26.0330    9.1310 O.2   107  LEU107     -0.2864
    180  CB       -38.3240   24.7970   10.5110 C.3   107  LEU107      0.0297
    181  CG       -37.6950   23.9120   11.5970 C.3   107  LEU107      0.0022
    182  CD1      -38.5890   22.7300   11.9540 C.3   107  LEU107      0.0001
    183  CD2      -36.3150   23.4300   11.1730 C.3   107  LEU107      0.0001
@<TRIPOS>BOND
     1   131   132    1
     2   126   125    1
     3   126   127    2
     4   134   133    2
     5   135   132    1
     6   135   136    1
     7   156   154   ar
     8   156   157   ar
     9   154   152   ar
    10   125   128    1
    11   125   124    1
    12   132   133    1
    13   174   175   ar
    14   174   172   ar
    15   133   139   am
    16   157   155   ar
    17   152   151    1
    18   152   153   ar
    19   175   173   ar
    20   128   129    1
    21   151   148    1
    22   138   136   ar
    23   136   137   ar
    24   124   130    1
    25   155   153   ar
    26   172   171   ar
    27   139   140    1
    28   147   148    1
    29   147   141   am
    30   122   120    1
    31   140   141    1
    32   140   143    1
    33   129   130    1
    34   123   121    1
    35   148   149    1
    36   173   171   ar
    37   141   142    2
    38   171   170    1
    39   144   143    1
    40   144   145    1
    41   144   146    1
    42   121   120    1
    43   150   149    2
    44   149   158   am
    45   120   117    1
    46   118   117    1
    47   118   119    2
    48   117   116    1
    49    24    25    2
    50    24    23    1
    51    32    34   ar
    52    32    29   ar
    53   108   107    2
    54   170   167    1
    55    34    35   ar
    56   158   159    1
    57    26    23    1
    58    26    27    1
    59    23    22    1
    60   116   107   am
    61    43    41    1
    62   107   106    1
    63   166   160   am
    64   166   167    1
    65   159   160    1
    66   159   162    1
    67    29    27   ar
    68    29    31   ar
    69   160   161    2
    70   167   168    1
    71    35    33   ar
    72   113   111   ar
    73   113   115   ar
    74    27    28   ar
    75    36    37    1
    76   111   110   ar
    77   115   114   ar
    78    41    42    1
    79    41    40    1
    80    31    33   ar
    81    31    30   ar
    82   165   163    1
    83    37    40    1
    84    37    38    1
    85   106   105    1
    86   106   109    1
    87   162   163    1
    88   105   103   am
    89    28    30   ar
    90   168   176   am
    91   168   169    2
    92   163   164    1
    93   110   109    1
    94   110   112   ar
    95   114   112   ar
    96   176   177    1
    97   179   178    2
    98    38    39    2
    99    38    44   am
   100   102   103    1
   101   102   101    1
   102   103   104    2
   103    44    45    1
   104   177   178    1
   105   177   180    1
   106    16    17    1
   107    16    13    1
   108   180   181    1
   109   101    98   am
   110    19    17   ar
   111    19    21   ar
   112    17    18   ar
   113    99    98    2
   114    45    48    1
   115    45    46    1
   116   183   181    1
   117    21    20   ar
   118    14    13    1
   119    14    15    2
   120    98    97    1
   121    13    12    1
   122   181   182    1
   123    18    20   ar
   124    78    76   ar
   125    78    79   ar
   126    48    49    1
   127    76    74   ar
   128    51    49   ar
   129    51    53   ar
   130    47    46    2
   131    46    54   am
   132    79    77   ar
   133    49    50   ar
   134    80    81    1
   135    97    96    1
   136    97   100    1
   137    54    55    1
   138    74    73    1
   139    74    75   ar
   140    53    52   ar
   141    73    70    1
   142    81    82    1
   143    96    86   am
   144    83    82    2
   145    77    75   ar
   146    50    52   ar
   147    82    84   am
   148    55    58    1
   149    55    56    1
   150    86    87    2
   151    86    85    1
   152    58    59    1
   153    84    85    1
   154    70    71    1
   155    70    69    1
   156    72    71    2
   157    56    57    2
   158    56    63   am
   159    59    60    1
   160    61    60   ar
   161    85    88    1
   162    60    62   ar
   163    69    65   am
   164    63    64    1
   165     4     3    2
   166    66    65    2
   167    65    64    1
   168     5     6    1
   169     5     2    1
   170    68    67    1
   171     3     2    1
   172     8     6   ar
   173     8    10   ar
   174    64    67    1
   175     6     7   ar
   176    10    11   ar
   177     2     1    1
   178    88    89    1
   179    89    91   ar
   180    89    90   ar
   181    91    93   ar
   182     7     9   ar
   183    90    92   ar
   184    11     9   ar
   185    93    94   ar
   186    92    94   ar
   187    94    95    1
