@<TRIPOS>MOLECULE
tmp/5hjdD00.pdb
 168 171 0 0 0
SMALL
GASTEIGER

@<TRIPOS>ATOM
      1  N         -4.5780   44.8060   44.6440 N.3    28  PHE28      -0.1241
      2  CA        -5.1040   43.4560   44.3870 C.3    28  PHE28       0.1605
      3  C         -5.9110   42.8560   45.5320 C.2    28  PHE28       0.2264
      4  O         -5.6350   43.1210   46.7000 O.2    28  PHE28      -0.2867
      5  CB        -3.9390   42.5330   44.0400 C.3    28  PHE28       0.0534
      6  CG        -3.0100   43.1260   43.0310 C.ar   28  PHE28      -0.0203
      7  CD1       -3.5280   43.7850   41.9360 C.ar   28  PHE28      -0.0042
      8  CD2       -1.6360   43.0980   43.2090 C.ar   28  PHE28      -0.0042
      9  CE1       -2.7020   44.3750   41.0080 C.ar   28  PHE28      -0.0003
     10  CE2       -0.8050   43.6860   42.2900 C.ar   28  PHE28      -0.0003
     11  CZ        -1.3390   44.3250   41.1820 C.ar   28  PHE28      -0.0000
     12  N         -7.0840   39.2780   45.6630 N.3    30  HIS30      -0.1241
     13  CA        -6.8480   37.8690   45.9630 C.3    30  HIS30       0.1621
     14  C         -5.3780   37.4950   46.0960 C.2    30  HIS30       0.2264
     15  O         -4.4920   38.1940   45.6020 O.2    30  HIS30      -0.2867
     16  CB        -7.4750   36.9850   44.8830 C.3    30  HIS30       0.0745
     17  CG        -8.9710   37.0200   44.8570 C.ar   30  HIS30       0.0817
     18  ND1       -9.6840   38.0940   44.3690 N.ar   30  HIS30      -0.2268
     19  CD2       -9.8910   36.1030   45.2430 C.ar   30  HIS30       0.1154
     20  CE1      -10.9770   37.8410   44.4610 C.ar   30  HIS30       0.1986
     21  NE2      -11.1300   36.6390   44.9880 N.ar   30  HIS30      -0.2212
     22  N         -0.9740   36.1020   32.7330 N.3    56  HIS56      -0.1226
     23  CA        -1.5860   37.1470   31.9210 C.3    56  HIS56       0.1752
     24  C         -0.5730   38.2540   31.6450 C.2    56  HIS56       0.2596
     25  O          0.4200   38.3870   32.3620 O.2    56  HIS56      -0.2718
     26  CB        -2.8230   37.7160   32.6210 C.3    56  HIS56       0.0759
     27  CG        -3.7130   38.5220   31.7250 C.ar   56  HIS56       0.0818
     28  ND1       -3.5700   39.8800   31.5550 N.ar   56  HIS56      -0.2268
     29  CD2       -4.7670   38.1550   30.9560 C.ar   56  HIS56       0.1154
     30  CE1       -4.4950   40.3190   30.7190 C.ar   56  HIS56       0.1986
     31  NE2       -5.2320   39.2920   30.3400 N.ar   56  HIS56      -0.2212
     32  N         -0.8250   39.0400   30.6040 N.am   57  GLU57      -0.1965
     33  CA         0.0770   40.1190   30.2170 C.3    57  GLU57       0.1733
     34  C          0.1440   41.2200   31.2750 C.2    57  GLU57       0.2617
     35  O          1.0770   42.0240   31.2910 O.2    57  GLU57      -0.2715
     36  CB        -0.3550   40.7090   28.8730 C.3    57  GLU57       0.0429
     37  CG        -1.8210   41.1130   28.8150 C.3    57  GLU57       0.1163
     38  CD        -2.2760   41.4410   27.4070 C.2    57  GLU57       0.3649
     39  OE1       -1.4060   41.6180   26.5290 O.co2  57  GLU57      -0.2457
     40  OE2       -3.5020   41.5140   27.1760 O.co2  57  GLU57      -0.2457
     41  N         -0.8490   41.2430   32.1570 N.am   58  SER58      -0.1936
     42  CA        -0.9390   42.2540   33.2000 C.3    58  SER58       0.2055
     43  C          0.1890   42.1080   34.2190 C.2    58  SER58       0.2643
     44  O          0.5820   43.0810   34.8660 O.2    58  SER58      -0.2714
     45  CB        -2.2980   42.1680   33.8990 C.3    58  SER58       0.2130
     46  OG        -3.2190   41.4290   33.1170 O.3    58  SER58      -0.2179
     47  N          0.7040   40.8880   34.3520 N.am   59  PHE59      -0.1960
     48  CA         1.7860   40.5930   35.2880 C.3    59  PHE59       0.1756
     49  C          3.1670   40.9620   34.7500 C.2    59  PHE59       0.2461
     50  O          3.4460   40.7890   33.5640 O.2    59  PHE59      -0.2730
     51  CB         1.7760   39.1060   35.6590 C.3    59  PHE59       0.0574
     52  CG         0.6510   38.7110   36.5710 C.ar   59  PHE59      -0.0200
     53  CD1        0.8080   38.7660   37.9420 C.ar   59  PHE59      -0.0042
     54  CD2       -0.5560   38.2760   36.0560 C.ar   59  PHE59      -0.0042
     55  CE1       -0.2190   38.4010   38.7850 C.ar   59  PHE59      -0.0003
     56  CE2       -1.5870   37.9090   36.8900 C.ar   59  PHE59      -0.0003
     57  CZ        -1.4220   37.9720   38.2580 C.ar   59  PHE59      -0.0000
     58  N          4.0380   41.4710   35.6350 N.am   60  PRO60      -0.2727
     59  CA         5.4500   41.6520   35.2880 C.3    60  PRO60       0.1402
     60  C          6.1370   40.3040   35.1360 C.2    60  PRO60       0.2269
     61  O          5.9350   39.4360   35.9820 O.2    60  PRO60      -0.2865
     62  CB         6.0090   42.4260   36.4850 C.3    60  PRO60       0.0296
     63  CG         5.1010   42.0690   37.6110 C.3    60  PRO60       0.0237
     64  CD         3.7410   41.9620   36.9920 C.3    60  PRO60       0.0939
     65  N          1.3620   34.5440   43.6750 N.3    75  GLU75      -0.1231
     66  CA         1.1550   35.9360   43.2900 C.3    75  GLU75       0.1699
     67  C          0.0910   36.6330   44.1260 C.2    75  GLU75       0.2593
     68  O         -0.2690   36.1890   45.2180 O.2    75  GLU75      -0.2718
     69  CB         0.7670   36.0170   41.8120 C.3    75  GLU75       0.0402
     70  CG         1.9520   36.0650   40.8570 C.3    75  GLU75       0.1161
     71  CD         2.7850   37.3250   41.0290 C.2    75  GLU75       0.3649
     72  OE1        2.2200   38.3630   41.4360 O.co2  75  GLU75      -0.2457
     73  OE2        4.0040   37.2790   40.7580 O.co2  75  GLU75      -0.2457
     74  N         -0.4110   37.7340   43.5800 N.am   76  SER76      -0.1938
     75  CA        -1.5800   38.4270   44.1000 C.3    76  SER76       0.2055
     76  C         -2.2740   39.1030   42.9190 C.2    76  SER76       0.2644
     77  O         -1.6110   39.6590   42.0510 O.2    76  SER76      -0.2714
     78  CB        -1.1840   39.4460   45.1700 C.3    76  SER76       0.2130
     79  OG        -0.4730   38.8210   46.2260 O.3    76  SER76      -0.2179
     80  N         -3.5990   39.0360   42.8650 N.am   77  GLY77      -0.1939
     81  CA        -4.3230   39.5990   41.7380 C.3    77  GLY77       0.2014
     82  C         -5.7340   40.0700   42.0270 C.2    77  GLY77       0.2639
     83  O         -6.1690   40.0980   43.1740 O.2    77  GLY77      -0.2714
     84  N         -6.4490   40.4430   40.9700 N.am   78  TYR78      -0.1959
     85  CA        -7.8210   40.9250   41.0970 C.3    78  TYR78       0.1771
     86  C         -8.8020   40.1240   40.2460 C.2    78  TYR78       0.2619
     87  O        -10.0110   40.2230   40.4320 O.2    78  TYR78      -0.2715
     88  CB        -7.9030   42.4110   40.7220 C.3    78  TYR78       0.0574
     89  CG        -7.4400   42.7370   39.3180 C.ar   78  TYR78      -0.0198
     90  CD1       -8.3200   42.6920   38.2420 C.ar   78  TYR78      -0.0009
     91  CD2       -6.1220   43.0940   39.0690 C.ar   78  TYR78      -0.0009
     92  CE1       -7.8940   42.9870   36.9550 C.ar   78  TYR78       0.0417
     93  CE2       -5.6890   43.3930   37.7900 C.ar   78  TYR78       0.0417
     94  CZ        -6.5770   43.3380   36.7370 C.ar   78  TYR78       0.1957
     95  OH        -6.1460   43.6340   35.4640 O.3    78  TYR78      -0.2866
     96  N         -8.2860   39.3320   39.3130 N.am   79  ALA79      -0.1963
     97  CA        -9.1490   38.5870   38.4010 C.3    79  ALA79       0.1728
     98  C         -8.5680   37.2290   38.0020 C.2    79  ALA79       0.2617
     99  O         -7.3710   36.9850   38.1420 O.2    79  ALA79      -0.2715
    100  CB        -9.4320   39.4190   37.1550 C.3    79  ALA79       0.0334
    101  N         -9.4330   36.3460   37.5100 N.am   80  GLY80      -0.1940
    102  CA        -9.0170   35.0390   37.0320 C.3    80  GLY80       0.2014
    103  C         -8.7900   35.0510   35.5330 C.2    80  GLY80       0.2639
    104  O         -9.1770   36.0040   34.8570 O.2    80  GLY80      -0.2714
    105  N         -8.1730   33.9940   35.0100 N.am   81  PHE81      -0.1959
    106  CA        -7.8100   33.9390   33.5940 C.3    81  PHE81       0.1771
    107  C         -7.3810   32.5380   33.1620 C.2    81  PHE81       0.2619
    108  O         -7.2030   31.6480   33.9950 O.2    81  PHE81      -0.2715
    109  CB        -6.6880   34.9420   33.2960 C.3    81  PHE81       0.0574
    110  CG        -5.4720   34.7720   34.1670 C.ar   81  PHE81      -0.0200
    111  CD1       -5.4110   35.3550   35.4230 C.ar   81  PHE81      -0.0042
    112  CD2       -4.3860   34.0360   33.7240 C.ar   81  PHE81      -0.0042
    113  CE1       -4.2970   35.2000   36.2240 C.ar   81  PHE81      -0.0003
    114  CE2       -3.2660   33.8800   34.5200 C.ar   81  PHE81      -0.0003
    115  CZ        -3.2230   34.4610   35.7720 C.ar   81  PHE81      -0.0000
    116  N         -7.2240   32.3440   31.8560 N.am   82  ILE82      -0.1977
    117  CA        -6.6910   31.0890   31.3370 C.3    82  ILE82       0.1596
    118  C         -5.1660   31.1410   31.3770 C.2    82  ILE82       0.2287
    119  O         -4.5490   32.0370   30.8000 O.2    82  ILE82      -0.2864
    120  CB        -7.1820   30.8040   29.9010 C.3    82  ILE82       0.0276
    121  CG1       -8.6980   30.5970   29.8930 C.3    82  ILE82       0.0022
    122  CG2       -6.4810   29.5820   29.3240 C.3    82  ILE82       0.0022
    123  CD1       -9.1660   29.4430   30.7680 C.3    82  ILE82       0.0001
    124  N         -7.4770   26.7820   33.8460 N.3   103  ASP103     -0.1239
    125  CA        -8.4130   27.8080   34.2760 C.3   103  ASP103      0.1674
    126  C         -8.1110   28.2310   35.7110 C.2   103  ASP103      0.2266
    127  O         -8.5520   27.5830   36.6640 O.2   103  ASP103     -0.2867
    128  CB        -9.8520   27.2940   34.1590 C.3   103  ASP103      0.1410
    129  CG       -10.8880   28.3690   34.4410 C.2   103  ASP103      0.3668
    130  OD1      -10.5130   29.5040   34.8020 O.co2 103  ASP103     -0.2456
    131  OD2      -12.0940   28.0730   34.3090 O.co2 103  ASP103     -0.2456
    132  N         -9.3180   30.2300   38.1070 N.3   105  PHE105     -0.1227
    133  CA       -10.5290   30.9760   38.4220 C.3   105  PHE105      0.1736
    134  C        -10.5650   31.3670   39.8920 C.2   105  PHE105      0.2595
    135  O        -10.0260   30.6600   40.7430 O.2   105  PHE105     -0.2718
    136  CB       -11.7720   30.1550   38.0610 C.3   105  PHE105      0.0547
    137  CG       -11.8890   28.8500   38.8110 C.ar  105  PHE105     -0.0202
    138  CD1      -11.1170   27.7550   38.4530 C.ar  105  PHE105     -0.0042
    139  CD2      -12.7880   28.7140   39.8570 C.ar  105  PHE105     -0.0042
    140  CE1      -11.2250   26.5580   39.1330 C.ar  105  PHE105     -0.0003
    141  CE2      -12.9040   27.5120   40.5420 C.ar  105  PHE105     -0.0003
    142  CZ       -12.1200   26.4340   40.1770 C.ar  105  PHE105     -0.0000
    143  N        -11.2000   32.4970   40.1860 N.am  106  LEU106     -0.1966
    144  CA       -11.3050   32.9840   41.5580 C.3   106  LEU106      0.1728
    145  C        -12.7550   32.9920   42.0390 C.2   106  LEU106      0.2616
    146  O        -13.6810   33.0960   41.2350 O.2   106  LEU106     -0.2715
    147  CB       -10.7120   34.3940   41.6710 C.3   106  LEU106      0.0311
    148  CG        -9.3080   34.6320   41.1110 C.3   106  LEU106      0.0022
    149  CD1       -8.8850   36.0890   41.3060 C.3   106  LEU106      0.0001
    150  CD2       -8.3040   33.6930   41.7480 C.3   106  LEU106      0.0001
    151  N        -12.9490   32.8660   43.3480 N.am  107  HIS107     -0.1959
    152  CA       -14.2860   32.9400   43.9270 C.3   107  HIS107      0.1787
    153  C        -14.5070   34.3050   44.5670 C.2   107  HIS107      0.2620
    154  O        -13.5540   35.0420   44.8170 O.2   107  HIS107     -0.2715
    155  CB       -14.5020   31.8260   44.9530 C.3   107  HIS107      0.0785
    156  CG       -14.8350   30.5000   44.3440 C.ar  107  HIS107      0.0821
    157  ND1      -14.6590   29.3080   45.0130 N.ar  107  HIS107     -0.2267
    158  CD2      -15.3420   30.1780   43.1300 C.ar  107  HIS107      0.1154
    159  CE1      -15.0360   28.3090   44.2360 C.ar  107  HIS107      0.1986
    160  NE2      -15.4560   28.8100   43.0880 N.ar  107  HIS107     -0.2212
    161  N        -15.7660   34.6350   44.8330 N.am  108  LEU108     -0.1977
    162  CA       -16.1260   35.9370   45.3830 C.3   108  LEU108      0.1596
    163  C        -15.8260   36.0220   46.8780 C.2   108  LEU108      0.2287
    164  O        -15.4910   35.0230   47.5100 O.2   108  LEU108     -0.2864
    165  CB       -17.6030   36.2320   45.1170 C.3   108  LEU108      0.0297
    166  CG       -17.9530   36.4220   43.6380 C.3   108  LEU108      0.0022
    167  CD1      -19.4520   36.3060   43.4140 C.3   108  LEU108      0.0001
    168  CD2      -17.4350   37.7620   43.1380 C.3   108  LEU108      0.0001
@<TRIPOS>BOND
     1    39    38   ar
     2    40    38   ar
     3    38    37    1
     4    37    36    1
     5    36    33    1
     6   122   120    1
     7   121   120    1
     8   121   123    1
     9   120   117    1
    10    33    32    1
    11    33    34    1
    12    31    30   ar
    13    31    29   ar
    14    32    24   am
    15    30    28   ar
    16   119   118    2
    17    29    27   ar
    18    34    35    2
    19    34    41   am
    20   117   118    1
    21   117   116    1
    22    28    27   ar
    23    24    23    1
    24    24    25    2
    25    27    26    1
    26   116   107   am
    27    23    26    1
    28    23    22    1
    29    41    42    1
    30    46    45    1
    31   107   106    1
    32   107   108    2
    33    42    45    1
    34    42    43    1
    35   109   106    1
    36   109   110    1
    37    50    49    2
    38   106   105    1
    39   112   110   ar
    40   112   114   ar
    41   124   125    1
    42   128   125    1
    43   128   129    1
    44   110   111   ar
    45    43    47   am
    46    43    44    2
    47   125   126    1
    48   131   129   ar
    49    47    48    1
    50   129   130   ar
    51   114   115   ar
    52    49    48    1
    53    49    58   am
    54   104   103    2
    55   105   103   am
    56    60    59    1
    57    60    61    2
    58    59    58    1
    59    59    62    1
    60    48    51    1
    61   111   113   ar
    62    95    94    1
    63   103   102    1
    64    58    64    1
    65    51    52    1
    66   126   127    2
    67   115   113   ar
    68    54    52   ar
    69    54    56   ar
    70    62    63    1
    71    52    53   ar
    72    94    92   ar
    73    94    93   ar
    74    56    57   ar
    75    92    90   ar
    76    64    63    1
    77   102   101    1
    78   100    97    1
    79   101    98   am
    80    93    91   ar
    81    53    55   ar
    82    98    99    2
    83    98    97    1
    84   136   133    1
    85   136   137    1
    86   132   133    1
    87    90    89   ar
    88    57    55   ar
    89    97    96    1
    90   133   134    1
    91   138   137   ar
    92   138   140   ar
    93   137   139   ar
    94    91    89   ar
    95   140   142   ar
    96    96    86   am
    97    89    88    1
    98   139   141   ar
    99   134   143   am
   100   134   135    2
   101   142   141   ar
   102   143   144    1
   103    86    87    2
   104    86    85    1
   105    88    85    1
   106    73    71   ar
   107    70    71    1
   108    70    69    1
   109    84    85    1
   110    84    82   am
   111     9    11   ar
   112     9     7   ar
   113    71    72   ar
   114   148   149    1
   115   148   147    1
   116   148   150    1
   117    11    10   ar
   118   146   145    2
   119   144   147    1
   120   144   145    1
   121    81    82    1
   122    81    80    1
   123    69    66    1
   124     7     6   ar
   125    82    83    2
   126   145   151   am
   127    77    76    2
   128    10     8   ar
   129    80    76   am
   130    76    75    1
   131     6     8   ar
   132     6     5    1
   133   160   158   ar
   134   160   159   ar
   135   158   156   ar
   136   168   166    1
   137    66    65    1
   138    66    67    1
   139   151   152    1
   140   167   166    1
   141    74    75    1
   142    74    67   am
   143   166   165    1
   144   152   153    1
   145   152   155    1
   146     5     2    1
   147    75    78    1
   148    67    68    2
   149   159   157   ar
   150   156   155    1
   151   156   157   ar
   152    18    20   ar
   153    18    17   ar
   154     2     1    1
   155     2     3    1
   156    20    21   ar
   157   153   154    2
   158   153   161   am
   159   161   162    1
   160    17    16    1
   161    17    19   ar
   162    16    13    1
   163    21    19   ar
   164   165   162    1
   165    78    79    1
   166   162   163    1
   167     3     4    2
   168    15    14    2
   169    12    13    1
   170    13    14    1
   171   163   164    2
