@<TRIPOS>MOLECULE
tmp/5hjdG00.pdb
 158 161 0 0 0
SMALL
GASTEIGER

@<TRIPOS>ATOM
      1  N        -46.2170   44.9320   -9.1560 N.3    28  PHE28      -0.1241
      2  CA       -46.1630   43.5230   -9.5060 C.3    28  PHE28       0.1605
      3  C        -47.1860   42.7540   -8.6850 C.2    28  PHE28       0.2264
      4  O        -47.1380   42.7630   -7.4560 O.2    28  PHE28      -0.2867
      5  CB       -44.7590   42.9680   -9.2740 C.3    28  PHE28       0.0534
      6  CG       -43.7050   43.6210  -10.1190 C.ar   28  PHE28      -0.0203
      7  CD1      -44.0140   44.1040  -11.3800 C.ar   28  PHE28      -0.0042
      8  CD2      -42.4080   43.7570   -9.6540 C.ar   28  PHE28      -0.0042
      9  CE1      -43.0510   44.7060  -12.1620 C.ar   28  PHE28      -0.0003
     10  CE2      -41.4380   44.3590  -10.4330 C.ar   28  PHE28      -0.0003
     11  CZ       -41.7620   44.8340  -11.6900 C.ar   28  PHE28      -0.0000
     12  N        -47.9370   39.3520   -8.7880 N.3    30  HIS30      -0.1241
     13  CA       -47.5750   38.0020   -8.3730 C.3    30  HIS30       0.1621
     14  C        -46.1240   37.8410   -7.9370 C.2    30  HIS30       0.2264
     15  O        -45.2540   38.6360   -8.2920 O.2    30  HIS30      -0.2867
     16  CB       -47.8440   37.0090   -9.5080 C.3    30  HIS30       0.0745
     17  CG       -49.2880   36.8750   -9.8790 C.ar   30  HIS30       0.0817
     18  ND1      -49.9760   37.8520  -10.5650 N.ar   30  HIS30      -0.2268
     19  CD2      -50.1700   35.8680   -9.6740 C.ar   30  HIS30       0.1154
     20  CE1      -51.2210   37.4560  -10.7610 C.ar   30  HIS30       0.1986
     21  NE2      -51.3650   36.2550  -10.2310 N.ar   30  HIS30      -0.2212
     22  N        -38.8860   36.9310  -20.2620 N.3    56  HIS56      -0.1241
     23  CA       -39.3620   37.9540  -21.1840 C.3    56  HIS56       0.1621
     24  C        -38.3780   39.1140  -21.1930 C.2    56  HIS56       0.2264
     25  O        -37.6450   39.3140  -20.2280 O.2    56  HIS56      -0.2867
     26  CB       -40.7580   38.4300  -20.7740 C.3    56  HIS56       0.0745
     27  CG       -41.5700   38.9950  -21.9000 C.ar   56  HIS56       0.0817
     28  ND1      -42.0280   40.2950  -21.9060 N.ar   56  HIS56      -0.2268
     29  CD2      -42.0280   38.4300  -23.0420 C.ar   56  HIS56       0.1154
     30  CE1      -42.7240   40.5100  -23.0080 C.ar   56  HIS56       0.1986
     31  NE2      -42.7390   39.3950  -23.7150 N.ar   56  HIS56      -0.2212
     32  N        -38.9670   41.9640  -20.7180 N.3    58  SER58      -0.1202
     33  CA       -39.4410   42.9030  -19.7080 C.3    58  SER58       0.2020
     34  C        -38.5470   42.9140  -18.4730 C.2    58  SER58       0.2619
     35  O        -38.2520   43.9740  -17.9210 O.2    58  SER58      -0.2717
     36  CB       -40.8750   42.5600  -19.3070 C.3    58  SER58       0.2103
     37  OG       -41.5500   41.9020  -20.3640 O.3    58  SER58      -0.2182
     38  N        -38.1350   41.7280  -18.0380 N.am   59  PHE59      -0.1962
     39  CA       -37.2040   41.5890  -16.9230 C.3    59  PHE59       0.1756
     40  C        -35.8150   42.0710  -17.3100 C.2    59  PHE59       0.2461
     41  O        -35.3950   41.8960  -18.4540 O.2    59  PHE59      -0.2730
     42  CB       -37.1180   40.1320  -16.4650 C.3    59  PHE59       0.0574
     43  CG       -38.4080   39.5780  -15.9460 C.ar   59  PHE59      -0.0200
     44  CD1      -39.3450   39.0440  -16.8110 C.ar   59  PHE59      -0.0042
     45  CD2      -38.6760   39.5770  -14.5880 C.ar   59  PHE59      -0.0042
     46  CE1      -40.5320   38.5280  -16.3340 C.ar   59  PHE59      -0.0003
     47  CE2      -39.8580   39.0630  -14.1030 C.ar   59  PHE59      -0.0003
     48  CZ       -40.7890   38.5380  -14.9760 C.ar   59  PHE59      -0.0000
     49  N        -35.0880   42.6680  -16.3510 N.am   60  PRO60      -0.2727
     50  CA       -33.6900   42.9960  -16.6260 C.3    60  PRO60       0.1402
     51  C        -32.8680   41.7250  -16.7170 C.2    60  PRO60       0.2269
     52  O        -33.2620   40.7240  -16.1200 O.2    60  PRO60      -0.2865
     53  CB       -33.2800   43.8260  -15.4120 C.3    60  PRO60       0.0296
     54  CG       -34.1360   43.2960  -14.3180 C.3    60  PRO60       0.0237
     55  CD       -35.4660   43.0130  -14.9680 C.3    60  PRO60       0.0939
     56  N        -40.8590   38.4480   -9.3820 N.3    76  SER76      -0.1202
     57  CA       -42.1890   39.0120   -9.2290 C.3    76  SER76       0.2020
     58  C        -42.6080   39.6320  -10.5570 C.2    76  SER76       0.2619
     59  O        -41.7930   40.2450  -11.2410 O.2    76  SER76      -0.2717
     60  CB       -42.2090   40.0560   -8.1110 C.3    76  SER76       0.2103
     61  OG       -41.3960   39.6480   -7.0230 O.3    76  SER76      -0.2182
     62  N        -43.8720   39.4670  -10.9280 N.am   77  GLY77      -0.1942
     63  CA       -44.3590   39.9780  -12.1980 C.3    77  GLY77       0.2014
     64  C        -45.8500   40.2460  -12.2020 C.2    77  GLY77       0.2639
     65  O        -46.5210   40.0660  -11.1880 O.2    77  GLY77      -0.2714
     66  N        -46.3680   40.6760  -13.3490 N.am   78  TYR78      -0.1959
     67  CA       -47.7850   41.0010  -13.4720 C.3    78  TYR78       0.1771
     68  C        -48.5160   40.0510  -14.4130 C.2    78  TYR78       0.2619
     69  O        -49.7370   39.9320  -14.3580 O.2    78  TYR78      -0.2715
     70  CB       -47.9640   42.4480  -13.9480 C.3    78  TYR78       0.0574
     71  CG       -47.2520   42.7790  -15.2420 C.ar   78  TYR78      -0.0198
     72  CD1      -45.9460   43.2520  -15.2370 C.ar   78  TYR78      -0.0009
     73  CD2      -47.8900   42.6270  -16.4680 C.ar   78  TYR78      -0.0009
     74  CE1      -45.2930   43.5580  -16.4150 C.ar   78  TYR78       0.0417
     75  CE2      -47.2450   42.9300  -17.6540 C.ar   78  TYR78       0.0417
     76  CZ       -45.9460   43.3950  -17.6190 C.ar   78  TYR78       0.1957
     77  OH       -45.2940   43.7000  -18.7900 O.3    78  TYR78      -0.2866
     78  N        -47.7700   39.3710  -15.2750 N.am   79  ALA79      -0.1963
     79  CA       -48.3820   38.4710  -16.2450 C.3    79  ALA79       0.1728
     80  C        -47.5240   37.2380  -16.5130 C.2    79  ALA79       0.2617
     81  O        -46.3530   37.1860  -16.1400 O.2    79  ALA79      -0.2715
     82  CB       -48.6590   39.2120  -17.5460 C.3    79  ALA79       0.0334
     83  N        -48.1250   36.2420  -17.1590 N.am   80  GLY80      -0.1940
     84  CA       -47.4340   35.0100  -17.4920 C.3    80  GLY80       0.2014
     85  C        -46.8810   35.0380  -18.9030 C.2    80  GLY80       0.2639
     86  O        -47.2850   35.8700  -19.7150 O.2    80  GLY80      -0.2714
     87  N        -45.9620   34.1250  -19.2010 N.am   81  PHE81      -0.1959
     88  CA       -45.2980   34.1130  -20.4990 C.3    81  PHE81       0.1771
     89  C        -44.6830   32.7540  -20.8110 C.2    81  PHE81       0.2619
     90  O        -44.5890   31.8880  -19.9410 O.2    81  PHE81      -0.2715
     91  CB       -44.2190   35.2010  -20.5550 C.3    81  PHE81       0.0574
     92  CG       -43.1880   35.0970  -19.4620 C.ar   81  PHE81      -0.0200
     93  CD1      -43.4230   35.6520  -18.2130 C.ar   81  PHE81      -0.0042
     94  CD2      -41.9800   34.4570  -19.6870 C.ar   81  PHE81      -0.0042
     95  CE1      -42.4770   35.5610  -17.2070 C.ar   81  PHE81      -0.0003
     96  CE2      -41.0290   34.3640  -18.6840 C.ar   81  PHE81      -0.0003
     97  CZ       -41.2800   34.9170  -17.4430 C.ar   81  PHE81      -0.0000
     98  N        -44.2710   32.5720  -22.0620 N.am   82  ILE82      -0.1977
     99  CA       -43.5520   31.3710  -22.4620 C.3    82  ILE82       0.1596
    100  C        -42.0760   31.5130  -22.1110 C.2    82  ILE82       0.2287
    101  O        -41.4140   32.4570  -22.5420 O.2    82  ILE82      -0.2864
    102  CB       -43.6990   31.0860  -23.9680 C.3    82  ILE82       0.0276
    103  CG1      -45.1610   30.8030  -24.3160 C.3    82  ILE82       0.0022
    104  CG2      -42.8120   29.9180  -24.3790 C.3    82  ILE82       0.0022
    105  CD1      -45.7400   29.5970  -23.5980 C.3    82  ILE82       0.0001
    106  N        -44.3250   26.8730  -20.2480 N.3   103  ASP103     -0.1225
    107  CA       -45.4670   27.7490  -20.0390 C.3   103  ASP103      0.1805
    108  C        -45.5170   28.2080  -18.5880 C.2   103  ASP103      0.2598
    109  O        -46.1070   27.5410  -17.7410 O.2   103  ASP103     -0.2718
    110  CB       -46.7700   27.0250  -20.4060 C.3   103  ASP103      0.1424
    111  CG       -47.9870   27.9340  -20.3690 C.2   103  ASP103      0.3668
    112  OD1      -47.8740   29.0890  -19.9130 O.co2 103  ASP103     -0.2456
    113  OD2      -49.0750   27.4870  -20.7880 O.co2 103  ASP103     -0.2456
    114  N        -44.8980   29.3460  -18.2990 N.am  104  LEU104     -0.1966
    115  CA       -45.0250   29.9320  -16.9760 C.3   104  LEU104      0.1728
    116  C        -46.2990   30.7610  -16.9510 C.2   104  LEU104      0.2616
    117  O        -46.3270   31.8990  -17.4150 O.2   104  LEU104     -0.2715
    118  CB       -43.8060   30.7840  -16.6220 C.3   104  LEU104      0.0311
    119  CG       -43.5940   31.0770  -15.1350 C.3   104  LEU104      0.0022
    120  CD1      -42.1220   31.2830  -14.8530 C.3   104  LEU104      0.0001
    121  CD2      -44.3830   32.2940  -14.6870 C.3   104  LEU104      0.0001
    122  N        -47.3600   30.1730  -16.4170 N.am  105  PHE105     -0.1960
    123  CA       -48.6590   30.8260  -16.3990 C.3   105  PHE105      0.1771
    124  C        -49.0630   31.1870  -14.9760 C.2   105  PHE105      0.2619
    125  O        -48.7590   30.4620  -14.0270 O.2   105  PHE105     -0.2715
    126  CB       -49.7170   29.9290  -17.0450 C.3   105  PHE105      0.0574
    127  CG       -50.0300   28.6910  -16.2540 C.ar  105  PHE105     -0.0200
    128  CD1      -49.1240   27.6470  -16.1800 C.ar  105  PHE105     -0.0042
    129  CD2      -51.2350   28.5710  -15.5870 C.ar  105  PHE105     -0.0042
    130  CE1      -49.4110   26.5110  -15.4510 C.ar  105  PHE105     -0.0003
    131  CE2      -51.5320   27.4370  -14.8590 C.ar  105  PHE105     -0.0003
    132  CZ       -50.6180   26.4030  -14.7890 C.ar  105  PHE105     -0.0000
    133  N        -49.7420   32.3200  -14.8390 N.am  106  LEU106     -0.1963
    134  CA       -50.1960   32.8090  -13.5450 C.3   106  LEU106      0.1728
    135  C        -51.7090   32.6930  -13.4360 C.2   106  LEU106      0.2616
    136  O        -52.4110   32.6780  -14.4450 O.2   106  LEU106     -0.2715
    137  CB       -49.7770   34.2650  -13.3390 C.3   106  LEU106      0.0311
    138  CG       -48.3400   34.6560  -13.6840 C.3   106  LEU106      0.0022
    139  CD1      -48.0910   36.1070  -13.2990 C.3   106  LEU106      0.0001
    140  CD2      -47.3310   33.7340  -13.0140 C.3   106  LEU106      0.0001
    141  N        -52.2080   32.6240  -12.2070 N.am  107  HIS107     -0.1959
    142  CA       -53.6440   32.5370  -11.9690 C.3   107  HIS107      0.1787
    143  C        -54.2170   33.8600  -11.4660 C.2   107  HIS107      0.2620
    144  O        -53.5310   34.6330  -10.7970 O.2   107  HIS107     -0.2715
    145  CB       -53.9540   31.4170  -10.9750 C.3   107  HIS107      0.0785
    146  CG       -54.3400   30.1250  -11.6270 C.ar  107  HIS107      0.0821
    147  ND1      -54.3450   28.9220  -10.9540 N.ar  107  HIS107     -0.2267
    148  CD2      -54.7440   29.8510  -12.8890 C.ar  107  HIS107      0.1154
    149  CE1      -54.7320   27.9620  -11.7750 C.ar  107  HIS107      0.1986
    150  NE2      -54.9800   28.4990  -12.9560 N.ar  107  HIS107     -0.2212
    151  N        -55.4790   34.1110  -11.7990 N.am  108  LEU108     -0.1977
    152  CA       -56.1390   35.3600  -11.4370 C.3   108  LEU108      0.1596
    153  C        -56.4860   35.3790   -9.9490 C.2   108  LEU108      0.2287
    154  O        -56.3320   34.3740   -9.2540 O.2   108  LEU108     -0.2864
    155  CB       -57.3960   35.5940  -12.2930 C.3   108  LEU108      0.0297
    156  CG       -58.1460   34.4780  -13.0370 C.3   108  LEU108      0.0022
    157  CD1      -59.4810   35.0060  -13.5450 C.3   108  LEU108      0.0001
    158  CD2      -57.3500   33.9080  -14.2070 C.3   108  LEU108      0.0001
@<TRIPOS>BOND
     1   104   102    1
     2   103   102    1
     3   103   105    1
     4   102    99    1
     5    31    29   ar
     6    31    30   ar
     7    29    27   ar
     8    30    28   ar
     9   101   100    2
    10    99   100    1
    11    99    98    1
    12    98    89   am
    13    28    27   ar
    14    27    26    1
    15    24    23    1
    16    24    25    2
    17    23    26    1
    18    23    22    1
    19    89    88    1
    20    89    90    2
    21   113   111   ar
    22    32    33    1
    23    91    88    1
    24    91    92    1
    25    88    87    1
    26   110   111    1
    27   110   107    1
    28   111   112   ar
    29    37    36    1
    30   106   107    1
    31   107   108    1
    32    86    85    2
    33    33    36    1
    34    33    34    1
    35    94    92   ar
    36    94    96   ar
    37    92    93   ar
    38    87    85   am
    39    85    84    1
    40    77    76    1
    41    96    97   ar
    42   108   114   am
    43   108   109    2
    44    34    38   am
    45    34    35    2
    46    41    40    2
    47   114   115    1
    48    93    95   ar
    49    38    39    1
    50    75    76   ar
    51    75    73   ar
    52    76    74   ar
    53    82    79    1
    54    84    83    1
    55    97    95   ar
    56   117   116    2
    57    40    39    1
    58    40    49   am
    59    83    80   am
    60   126   123    1
    61   126   127    1
    62   115   116    1
    63   115   118    1
    64   116   122   am
    65    39    42    1
    66    44    46   ar
    67    44    43   ar
    68    51    50    1
    69    51    52    2
    70    50    49    1
    71    50    53    1
    72   118   119    1
    73    80    79    1
    74    80    81    2
    75    73    71   ar
    76    42    43    1
    77   122   123    1
    78    74    72   ar
    79   123   124    1
    80    49    55    1
    81    46    48   ar
    82   127   128   ar
    83   127   129   ar
    84    79    78    1
    85   128   130   ar
    86    43    45   ar
    87   129   131   ar
    88   130   132   ar
    89    53    54    1
    90    78    68   am
    91    71    72   ar
    92    71    70    1
    93   119   120    1
    94   119   121    1
    95   124   133   am
    96   124   125    2
    97    48    47   ar
    98    55    54    1
    99   131   132   ar
   100   133   134    1
   101    45    47   ar
   102   136   135    2
   103    68    69    2
   104    68    67    1
   105   158   156    1
   106    70    67    1
   107   138   137    1
   108   138   139    1
   109   138   140    1
   110   157   156    1
   111   134   135    1
   112   134   137    1
   113    67    66    1
   114   135   141   am
   115    66    64   am
   116   156   155    1
   117   150   148   ar
   118   150   149   ar
   119   148   146   ar
   120   155   152    1
   121   141   142    1
   122    64    63    1
   123    64    65    2
   124    63    62    1
   125     9    11   ar
   126     9     7   ar
   127   142   143    1
   128   142   145    1
   129   151   143   am
   130   151   152    1
   131   149   147   ar
   132    11    10   ar
   133   146   145    1
   134   146   147   ar
   135   143   144    2
   136   152   153    1
   137     7     6   ar
   138    59    58    2
   139    62    58   am
   140    20    18   ar
   141    20    21   ar
   142    18    17   ar
   143    58    57    1
   144    10     8   ar
   145    21    19   ar
   146     6     8   ar
   147     6     5    1
   148   153   154    2
   149    17    19   ar
   150    17    16    1
   151    16    13    1
   152     2     5    1
   153     2     1    1
   154     2     3    1
   155    56    57    1
   156    57    60    1
   157    12    13    1
   158     3     4    2
   159    13    14    1
   160    15    14    2
   161    60    61    1
