@<TRIPOS>MOLECULE
tmp/5hjgB00.pdb
 69 63 0 0 0
SMALL
GASTEIGER

@<TRIPOS>ATOM
      1  N          2.3410   -7.4060  -29.0170 N.3     6  LYS6       -0.1245
      2  CA         3.1030   -6.1610  -29.0850 C.3     6  LYS6        0.1561
      3  C          3.7460   -5.8870  -27.7370 C.2     6  LYS6        0.2260
      4  O          3.0690   -5.9450  -26.7150 O.2     6  LYS6       -0.2867
      5  CB         2.1910   -4.9990  -29.4480 C.3     6  LYS6        0.0271
      6  CG         2.9550   -3.7060  -29.5710 C.3     6  LYS6        0.0035
      7  CD         2.4360   -2.8310  -30.6900 C.3     6  LYS6        0.0206
      8  CE         3.4770   -1.7960  -31.0820 C.3     6  LYS6        0.1093
      9  NZ         2.8960   -0.7560  -31.9540 N.3     6  LYS6       -0.1314
     10  N          6.4840   -3.4290  -25.3970 N.3     8  LEU8       -0.1245
     11  CA         7.0920   -2.1090  -25.2660 C.3     8  LEU8        0.1561
     12  C          7.9930   -2.0580  -24.0250 C.2     8  LEU8        0.2260
     13  O          7.6570   -2.6120  -22.9870 O.2     8  LEU8       -0.2867
     14  CB         6.0050   -1.0160  -25.1810 C.3     8  LEU8        0.0270
     15  CG         4.9630   -0.9370  -26.3090 C.3     8  LEU8        0.0019
     16  CD1        3.9300    0.1560  -25.9920 C.3     8  LEU8        0.0001
     17  CD2        5.6280   -0.6780  -27.6560 C.3     8  LEU8        0.0001
     18  N         -5.1680   -8.6150  -30.0440 N.3    97  THR97      -0.1218
     19  CA        -3.8240   -8.1100  -29.8300 C.3    97  THR97       0.1862
     20  C         -3.5310   -8.1640  -28.3400 C.2    97  THR97       0.2287
     21  O         -4.2840   -7.6180  -27.5230 O.2    97  THR97      -0.2866
     22  CB        -3.6500   -6.6650  -30.3350 C.3    97  THR97       0.1770
     23  OG1       -3.8290   -6.6420  -31.7470 O.3    97  THR97      -0.2211
     24  CG2       -2.2590   -6.1360  -30.0120 C.3    97  THR97       0.0375
     25  N         -1.0070   -6.8820  -25.7560 N.3    99  ALA99      -0.1231
     26  CA         0.0200   -5.8630  -25.5750 C.3    99  ALA99       0.1694
     27  C          0.6300   -5.9600  -24.1850 C.2    99  ALA99       0.2592
     28  O         -0.0710   -6.2450  -23.2280 O.2    99  ALA99      -0.2718
     29  CB        -0.5750   -4.5010  -25.7750 C.3    99  ALA99       0.0304
     30  N          1.9300   -5.7140  -24.0830 N.am  100  ALA100     -0.1966
     31  CA         2.6090   -5.7260  -22.7950 C.3   100  ALA100      0.1728
     32  C          3.6080   -4.5930  -22.7250 C.2   100  ALA100      0.2616
     33  O          4.2980   -4.3030  -23.7010 O.2   100  ALA100     -0.2715
     34  CB         3.3170   -7.0670  -22.5770 C.3   100  ALA100      0.0334
     35  N          3.6550   -3.9530  -21.5630 N.am  101  LEU101     -0.1977
     36  CA         4.5980   -2.8970  -21.2880 C.3   101  LEU101      0.1596
     37  C          5.5310   -3.3430  -20.1770 C.2   101  LEU101      0.2287
     38  O          5.0670   -3.6950  -19.0910 O.2   101  LEU101     -0.2864
     39  CB         3.8150   -1.6790  -20.8390 C.3   101  LEU101      0.0297
     40  CG         4.6580   -0.4670  -20.4590 C.3   101  LEU101      0.0022
     41  CD1        5.4550    0.0610  -21.6500 C.3   101  LEU101      0.0001
     42  CD2        3.7720    0.6020  -19.8290 C.3   101  LEU101      0.0001
     43  N          2.6450   -4.4340  -17.3510 N.3   108  SER108     -0.1202
     44  CA         1.2140   -4.3560  -17.5230 C.3   108  SER108      0.2020
     45  C          0.8670   -4.9070  -18.8760 C.2   108  SER108      0.2619
     46  O          1.6540   -4.8350  -19.8240 O.2   108  SER108     -0.2717
     47  CB         0.7390   -2.9210  -17.3790 C.3   108  SER108      0.2103
     48  OG         1.3660   -2.0960  -18.3380 O.3   108  SER108     -0.2182
     49  N         -0.3170   -5.4900  -18.9450 N.am  109  THR109     -0.1938
     50  CA        -0.7840   -6.1260  -20.1610 C.3   109  THR109      0.2028
     51  C         -2.2410   -5.8140  -20.3890 C.2   109  THR109      0.2642
     52  O         -3.0250   -5.6780  -19.4400 O.2   109  THR109     -0.2714
     53  CB        -0.5450   -7.6460  -20.0980 C.3   109  THR109      0.1808
     54  OG1       -0.8060   -8.2510  -21.3530 O.3   109  THR109     -0.2208
     55  CG2       -1.3790   -8.3330  -19.0590 C.3   109  THR109      0.0379
     56  N         -2.6000   -5.7050  -21.6590 N.am  110  THR110     -0.1950
     57  CA        -3.9790   -5.4930  -22.0150 C.3   110  THR110      0.1897
     58  C         -4.2780   -6.2570  -23.2860 C.2   110  THR110      0.2313
     59  O         -3.3930   -6.7170  -23.9710 O.2   110  THR110     -0.2863
     60  CB        -4.3020   -3.9970  -22.1750 C.3   110  THR110      0.1794
     61  OG1       -5.7240   -3.8290  -22.2750 O.3   110  THR110     -0.2208
     62  CG2       -3.6110   -3.3830  -23.3670 C.3   110  THR110      0.0378
     63  N         -6.4750   -5.9400  -26.8340 N.3   112  VAL112     -0.1245
     64  CA        -7.2580   -5.1590  -27.7750 C.3   112  VAL112      0.1561
     65  C         -7.9680   -6.1730  -28.6490 C.2   112  VAL112      0.2260
     66  O         -7.3420   -6.9120  -29.4100 O.2   112  VAL112     -0.2867
     67  CB        -6.3850   -4.2190  -28.6260 C.3   112  VAL112      0.0252
     68  CG1       -7.2860   -3.2700  -29.4230 C.3   112  VAL112      0.0019
     69  CG2       -5.4130   -3.4390  -27.7450 C.3   112  VAL112      0.0019
@<TRIPOS>BOND
     1     9     8    1
     2    23    22    1
     3     8     7    1
     4     7     6    1
     5    22    24    1
     6    22    19    1
     7    18    19    1
     8    19    20    1
     9     6     5    1
    10     5     2    1
    11    68    67    1
    12    66    65    2
    13     2     1    1
    14     2     3    1
    15    65    64    1
    16    67    64    1
    17    67    69    1
    18    20    21    2
    19    64    63    1
    20     3     4    2
    21    17    15    1
    22    15    16    1
    23    15    14    1
    24    29    26    1
    25    25    26    1
    26    26    27    1
    27    10    11    1
    28    11    14    1
    29    11    12    1
    30    27    30   am
    31    27    28    2
    32    30    31    1
    33    12    13    2
    34    59    58    2
    35    33    32    2
    36    62    60    1
    37    58    57    1
    38    31    32    1
    39    31    34    1
    40    32    35   am
    41    61    60    1
    42    60    57    1
    43    57    56    1
    44    56    51   am
    45    41    40    1
    46    35    36    1
    47    54    53    1
    48    36    39    1
    49    36    37    1
    50    39    40    1
    51    40    42    1
    52    51    50    1
    53    51    52    2
    54    37    38    2
    55    50    53    1
    56    50    49    1
    57    53    55    1
    58    46    45    2
    59    49    45   am
    60    45    44    1
    61    48    47    1
    62    44    47    1
    63    44    43    1
