@<TRIPOS>MOLECULE
tmp/5hjiA00.pdb
 138 134 0 0 0
SMALL
GASTEIGER

@<TRIPOS>ATOM
      1  N         20.2500   26.5100  279.8540 N.3   147  LEU147     -0.1231
      2  CA        20.6850   27.0200  278.5600 C.3   147  LEU147      0.1693
      3  C         19.8280   26.4770  277.4180 C.2   147  LEU147      0.2592
      4  O         19.6320   27.1520  276.4050 O.2   147  LEU147     -0.2718
      5  CB        22.1580   26.6690  278.3280 C.3   147  LEU147      0.0284
      6  CG        22.8240   27.1320  277.0300 C.3   147  LEU147      0.0019
      7  CD1       22.7250   28.6420  276.8760 C.3   147  LEU147      0.0001
      8  CD2       24.2760   26.6850  276.9920 C.3   147  LEU147      0.0001
      9  N         19.3110   25.2630  277.5910 N.am  148  TYR148     -0.1962
     10  CA        18.5660   24.5870  276.5290 C.3   148  TYR148      0.1771
     11  C         17.0890   24.9760  276.5390 C.2   148  TYR148      0.2619
     12  O         16.3140   24.5120  275.7000 O.2   148  TYR148     -0.2715
     13  CB        18.6980   23.0630  276.6500 C.3   148  TYR148      0.0574
     14  CG        20.1210   22.5440  276.7340 C.ar  148  TYR148     -0.0198
     15  CD1       21.1930   23.2890  276.2560 C.ar  148  TYR148     -0.0009
     16  CD2       20.3870   21.3000  277.2950 C.ar  148  TYR148     -0.0009
     17  CE1       22.4880   22.8120  276.3400 C.ar  148  TYR148      0.0417
     18  CE2       21.6770   20.8140  277.3800 C.ar  148  TYR148      0.0417
     19  CZ        22.7220   21.5730  276.9010 C.ar  148  TYR148      0.1957
     20  OH        24.0050   21.0880  276.9880 O.3   148  TYR148     -0.2866
     21  N         16.7120   25.8160  277.5010 N.am  149  ARG149     -0.1977
     22  CA        15.3590   26.3690  277.5920 C.3   149  ARG149      0.1597
     23  C         14.2830   25.2830  277.6420 C.2   149  ARG149      0.2287
     24  O         13.2080   25.4320  277.0600 O.2   149  ARG149     -0.2864
     25  CB        15.0880   27.3170  276.4170 C.3   149  ARG149      0.0334
     26  CG        16.1970   28.3300  276.1640 C.3   149  ARG149      0.0492
     27  CD        16.5770   29.0660  277.4350 C.3   149  ARG149      0.2205
     28  NE        15.4930   29.9060  277.9340 N.pl3 149  ARG149     -0.0865
     29  CZ        15.3000   30.1800  279.2200 C.cat 149  ARG149      0.5346
     30  NH1       16.1140   29.6670  280.1330 N.pl3 149  ARG149      0.1354
     31  NH2       14.2920   30.9570  279.5960 N.pl3 149  ARG149      0.1354
     32  N         13.5420   21.9620  273.7360 N.3   181  PHE181     -0.1241
     33  CA        12.6040   23.0650  273.5770 C.3   181  PHE181      0.1605
     34  C         11.8240   22.8980  272.2800 C.2   181  PHE181      0.2264
     35  O         12.3790   22.4730  271.2650 O.2   181  PHE181     -0.2867
     36  CB        13.3410   24.4100  273.5830 C.3   181  PHE181      0.0534
     37  CG        12.5040   25.5690  273.1040 C.ar  181  PHE181     -0.0203
     38  CD1       12.5300   25.9600  271.7720 C.ar  181  PHE181     -0.0042
     39  CD2       11.6990   26.2710  273.9860 C.ar  181  PHE181     -0.0042
     40  CE1       11.7620   27.0220  271.3290 C.ar  181  PHE181     -0.0003
     41  CE2       10.9300   27.3360  273.5490 C.ar  181  PHE181     -0.0003
     42  CZ        10.9620   27.7110  272.2190 C.ar  181  PHE181     -0.0000
     43  N         19.8810   28.3660  266.7040 N.3   207  PHE207     -0.1241
     44  CA        18.9380   27.9480  267.7450 C.3   207  PHE207      0.1605
     45  C         17.8290   27.0590  267.1770 C.2   207  PHE207      0.2264
     46  O         16.6500   27.2650  267.4680 O.2   207  PHE207     -0.2867
     47  CB        18.3190   29.1700  268.4370 C.3   207  PHE207      0.0534
     48  CG        19.3010   30.2730  268.7280 C.ar  207  PHE207     -0.0203
     49  CD1       20.2520   30.1310  269.7270 C.ar  207  PHE207     -0.0042
     50  CD2       19.2610   31.4610  268.0140 C.ar  207  PHE207     -0.0042
     51  CE1       21.1500   31.1480  270.0010 C.ar  207  PHE207     -0.0003
     52  CE2       20.1560   32.4820  268.2830 C.ar  207  PHE207     -0.0003
     53  CZ        21.1020   32.3260  269.2770 C.ar  207  PHE207     -0.0000
     54  N         16.8180   23.8930  267.4640 N.3   209  GLY209     -0.1225
     55  CA        16.0790   22.8950  268.2230 C.3   209  GLY209      0.1811
     56  C         16.0860   21.5370  267.5450 C.2   209  GLY209      0.2280
     57  O         17.1400   21.0550  267.1330 O.2   209  GLY209     -0.2866
     58  N         22.4920   23.9810  266.7060 N.3   229  GLU229     -0.1231
     59  CA        21.8790   23.7120  268.0040 C.3   229  GLU229      0.1699
     60  C         22.9230   23.1880  268.9890 C.2   229  GLU229      0.2592
     61  O         23.7680   22.3720  268.6260 O.2   229  GLU229     -0.2718
     62  CB        20.7290   22.7090  267.8530 C.3   229  GLU229      0.0402
     63  CG        20.1560   22.1970  269.1670 C.3   229  GLU229      0.1161
     64  CD        19.5940   23.3070  270.0340 C.2   229  GLU229      0.3649
     65  OE1       19.9420   23.3600  271.2320 O.co2 229  GLU229     -0.2457
     66  OE2       18.8000   24.1220  269.5200 O.co2 229  GLU229     -0.2457
     67  N         22.8630   23.6580  270.2320 N.am  230  ILE230     -0.1966
     68  CA        23.8730   23.3140  271.2290 C.3   230  ILE230      0.1727
     69  C         23.4590   22.1170  272.0930 C.2   230  ILE230      0.2616
     70  O         24.3110   21.4020  272.6230 O.2   230  ILE230     -0.2715
     71  CB        24.1920   24.5280  272.1410 C.3   230  ILE230      0.0290
     72  CG1       25.5290   24.3330  272.8610 C.3   230  ILE230      0.0022
     73  CG2       23.0530   24.8010  273.1230 C.3   230  ILE230      0.0023
     74  CD1       26.0100   25.5660  273.5950 C.3   230  ILE230      0.0001
     75  N         22.1540   21.8970  272.2220 N.am  231  ASN231     -0.1972
     76  CA        21.6280   20.7690  272.9850 C.3   231  ASN231      0.1688
     77  C         21.7550   19.4790  272.1800 C.2   231  ASN231      0.2292
     78  O         21.1090   19.3250  271.1440 O.2   231  ASN231     -0.2864
     79  CB        20.1690   21.0340  273.3750 C.3   231  ASN231      0.1181
     80  CG        19.5320   19.8760  274.1250 C.2   231  ASN231      0.2629
     81  OD1       20.2040   18.9350  274.5470 O.2   231  ASN231     -0.2716
     82  ND2       18.2190   19.9510  274.3040 N.am  231  ASN231     -0.0877
     83  N         18.6250   17.4960  271.4510 N.3   234  ALA234     -0.1245
     84  CA        17.8930   18.1730  270.3880 C.3   234  ALA234      0.1562
     85  C         18.5310   17.8850  269.0360 C.2   234  ALA234      0.2260
     86  O         17.8350   17.7460  268.0340 O.2   234  ALA234     -0.2867
     87  CB        17.8410   19.6710  270.6460 C.3   234  ALA234      0.0290
     88  N         26.5990   22.6610  267.9800 N.3   258  GLY258     -0.1210
     89  CA        27.5440   23.6130  268.5310 C.3   258  GLY258      0.1956
     90  C         26.9360   24.9050  269.0370 C.2   258  GLY258      0.2612
     91  O         25.7260   25.1210  268.9520 O.2   258  GLY258     -0.2717
     92  N         27.7990   25.7630  269.5700 N.am  259  ASP259     -0.1959
     93  CA        27.4130   27.0720  270.0780 C.3   259  ASP259      0.1840
     94  C         27.3140   28.0750  268.9300 C.2   259  ASP259      0.2622
     95  O         28.2960   28.3200  268.2270 O.2   259  ASP259     -0.2715
     96  CB        28.4290   27.5470  271.1240 C.3   259  ASP259      0.1450
     97  CG        27.9760   28.7900  271.8730 C.2   259  ASP259      0.3671
     98  OD1       27.0030   29.4440  271.4440 O.co2 259  ASP259     -0.2456
     99  OD2       28.6080   29.1170  272.9000 O.co2 259  ASP259     -0.2456
    100  N         26.1240   28.6470  268.7560 N.am  260  VAL260     -0.1963
    101  CA        25.8530   29.6310  267.7080 C.3   260  VAL260      0.1727
    102  C         26.8880   30.7530  267.6780 C.2   260  VAL260      0.2616
    103  O         27.3910   31.1220  266.6130 O.2   260  VAL260     -0.2715
    104  CB        24.4430   30.2480  267.8840 C.3   260  VAL260      0.0290
    105  CG1       24.3510   31.6180  267.2170 C.3   260  VAL260      0.0023
    106  CG2       23.3800   29.3060  267.3420 C.3   260  VAL260      0.0023
    107  N         27.2180   31.2740  268.8550 N.am  261  PHE261     -0.1974
    108  CA        28.1360   32.4000  268.9620 C.3   261  PHE261      0.1639
    109  C         29.5780   32.0010  268.6560 C.2   261  PHE261      0.2290
    110  O         30.4380   32.8600  268.4620 O.2   261  PHE261     -0.2864
    111  CB        28.0370   33.0240  270.3540 C.3   261  PHE261      0.0560
    112  CG        26.6760   33.5730  270.6680 C.ar  261  PHE261     -0.0200
    113  CD1       26.2810   34.8050  270.1700 C.ar  261  PHE261     -0.0042
    114  CD2       25.7850   32.8530  271.4480 C.ar  261  PHE261     -0.0042
    115  CE1       25.0240   35.3120  270.4490 C.ar  261  PHE261     -0.0003
    116  CE2       24.5270   33.3550  271.7320 C.ar  261  PHE261     -0.0003
    117  CZ        24.1460   34.5860  271.2320 C.ar  261  PHE261     -0.0000
    118  N         15.1990   32.0810  265.4550 N.3   276  PRO276     -0.2116
    119  CA        14.2600   31.8760  266.5610 C.3   276  PRO276      0.1372
    120  C         14.9880   32.0460  267.8880 C.2   276  PRO276      0.2244
    121  O         15.1930   31.0810  268.6260 O.2   276  PRO276     -0.2868
    122  CB        13.7830   30.4390  266.3550 C.3   276  PRO276      0.0268
    123  CG        14.9320   29.7680  265.6840 C.3   276  PRO276      0.0207
    124  CD        15.5730   30.8120  264.8080 C.3   276  PRO276      0.0892
    125  N         16.4440   32.5780  271.5060 N.3   278  PRO278     -0.2116
    126  CA        15.9920   32.2590  272.8630 C.3   278  PRO278      0.1372
    127  C         15.5540   33.5280  273.5790 C.2   278  PRO278      0.2244
    128  O         16.1450   34.5820  273.3420 O.2   278  PRO278     -0.2868
    129  CB        17.2350   31.6480  273.5200 C.3   278  PRO278      0.0268
    130  CG        18.0550   31.1430  272.3850 C.3   278  PRO278      0.0207
    131  CD        17.8160   32.1050  271.2570 C.3   278  PRO278      0.0892
    132  N         17.7940   36.6010  274.9830 N.3   281  VAL281     -0.1245
    133  CA        19.0770   36.5850  274.2870 C.3   281  VAL281      0.1561
    134  C         19.1110   37.6320  273.1740 C.2   281  VAL281      0.2260
    135  O         18.1130   37.8520  272.4880 O.2   281  VAL281     -0.2867
    136  CB        19.3710   35.1770  273.7030 C.3   281  VAL281      0.0252
    137  CG1       20.5760   35.1970  272.7660 C.3   281  VAL281      0.0019
    138  CG2       19.5830   34.1710  274.8280 C.3   281  VAL281      0.0019
@<TRIPOS>BOND
     1   124   118    1
     2   124   123    1
     3   118   119    1
     4   123   122    1
     5   122   119    1
     6   119   120    1
     7   103   102    2
     8    43    44    1
     9    58    59    1
    10    57    56    2
    11    45    46    2
    12    45    44    1
    13   105   104    1
    14   106   104    1
    15    54    55    1
    16    56    55    1
    17   102   101    1
    18   102   107   am
    19   101   104    1
    20   101   100    1
    21    44    47    1
    22    62    59    1
    23    62    63    1
    24   120   121    2
    25    88    89    1
    26    59    60    1
    27    50    52   ar
    28    50    48   ar
    29    86    85    2
    30    95    94    2
    31    52    53   ar
    32    47    48    1
    33   110   109    2
    34    89    90    1
    35    61    60    2
    36   109   108    1
    37    48    49   ar
    38   100    94   am
    39   107   108    1
    40    94    93    1
    41    91    90    2
    42   108   111    1
    43    60    67   am
    44    85    84    1
    45    90    92   am
    46    63    64    1
    47    53    51   ar
    48    66    64   ar
    49    92    93    1
    50    49    51   ar
    51    64    65   ar
    52    93    96    1
    53   113   115   ar
    54   113   112   ar
    55    67    68    1
    56   111   112    1
    57    84    87    1
    58    84    83    1
    59   115   117   ar
    60   112   114   ar
    61    96    97    1
    62    78    77    2
    63    68    69    1
    64    68    71    1
    65   117   116   ar
    66   131   125    1
    67   131   130    1
    68    35    34    2
    69    40    38   ar
    70    40    42   ar
    71    98    97   ar
    72   114   116   ar
    73   125   126    1
    74    38    37   ar
    75    97    99   ar
    76    69    75   am
    77    69    70    2
    78    71    72    1
    79    71    73    1
    80    77    76    1
    81    42    41   ar
    82    75    76    1
    83    34    33    1
    84   130   129    1
    85   135   134    2
    86   137   136    1
    87    72    74    1
    88   126   129    1
    89   126   127    1
    90    76    79    1
    91    37    36    1
    92    37    39   ar
    93   134   133    1
    94   128   127    2
    95    79    80    1
    96    41    39   ar
    97    33    36    1
    98    33    32    1
    99   136   133    1
   100   136   138    1
   101    80    82   am
   102    80    81    2
   103   133   132    1
   104    12    11    2
   105    26    25    1
   106    26    27    1
   107    15    17   ar
   108    15    14   ar
   109    17    19   ar
   110     4     3    2
   111    25    22    1
   112    10    11    1
   113    10    13    1
   114    10     9    1
   115    11    21   am
   116    13    14    1
   117    14    16   ar
   118     7     6    1
   119    19    20    1
   120    19    18   ar
   121     8     6    1
   122     6     5    1
   123    24    23    2
   124    16    18   ar
   125     3     9   am
   126     3     2    1
   127    27    28    1
   128    21    22    1
   129    22    23    1
   130    28    29    2
   131     5     2    1
   132     2     1    1
   133    29    31    1
   134    29    30    1
