@<TRIPOS>MOLECULE
tmp/5hjoA02.pdb
 194 192 0 0 0
SMALL
GASTEIGER

@<TRIPOS>ATOM
      1  N         13.7870  -21.1540   -3.6640 N.3   213  ASP213     -0.1239
      2  CA        12.8940  -22.2700   -3.3660 C.3   213  ASP213      0.1674
      3  C         12.0570  -21.7950   -2.1630 C.2   213  ASP213      0.2266
      4  O         12.5510  -21.7540   -1.0400 O.2   213  ASP213     -0.2867
      5  CB        13.7040  -23.5310   -3.0480 C.3   213  ASP213      0.1410
      6  CG        12.8990  -24.7550   -2.6540 C.2   213  ASP213      0.3668
      7  OD1       11.6530  -24.6500   -2.5670 O.co2 213  ASP213     -0.2456
      8  OD2       13.5120  -25.8430   -2.5060 O.co2 213  ASP213     -0.2456
      9  N          9.0110  -22.5660    0.0780 N.3   215  PHE215     -0.1241
     10  CA         8.1120  -23.6170    0.5810 C.3   215  PHE215      0.1605
     11  C          6.7370  -23.0450    0.9050 C.2   215  PHE215      0.2264
     12  O          6.6530  -22.0640    1.6330 O.2   215  PHE215     -0.2867
     13  CB         8.7120  -24.2390    1.8530 C.3   215  PHE215      0.0534
     14  CG         7.8670  -25.2970    2.5120 C.ar  215  PHE215     -0.0203
     15  CD1        7.7800  -26.5690    1.9760 C.ar  215  PHE215     -0.0042
     16  CD2        7.2550  -25.0580    3.7370 C.ar  215  PHE215     -0.0042
     17  CE1        7.0100  -27.5560    2.5980 C.ar  215  PHE215     -0.0003
     18  CE2        6.5040  -26.0510    4.3640 C.ar  215  PHE215     -0.0003
     19  CZ         6.3820  -27.2870    3.7890 C.ar  215  PHE215     -0.0000
     20  N          5.0600  -37.6290   -6.2610 N.3   311  TRP311     -0.1241
     21  CA         6.1670  -37.9440   -5.4050 C.3   311  TRP311      0.1605
     22  C          5.5460  -39.0030   -4.5030 C.2   311  TRP311      0.2264
     23  O          4.8260  -38.6180   -3.5950 O.2   311  TRP311     -0.2867
     24  CB         6.5700  -36.7030   -4.6060 C.3   311  TRP311      0.0550
     25  CG         7.7090  -36.8930   -3.6520 C.ar  311  TRP311      0.0003
     26  CD1        8.5860  -37.9350   -3.6010 C.ar  311  TRP311      0.0946
     27  CD2        8.1650  -35.9360   -2.7010 C.ar  311  TRP311      0.0152
     28  NE1        9.4620  -37.7520   -2.5670 N.ar  311  TRP311     -0.2442
     29  CE2        9.2560  -36.5070   -2.0260 C.ar  311  TRP311      0.0810
     30  CE3        7.6980  -34.6800   -2.2850 C.ar  311  TRP311      0.0012
     31  CZ2        9.8850  -35.8690   -0.9630 C.ar  311  TRP311      0.0191
     32  CZ3        8.3100  -34.0580   -1.2160 C.ar  311  TRP311      0.0001
     33  CH2        9.4220  -34.6220   -0.6060 C.ar  311  TRP311      0.0015
     34  N          9.9210  -39.4150   -9.4710 N.3   339  ASP339     -0.1225
     35  CA        10.4640  -38.3950   -8.5830 C.3   339  ASP339      0.1805
     36  C         11.6520  -39.0000   -7.7950 C.2   339  ASP339      0.2597
     37  O         12.1090  -40.1070   -8.1000 O.2   339  ASP339     -0.2718
     38  CB         9.3400  -37.7920   -7.7040 C.3   339  ASP339      0.1424
     39  CG         9.5390  -36.3590   -7.2800 C.2   339  ASP339      0.3668
     40  OD1       10.6720  -35.9950   -6.9480 O.co2 339  ASP339     -0.2456
     41  OD2        8.5490  -35.6690   -7.0930 O.co2 339  ASP339     -0.2456
     42  N         12.1720  -38.2630   -6.8150 N.am  340  ILE340     -0.1980
     43  CA        13.4350  -38.5660   -6.1460 C.3   340  ILE340      0.1595
     44  C         13.5170  -39.9240   -5.4840 C.2   340  ILE340      0.2287
     45  O         14.6320  -40.3950   -5.2560 O.2   340  ILE340     -0.2864
     46  CB        13.8440  -37.4590   -5.1640 C.3   340  ILE340      0.0276
     47  CG1       12.7830  -37.2240   -4.0610 C.3   340  ILE340      0.0022
     48  CG2       14.1380  -36.1400   -5.9090 C.3   340  ILE340      0.0022
     49  CD1       13.2220  -36.2250   -3.0070 C.3   340  ILE340      0.0001
     50  N         13.7280  -37.7510  -12.5530 N.3   376  ILE376     -0.1245
     51  CA        14.2880  -36.5470  -11.9480 C.3   376  ILE376      0.1561
     52  C         15.8110  -36.6860  -11.8020 C.2   376  ILE376      0.2260
     53  O         16.3280  -37.7600  -11.4880 O.2   376  ILE376     -0.2867
     54  CB        13.5670  -36.2220  -10.5990 C.3   376  ILE376      0.0252
     55  CG1       13.8420  -34.7720  -10.1560 C.3   376  ILE376      0.0019
     56  CG2       13.9360  -37.2170   -9.4970 C.3   376  ILE376      0.0019
     57  CD1       12.9700  -34.3040   -9.1000 C.3   376  ILE376      0.0001
     58  N         18.2970  -33.1280   -0.4570 N.3   413  TRP413     -0.1241
     59  CA        17.6380  -34.4460   -0.3380 C.3   413  TRP413      0.1605
     60  C         18.5450  -35.6080    0.0790 C.2   413  TRP413      0.2264
     61  O         18.1220  -36.4340    0.8820 O.2   413  TRP413     -0.2867
     62  CB        16.8730  -34.8480   -1.6010 C.3   413  TRP413      0.0550
     63  CG        15.8490  -33.8680   -2.0860 C.ar  413  TRP413      0.0003
     64  CD1       15.7470  -33.3590   -3.3430 C.ar  413  TRP413      0.0946
     65  CD2       14.6790  -33.4220   -1.3760 C.ar  413  TRP413      0.0152
     66  NE1       14.6430  -32.5560   -3.4390 N.ar  413  TRP413     -0.2442
     67  CE2       13.9540  -32.5960   -2.2520 C.ar  413  TRP413      0.0810
     68  CE3       14.2060  -33.5880   -0.0600 C.ar  413  TRP413      0.0012
     69  CZ2       12.7900  -31.9440   -1.8630 C.ar  413  TRP413      0.0191
     70  CZ3       13.0320  -32.9710    0.3060 C.ar  413  TRP413      0.0001
     71  CH2       12.3430  -32.1490   -0.5870 C.ar  413  TRP413      0.0015
     72  N         13.8400  -34.3620  -15.7460 N.3   450  TRP450     -0.1241
     73  CA        13.2820  -33.2810  -14.9800 C.3   450  TRP450      0.1605
     74  C         14.3980  -32.7520  -14.0750 C.2   450  TRP450      0.2264
     75  O         14.9700  -33.5190  -13.3020 O.2   450  TRP450     -0.2867
     76  CB        12.0960  -33.8410  -14.1700 C.3   450  TRP450      0.0550
     77  CG        11.5330  -32.9460  -13.1010 C.ar  450  TRP450      0.0003
     78  CD1       11.5780  -31.5800  -13.0530 C.ar  450  TRP450      0.0946
     79  CD2       10.7100  -33.3570  -12.0140 C.ar  450  TRP450      0.0152
     80  NE1       10.8740  -31.1220  -11.9720 N.ar  450  TRP450     -0.2442
     81  CE2       10.3500  -32.1910  -11.2950 C.ar  450  TRP450      0.0810
     82  CE3       10.2450  -34.6040  -11.5620 C.ar  450  TRP450      0.0012
     83  CZ2        9.5470  -32.2360  -10.1460 C.ar  450  TRP450      0.0191
     84  CZ3        9.4040  -34.6390  -10.4610 C.ar  450  TRP450      0.0001
     85  CH2        9.1080  -33.4760   -9.7320 C.ar  450  TRP450      0.0015
     86  N         14.9830  -30.3450  -11.0690 N.3   452  ASP452     -0.1225
     87  CA        14.3420  -29.6080   -9.9970 C.3   452  ASP452      0.1805
     88  C         15.4390  -29.0700   -9.0750 C.2   452  ASP452      0.2597
     89  O         16.6000  -29.4590   -9.1890 O.2   452  ASP452     -0.2718
     90  CB        13.4230  -30.5750   -9.2350 C.3   452  ASP452      0.1424
     91  CG        12.4950  -29.9750   -8.2250 C.2   452  ASP452      0.3668
     92  OD1       12.2550  -28.7480   -8.2890 O.co2 452  ASP452     -0.2456
     93  OD2       12.0880  -30.7060   -7.3090 O.co2 452  ASP452     -0.2456
     94  N         15.0650  -28.1770   -8.1550 N.am  453  MET453     -0.1979
     95  CA        15.9610  -27.6950   -7.0900 C.3   453  MET453      0.1605
     96  C         17.1820  -26.9730   -7.6520 C.2   453  MET453      0.2287
     97  O         18.2140  -26.9090   -6.9890 O.2   453  MET453     -0.2864
     98  CB        16.4660  -28.8850   -6.2230 C.3   453  MET453      0.0413
     99  CG        15.4200  -29.8670   -5.7870 C.3   453  MET453      0.0598
    100  SD        14.1810  -29.1750   -4.7700 S.3   453  MET453     -0.1393
    101  CE        14.9710  -29.0450   -3.2740 C.3   453  MET453      0.0692
    102  N         19.1830  -26.5500    1.6650 N.3   459  PHE459     -0.1241
    103  CA        18.3030  -26.4920    2.8360 C.3   459  PHE459      0.1605
    104  C         18.8420  -25.7190    4.0360 C.2   459  PHE459      0.2264
    105  O         18.0460  -25.1050    4.7820 O.2   459  PHE459     -0.2867
    106  CB        17.8550  -27.8890    3.2880 C.3   459  PHE459      0.0534
    107  CG        17.0320  -28.6870    2.2930 C.ar  459  PHE459     -0.0203
    108  CD1       16.4360  -28.0710    1.1940 C.ar  459  PHE459     -0.0042
    109  CD2       16.8060  -30.0420    2.4860 C.ar  459  PHE459     -0.0042
    110  CE1       15.6440  -28.7980    0.3170 C.ar  459  PHE459     -0.0003
    111  CE2       16.0380  -30.7740    1.5860 C.ar  459  PHE459     -0.0003
    112  CZ        15.4560  -30.1500    0.5140 C.ar  459  PHE459     -0.0000
    113  N         17.4380  -20.4680    1.7890 N.3   464  VAL464     -0.1245
    114  CA        17.3770  -21.8080    1.1980 C.3   464  VAL464      0.1561
    115  C         18.1670  -21.8800   -0.1470 C.2   464  VAL464      0.2260
    116  O         17.8380  -22.6950   -1.0180 O.2   464  VAL464     -0.2867
    117  CB        15.9050  -22.3160    1.0690 C.3   464  VAL464      0.0252
    118  CG1       15.8440  -23.8480    1.0330 C.3   464  VAL464      0.0019
    119  CG2       15.0360  -21.7920    2.2250 C.3   464  VAL464      0.0019
    120  N         12.8170  -26.1120  -12.9740 N.3   512  ARG512     -0.1245
    121  CA        12.1250  -25.2410  -12.0530 C.3   512  ARG512      0.1563
    122  C         12.6520  -23.8240  -12.1490 C.2   512  ARG512      0.2260
    123  O         11.8680  -22.8860  -12.2640 O.2   512  ARG512     -0.2867
    124  CB        12.2250  -25.7630  -10.6310 C.3   512  ARG512      0.0307
    125  CG        11.1430  -25.1480   -9.7520 C.3   512  ARG512      0.0489
    126  CD        10.9360  -25.8270   -8.4300 C.3   512  ARG512      0.2205
    127  NE        12.1100  -25.6740   -7.5780 N.pl3 512  ARG512     -0.0865
    128  CZ        12.2070  -26.1280   -6.3330 C.cat 512  ARG512      0.5346
    129  NH1       11.2420  -26.8700   -5.8100 N.pl3 512  ARG512      0.1354
    130  NH2       13.2970  -25.8940   -5.6240 N.pl3 512  ARG512      0.1354
    131  N          7.7600  -24.9360  -15.0540 N.3   525  TRP525     -0.1241
    132  CA         6.4670  -24.9920  -14.3720 C.3   525  TRP525      0.1605
    133  C          6.5330  -24.1250  -13.1560 C.2   525  TRP525      0.2264
    134  O          7.6200  -23.7160  -12.7610 O.2   525  TRP525     -0.2867
    135  CB         5.9920  -26.4150  -14.0910 C.3   525  TRP525      0.0550
    136  CG         6.3400  -26.9730  -12.7570 C.ar  525  TRP525      0.0003
    137  CD1        5.4710  -27.2400  -11.7440 C.ar  525  TRP525      0.0946
    138  CD2        7.6420  -27.3360  -12.2760 C.ar  525  TRP525      0.0152
    139  NE1        6.1450  -27.7370  -10.6540 N.ar  525  TRP525     -0.2442
    140  CE2        7.4710  -27.8690  -10.9760 C.ar  525  TRP525      0.0810
    141  CE3        8.9280  -27.3300  -12.8370 C.ar  525  TRP525      0.0012
    142  CZ2        8.5350  -28.3380  -10.2170 C.ar  525  TRP525      0.0191
    143  CZ3        9.9700  -27.8390  -12.0930 C.ar  525  TRP525      0.0001
    144  CH2        9.7750  -28.3020  -10.7900 C.ar  525  TRP525      0.0015
    145  N          5.9590  -25.5820   -6.5720 N.3   528  ASP528     -0.1239
    146  CA         5.1420  -26.2300   -5.5420 C.3   528  ASP528      0.1674
    147  C          3.9630  -25.3990   -5.1580 C.2   528  ASP528      0.2266
    148  O          3.9900  -24.6360   -4.1940 O.2   528  ASP528     -0.2867
    149  CB         6.0020  -26.6210   -4.3500 C.3   528  ASP528      0.1410
    150  CG         7.1020  -27.5790   -4.6710 C.2   528  ASP528      0.3668
    151  OD1        7.0280  -28.2240   -5.7430 O.co2 528  ASP528     -0.2456
    152  OD2        8.0600  -27.6520   -3.8730 O.co2 528  ASP528     -0.2456
    153  N          0.2150  -29.2090   -5.9090 N.3   561  PHE561     -0.1227
    154  CA         1.2350  -30.0700   -5.3180 C.3   561  PHE561      0.1736
    155  C          0.9120  -30.4190   -3.8400 C.2   561  PHE561      0.2595
    156  O          0.8160  -31.6040   -3.4620 O.2   561  PHE561     -0.2718
    157  CB         2.6090  -29.3860   -5.4300 C.3   561  PHE561      0.0547
    158  CG         3.7500  -30.1480   -4.8220 C.ar  561  PHE561     -0.0202
    159  CD1        4.1280  -31.3820   -5.3330 C.ar  561  PHE561     -0.0042
    160  CD2        4.4240  -29.6510   -3.7200 C.ar  561  PHE561     -0.0042
    161  CE1        5.1930  -32.0680   -4.7990 C.ar  561  PHE561     -0.0003
    162  CE2        5.5000  -30.3290   -3.1890 C.ar  561  PHE561     -0.0003
    163  CZ         5.8680  -31.5470   -3.7180 C.ar  561  PHE561     -0.0000
    164  N          0.7720  -29.3860   -3.0240 N.am  562  PHE562     -0.1976
    165  CA         0.4640  -29.5750   -1.6150 C.3   562  PHE562      0.1639
    166  C         -1.0280  -29.8080   -1.4030 C.2   562  PHE562      0.2290
    167  O         -1.8540  -29.1600   -2.0510 O.2   562  PHE562     -0.2864
    168  CB         0.8570  -28.3240   -0.7920 C.3   562  PHE562      0.0560
    169  CG         2.3280  -28.0630   -0.7410 C.ar  562  PHE562     -0.0200
    170  CD1        3.1840  -28.9570   -0.1140 C.ar  562  PHE562     -0.0042
    171  CD2        2.8570  -26.9000   -1.2770 C.ar  562  PHE562     -0.0042
    172  CE1        4.5460  -28.6930   -0.0220 C.ar  562  PHE562     -0.0003
    173  CE2        4.2240  -26.6610   -1.2370 C.ar  562  PHE562     -0.0003
    174  CZ         5.0660  -27.5620   -0.6260 C.ar  562  PHE562     -0.0000
    175  N          0.7550  -33.5930  -10.7360 N.3   586  HIS586     -0.1241
    176  CA         1.8040  -33.9220   -9.7940 C.3   586  HIS586      0.1621
    177  C          1.2440  -33.7010   -8.3690 C.2   586  HIS586      0.2264
    178  O          0.2560  -32.9890   -8.1930 O.2   586  HIS586     -0.2867
    179  CB         3.0410  -33.0910  -10.0950 C.3   586  HIS586      0.0745
    180  CG         4.2370  -33.4430   -9.2570 C.ar  586  HIS586      0.0817
    181  ND1        4.7330  -34.7280   -9.2190 N.ar  586  HIS586     -0.2268
    182  CD2        4.9860  -32.6550   -8.4520 C.ar  586  HIS586      0.1154
    183  CE1        5.7710  -34.6760   -8.4180 C.ar  586  HIS586      0.1986
    184  NE2        5.9620  -33.4370   -7.9440 N.ar  586  HIS586     -0.2212
    185  N          2.3650  -33.9890   -3.8250 N.3   588  HIS588     -0.1241
    186  CA         3.3260  -34.1400   -2.7330 C.3   588  HIS588      0.1621
    187  C          3.2770  -35.5440   -2.0900 C.2   588  HIS588      0.2264
    188  O          2.3090  -36.2750   -2.2340 O.2   588  HIS588     -0.2867
    189  CB         3.1010  -32.9880   -1.7350 C.3   588  HIS588      0.0745
    190  CG         3.9640  -33.0040   -0.5050 C.ar  588  HIS588      0.0817
    191  ND1        3.5800  -33.6660    0.6460 N.ar  588  HIS588     -0.2268
    192  CD2        5.1700  -32.4520   -0.2930 C.ar  588  HIS588      0.1154
    193  CE1        4.5380  -33.4490    1.5210 C.ar  588  HIS588      0.1986
    194  NE2        5.5210  -32.7500    0.9900 N.ar  588  HIS588     -0.2212
@<TRIPOS>BOND
     1    72    73    1
     2   131   132    1
     3    73    76    1
     4    73    74    1
     5   132   135    1
     6   132   133    1
     7    76    77    1
     8   135   136    1
     9    74    75    2
    10   133   134    2
    11    77    78   ar
    12    77    79   ar
    13    78    80   ar
    14   120   121    1
    15   141   138   ar
    16   141   143   ar
    17   136   138   ar
    18   136   137   ar
    19    50    51    1
    20   138   140   ar
    21   123   122    2
    22   122   121    1
    23   143   144   ar
    24   121   124    1
    25    79    82   ar
    26    79    81   ar
    27    80    81   ar
    28    51    52    1
    29    51    54    1
    30    52    53    2
    31   137   139   ar
    32    82    84   ar
    33    81    83   ar
    34    86    87    1
    35   140   139   ar
    36   140   142   ar
    37   144   142   ar
    38   175   176    1
    39   124   125    1
    40    54    55    1
    41    54    56    1
    42    84    85   ar
    43    55    57    1
    44    83    85   ar
    45   179   176    1
    46   179   180    1
    47    87    90    1
    48    87    88    1
    49   176   177    1
    50   125   126    1
    51    34    35    1
    52   180   181   ar
    53   180   182   ar
    54    90    91    1
    55   181   183   ar
    56    89    88    2
    57    88    94   am
    58    35    36    1
    59    35    38    1
    60   182   184   ar
    61   126   127    1
    62   183   184   ar
    63   177   178    2
    64    92    91   ar
    65    91    93   ar
    66    94    95    1
    67    37    36    2
    68    36    42   am
    69    38    39    1
    70    96    95    1
    71    96    97    2
    72   127   128    2
    73    39    41   ar
    74    39    40   ar
    75    95    98    1
    76    42    43    1
    77   145   146    1
    78   128   129    1
    79   128   130    1
    80    20    21    1
    81    98    99    1
    82    43    44    1
    83    43    46    1
    84    48    46    1
    85   153   154    1
    86    99   100    1
    87   151   150   ar
    88   146   147    1
    89   146   149    1
    90    44    45    2
    91   157   154    1
    92   157   158    1
    93    21    24    1
    94    21    22    1
    95   159   158   ar
    96   159   161   ar
    97   154   155    1
    98    46    47    1
    99   147   148    2
   100   158   160   ar
   101   161   163   ar
   102   100   101    1
   103   150   149    1
   104   150   152   ar
   105    24    25    1
   106    22    23    2
   107    47    49    1
   108   155   156    2
   109   155   164   am
   110   185   186    1
   111   160   162   ar
   112   163   162   ar
   113     1     2    1
   114    25    26   ar
   115    25    27   ar
   116    26    28   ar
   117    66    64   ar
   118    66    67   ar
   119     2     5    1
   120     2     3    1
   121    64    63   ar
   122     5     6    1
   123   164   165    1
   124   186   187    1
   125   186   189    1
   126    27    30   ar
   127    27    29   ar
   128     6     7   ar
   129     6     8   ar
   130    28    29   ar
   131    30    32   ar
   132    67    69   ar
   133    67    65   ar
   134   188   187    2
   135     3     4    2
   136    63    62    1
   137    63    65   ar
   138   167   166    2
   139    29    31   ar
   140    69    71   ar
   141   189   190    1
   142   165   166    1
   143   165   168    1
   144    62    59    1
   145    65    68   ar
   146   171   173   ar
   147   171   169   ar
   148   173   174   ar
   149    32    33   ar
   150   116   115    2
   151    31    33   ar
   152   168   169    1
   153   169   170   ar
   154   174   172   ar
   155    71    70   ar
   156   190   192   ar
   157   190   191   ar
   158    58    59    1
   159    59    60    1
   160   192   194   ar
   161   115   114    1
   162   170   172   ar
   163    68    70   ar
   164     9    10    1
   165    60    61    2
   166   110   112   ar
   167   110   108   ar
   168   112   111   ar
   169    10    11    1
   170    10    13    1
   171   191   193   ar
   172    11    12    2
   173   194   193   ar
   174   118   117    1
   175   117   114    1
   176   117   119    1
   177   108   107   ar
   178   114   113    1
   179   111   109   ar
   180   102   103    1
   181    13    14    1
   182    15    14   ar
   183    15    17   ar
   184   107   109   ar
   185   107   106    1
   186    14    16   ar
   187    17    19   ar
   188   103   106    1
   189   103   104    1
   190    16    18   ar
   191    19    18   ar
   192   104   105    2
