@<TRIPOS>MOLECULE
tmp/5hjqA00.pdb
 111 104 0 0 0
SMALL
GASTEIGER

@<TRIPOS>ATOM
      1  N         16.4280   14.3310  112.6320 N.3    21  LYS21      -0.1245
      2  CA        16.4020   15.0640  113.8950 C.3    21  LYS21       0.1561
      3  C         17.6070   15.9860  114.0210 C.2    21  LYS21       0.2260
      4  O         17.4730   17.1450  114.4110 O.2    21  LYS21      -0.2867
      5  CB        16.3610   14.0990  115.0860 C.3    21  LYS21       0.0271
      6  CG        16.4360   14.7950  116.4400 C.3    21  LYS21       0.0035
      7  CD        16.3170   13.8100  117.5980 C.3    21  LYS21       0.0206
      8  CE        17.5510   12.9310  117.7160 C.3    21  LYS21       0.1093
      9  NZ        17.4860   12.0640  118.9260 N.3    21  LYS21      -0.1314
     10  N         18.0710   20.1600  113.8650 N.3    25  ARG25      -0.1245
     11  CA        18.7250   20.8610  114.9660 C.3    25  ARG25       0.1563
     12  C         19.8130   21.8210  114.4870 C.2    25  ARG25       0.2260
     13  O         19.9870   22.9000  115.0530 O.2    25  ARG25      -0.2867
     14  CB        19.3250   19.8620  115.9640 C.3    25  ARG25       0.0307
     15  CG        18.3010   19.0600  116.7550 C.3    25  ARG25       0.0489
     16  CD        18.9780   18.1240  117.7490 C.3    25  ARG25       0.2205
     17  NE        18.0180   17.3010  118.4810 N.pl3  25  ARG25      -0.0865
     18  CZ        18.3500   16.4490  119.4470 C.cat  25  ARG25       0.5346
     19  NH1       19.6200   16.3090  119.7990 N.pl3  25  ARG25       0.1354
     20  NH2       17.4140   15.7430  120.0660 N.pl3  25  ARG25       0.1354
     21  N          3.8620   10.0860  120.6000 N.3   143  LYS143     -0.1245
     22  CA         4.4680   11.3470  121.0120 C.3   143  LYS143      0.1561
     23  C          3.4220   12.3660  121.4420 C.2   143  LYS143      0.2260
     24  O          2.3010   12.3740  120.9350 O.2   143  LYS143     -0.2867
     25  CB         5.3200   11.9300  119.8830 C.3   143  LYS143      0.0271
     26  CG         6.6440   11.2170  119.6710 C.3   143  LYS143      0.0035
     27  CD         7.4950   11.9370  118.6380 C.3   143  LYS143      0.0206
     28  CE         8.8610   11.2890  118.5020 C.3   143  LYS143      0.1093
     29  NZ         9.5690   11.2120  119.8110 N.3   143  LYS143     -0.1314
     30  N         10.2560   16.0320  117.0510 N.3   214  GLU214     -0.1245
     31  CA        10.5580   15.3640  118.3130 C.3   214  GLU214      0.1567
     32  C          9.3830   15.3840  119.2810 C.2   214  GLU214      0.2260
     33  O          9.0960   14.3840  119.9380 O.2   214  GLU214     -0.2867
     34  CB        11.7760   16.0100  118.9740 C.3   214  GLU214      0.0388
     35  CG        12.9870   16.1260  118.0660 C.3   214  GLU214      0.1160
     36  CD        14.2250   16.5820  118.8110 C.2   214  GLU214      0.3649
     37  OE1       14.5190   16.0070  119.8840 O.co2 214  GLU214     -0.2457
     38  OE2       14.9030   17.5140  118.3240 O.co2 214  GLU214     -0.2457
     39  N          9.1340   17.6230  124.2560 N.3   217  LYS217     -0.1245
     40  CA        10.3730   17.5950  125.0260 C.3   217  LYS217      0.1561
     41  C         11.3040   18.7300  124.6200 C.2   217  LYS217      0.2260
     42  O         12.0200   19.2860  125.4580 O.2   217  LYS217     -0.2867
     43  CB        11.0820   16.2540  124.8650 C.3   217  LYS217      0.0271
     44  CG        12.2950   16.1040  125.7680 C.3   217  LYS217      0.0035
     45  CD        12.8080   14.6800  125.7750 C.3   217  LYS217      0.0206
     46  CE        14.3120   14.6470  125.9590 C.3   217  LYS217      0.1093
     47  NZ        14.8500   13.2580  125.9610 N.3   217  LYS217     -0.1314
     48  N         13.1860   21.4490  127.0550 N.3   221  ARG221     -0.1245
     49  CA        14.5900   21.8360  126.9830 C.3   221  ARG221      0.1563
     50  C         14.7700   23.3490  126.9470 C.2   221  ARG221      0.2260
     51  O         15.5700   23.9020  127.6970 O.2   221  ARG221     -0.2867
     52  CB        15.2530   21.2180  125.7500 C.3   221  ARG221      0.0307
     53  CG        15.2660   19.7010  125.7070 C.3   221  ARG221      0.0489
     54  CD        15.8220   19.2080  124.3680 C.3   221  ARG221      0.2205
     55  NE        16.1030   17.7770  124.3780 N.pl3 221  ARG221     -0.0865
     56  CZ        17.2010   17.2400  124.8970 C.cat 221  ARG221      0.5346
     57  NH1       18.1230   18.0170  125.4500 N.pl3 221  ARG221      0.1354
     58  NH2       17.3750   15.9270  124.8670 N.pl3 221  ARG221      0.1354
     59  N         21.7550   19.3740  126.8750 N.3   274  ILE274     -0.1231
     60  CA        21.2330   18.8600  128.1400 C.3   274  ILE274      0.1692
     61  C         20.9890   17.3510  128.1080 C.2   274  ILE274      0.2592
     62  O         20.2070   16.8510  127.2980 O.2   274  ILE274     -0.2718
     63  CB        19.9260   19.5780  128.5190 C.3   274  ILE274      0.0266
     64  CG1       20.2050   21.0600  128.7890 C.3   274  ILE274      0.0019
     65  CG2       19.2880   18.9270  129.7360 C.3   274  ILE274      0.0020
     66  CD1       18.9600   21.9000  128.9810 C.3   274  ILE274      0.0001
     67  N         21.6580   16.6380  129.0090 N.am  275  ARG275     -0.1966
     68  CA        21.6110   15.1810  129.0380 C.3   275  ARG275      0.1729
     69  C         20.7160   14.6520  130.1540 C.2   275  ARG275      0.2617
     70  O         20.3040   15.3980  131.0410 O.2   275  ARG275     -0.2715
     71  CB        23.0240   14.6180  129.2010 C.3   275  ARG275      0.0348
     72  CG        24.0510   15.1960  128.2270 C.3   275  ARG275      0.0492
     73  CD        24.1290   14.3980  126.9310 C.3   275  ARG275      0.2205
     74  NE        22.8620   14.3890  126.2040 N.pl3 275  ARG275     -0.0865
     75  CZ        22.5650   15.2130  125.2040 C.cat 275  ARG275      0.5346
     76  NH1       23.4470   16.1170  124.8000 N.pl3 275  ARG275      0.1354
     77  NH2       21.3860   15.1300  124.6050 N.pl3 275  ARG275      0.1354
     78  N         20.4140   13.3590  130.0980 N.am  276  GLY276     -0.1940
     79  CA        19.6890   12.6990  131.1660 C.3   276  GLY276      0.2014
     80  C         18.1810   12.7490  131.0340 C.2   276  GLY276      0.2639
     81  O         17.4680   12.0390  131.7440 O.2   276  GLY276     -0.2714
     82  N         17.6880   13.5870  130.1300 N.am  277  LEU277     -0.1963
     83  CA        16.2500   13.7130  129.9400 C.3   277  LEU277      0.1728
     84  C         15.6850   12.5120  129.1880 C.2   277  LEU277      0.2617
     85  O         15.3600   12.6040  128.0080 O.2   277  LEU277     -0.2715
     86  CB        15.9140   15.0090  129.2010 C.3   277  LEU277      0.0311
     87  CG        16.2130   16.3010  129.9640 C.3   277  LEU277      0.0022
     88  CD1       15.7580   17.5140  129.1680 C.3   277  LEU277      0.0001
     89  CD2       15.5480   16.2790  131.3230 C.3   277  LEU277      0.0001
     90  N         15.5770   11.3830  129.8790 N.am  278  SER278     -0.1936
     91  CA        14.9660   10.1930  129.3040 C.3   278  SER278      0.2055
     92  C         13.4520   10.3720  129.2680 C.2   278  SER278      0.2644
     93  O         12.8800   11.0300  130.1370 O.2   278  SER278     -0.2714
     94  CB        15.3470    8.9490  130.1070 C.3   278  SER278      0.2130
     95  OG        14.8400    7.7750  129.5020 O.3   278  SER278     -0.2179
     96  N         12.8060    9.7890  128.2640 N.am  279  THR279     -0.1936
     97  CA        11.3700    9.9770  128.0750 C.3   279  THR279      0.2028
     98  C         10.5600    9.2860  129.1740 C.2   279  THR279      0.2642
     99  O          9.4690    9.7330  129.5270 O.2   279  THR279     -0.2714
    100  CB        10.9170    9.4630  126.6950 C.3   279  THR279      0.1808
    101  OG1       11.7160   10.0730  125.6750 O.3   279  THR279     -0.2208
    102  CG2        9.4570    9.8070  126.4410 C.3   279  THR279      0.0379
    103  N         11.0920    8.2000  129.7210 N.am  280  GLN280     -0.1976
    104  CA        10.4180    7.5330  130.8280 C.3   280  GLN280      0.1601
    105  C         10.9000    8.0710  132.1770 C.2   280  GLN280      0.2287
    106  O         10.3250    7.7550  133.2180 O.2   280  GLN280     -0.2864
    107  CB        10.6110    6.0170  130.7640 C.3   280  GLN280      0.0394
    108  CG         9.9860    5.3220  129.5520 C.3   280  GLN280      0.0908
    109  CD         8.9940    6.1880  128.7910 C.2   280  GLN280      0.2608
    110  OE1        7.8410    6.3370  129.1950 O.2   280  GLN280     -0.2717
    111  NE2        9.4320    6.7310  127.6590 N.am  280  GLN280     -0.0878
@<TRIPOS>BOND
     1     1     2    1
     2    10    11    1
     3     2     3    1
     4     2     5    1
     5     3     4    2
     6    12    11    1
     7    12    13    2
     8    11    14    1
     9     5     6    1
    10    14    15    1
    11     6     7    1
    12    15    16    1
    13    30    31    1
    14     7     8    1
    15     8     9    1
    16    16    17    1
    17    35    36    1
    18    35    34    1
    19    31    34    1
    20    31    32    1
    21    38    36   ar
    22    17    18    2
    23    28    27    1
    24    28    29    1
    25    27    26    1
    26    36    37   ar
    27    32    33    2
    28    18    19    1
    29    18    20    1
    30    26    25    1
    31    25    22    1
    32    21    22    1
    33    24    23    2
    34    22    23    1
    35    39    40    1
    36    54    55    1
    37    54    53    1
    38    55    56    2
    39    77    75    1
    40    41    40    1
    41    41    42    2
    42    76    75    1
    43    43    40    1
    44    43    44    1
    45    58    56    1
    46    56    57    1
    47    75    74    2
    48   101   100    1
    49    53    52    1
    50    52    49    1
    51    44    45    1
    52    45    46    1
    53    46    47    1
    54    74    73    1
    55   102   100    1
    56   100    97    1
    57    59    60    1
    58    73    72    1
    59    50    49    1
    60    50    51    2
    61    49    48    1
    62    62    61    2
    63   111   109   am
    64    85    84    2
    65    97    96    1
    66    97    98    1
    67    61    60    1
    68    61    67   am
    69    60    63    1
    70    72    71    1
    71    96    92   am
    72    63    64    1
    73    63    65    1
    74    64    66    1
    75   109   110    2
    76   109   108    1
    77    67    68    1
    78    68    71    1
    79    68    69    1
    80    88    87    1
    81    98    99    2
    82    98   103   am
    83    84    90   am
    84    84    83    1
    85    86    83    1
    86    86    87    1
    87    92    91    1
    88    92    93    2
    89    91    90    1
    90    91    94    1
    91    95    94    1
    92   108   107    1
    93   103   104    1
    94    83    82    1
    95    87    89    1
    96    78    69   am
    97    78    79    1
    98    82    80   am
    99    69    70    2
   100   107   104    1
   101   104   105    1
   102    80    79    1
   103    80    81    2
   104   105   106    2
