@<TRIPOS>MOLECULE
tmp/5hjrC05.pdb
 97 94 0 0 0
SMALL
GASTEIGER

@<TRIPOS>ATOM
      1  N         -2.1120   50.0930   16.7910 N.3   295  THR295     -0.1218
      2  CA        -2.0870   49.7800   18.2110 C.3   295  THR295      0.1862
      3  C         -1.3510   48.4820   18.4720 C.2   295  THR295      0.2287
      4  O         -1.0700   47.7070   17.5610 O.2   295  THR295     -0.2866
      5  CB        -3.5150   49.6560   18.7170 C.3   295  THR295      0.1770
      6  OG1       -4.1570   48.5660   18.0490 O.3   295  THR295     -0.2211
      7  CG2       -4.3060   50.9390   18.5490 C.3   295  THR295      0.0375
      8  N         -5.8680   44.3870   26.0990 N.3   626  TYR626     -0.1241
      9  CA        -7.0320   44.5660   25.2420 C.3   626  TYR626      0.1605
     10  C         -7.3350   46.0650   25.0990 C.2   626  TYR626      0.2264
     11  O         -7.5500   46.5300   23.9930 O.2   626  TYR626     -0.2867
     12  CB        -8.2400   43.7940   25.7690 C.3   626  TYR626      0.0534
     13  CG        -9.4040   43.8360   24.8060 C.ar  626  TYR626     -0.0201
     14  CD1       -9.3200   43.2260   23.5600 C.ar  626  TYR626     -0.0009
     15  CD2      -10.5570   44.5560   25.1040 C.ar  626  TYR626     -0.0009
     16  CE1      -10.3720   43.2930   22.6480 C.ar  626  TYR626      0.0417
     17  CE2      -11.6060   44.6480   24.1900 C.ar  626  TYR626      0.0417
     18  CZ       -11.5130   44.0050   22.9680 C.ar  626  TYR626      0.1957
     19  OH       -12.5550   44.0590   22.0720 O.3   626  TYR626     -0.2866
     20  N         -4.7870   47.4590   22.7280 N.3   629  HIS629     -0.1226
     21  CA        -5.1030   47.0150   21.3800 C.3   629  HIS629      0.1752
     22  C         -6.2650   47.8170   20.7760 C.2   629  HIS629      0.2595
     23  O         -6.2330   48.1420   19.5860 O.2   629  HIS629     -0.2718
     24  CB        -5.4570   45.5140   21.4050 C.3   629  HIS629      0.0759
     25  CG        -5.8410   44.9340   20.0920 C.ar  629  HIS629      0.0818
     26  ND1       -4.9610   44.9220   19.0350 N.ar  629  HIS629     -0.2268
     27  CD2       -6.9690   44.2750   19.7390 C.ar  629  HIS629      0.1154
     28  CE1       -5.5880   44.3000   18.0500 C.ar  629  HIS629      0.1986
     29  NE2       -6.8040   43.8820   18.4380 N.ar  629  HIS629     -0.2212
     30  N         -7.2810   48.1300   21.5860 N.am  630  LYS630     -0.1980
     31  CA        -8.4500   48.8580   21.1200 C.3   630  LYS630      0.1596
     32  C         -8.2860   50.3600   21.0670 C.2   630  LYS630      0.2287
     33  O         -8.8040   50.9780   20.1490 O.2   630  LYS630     -0.2864
     34  CB        -9.6830   48.5140   21.9730 C.3   630  LYS630      0.0298
     35  CG       -10.1340   47.0410   21.9030 C.3   630  LYS630      0.0038
     36  CD       -10.5140   46.5330   20.5160 C.3   630  LYS630      0.0206
     37  CE       -11.7810   47.1520   19.9940 C.3   630  LYS630      0.1093
     38  NZ       -12.1040   46.6320   18.6590 N.3   630  LYS630     -0.1314
     39  N        -11.9160   36.5400   18.5830 N.3   764  TYR764     -0.1227
     40  CA       -12.5060   37.7400   19.1860 C.3   764  TYR764      0.1736
     41  C        -12.8590   38.7860   18.1090 C.2   764  TYR764      0.2595
     42  O        -13.8000   39.5290   18.2830 O.2   764  TYR764     -0.2718
     43  CB       -11.5620   38.3550   20.2500 C.3   764  TYR764      0.0548
     44  CG       -10.3480   39.0820   19.6910 C.ar  764  TYR764     -0.0200
     45  CD1       -9.2570   38.3800   19.1940 C.ar  764  TYR764     -0.0009
     46  CD2      -10.3030   40.4730   19.6420 C.ar  764  TYR764     -0.0009
     47  CE1       -8.1790   39.0380   18.6090 C.ar  764  TYR764      0.0417
     48  CE2       -9.2140   41.1440   19.0840 C.ar  764  TYR764      0.0417
     49  CZ        -8.1630   40.4230   18.5410 C.ar  764  TYR764      0.1957
     50  OH        -7.0550   41.0400   17.9760 O.3   764  TYR764     -0.2866
     51  N        -12.0950   38.8420   17.0110 N.am  765  GLN765     -0.1979
     52  CA       -12.3000   39.8120   15.9660 C.3   765  GLN765      0.1601
     53  C        -13.1050   39.2400   14.7690 C.2   765  GLN765      0.2287
     54  O        -13.9680   39.9340   14.2510 O.2   765  GLN765     -0.2864
     55  CB       -10.9570   40.4530   15.5290 C.3   765  GLN765      0.0394
     56  CG        -9.9940   39.6270   14.6850 C.3   765  GLN765      0.0908
     57  CD        -9.0130   40.5600   14.0250 C.2   765  GLN765      0.2608
     58  OE1       -8.5580   41.5450   14.6300 O.2   765  GLN765     -0.2717
     59  NE2       -8.6760   40.2840   12.7660 N.am  765  GLN765     -0.0878
     60  N        -16.4180   37.6320   16.9370 N.3   768  HIS768     -0.1241
     61  CA       -16.8900   38.3540   18.1250 C.3   768  HIS768      0.1621
     62  C        -17.0650   37.3900   19.3040 C.2   768  HIS768      0.2264
     63  O        -17.9900   37.5260   20.0990 O.2   768  HIS768     -0.2867
     64  CB       -18.1470   39.1700   17.8220 C.3   768  HIS768      0.0745
     65  CG       -17.9040   40.3650   16.9520 C.ar  768  HIS768      0.0817
     66  ND1      -18.9530   41.0380   16.3510 N.ar  768  HIS768     -0.2268
     67  CD2      -16.7570   41.0180   16.6680 C.ar  768  HIS768      0.1154
     68  CE1      -18.4090   42.0500   15.6990 C.ar  768  HIS768      0.1986
     69  NE2      -17.0940   42.0900   15.8780 N.ar  768  HIS768     -0.2212
     70  N        -15.7830   36.7180   22.4970 N.3   770  PHE770     -0.1241
     71  CA       -15.0880   37.2970   23.6230 C.3   770  PHE770      0.1605
     72  C        -16.1230   37.8530   24.5420 C.2   770  PHE770      0.2264
     73  O        -17.2700   37.9320   24.1350 O.2   770  PHE770     -0.2867
     74  CB       -14.1590   38.4460   23.1640 C.3   770  PHE770      0.0534
     75  CG       -14.8720   39.6780   22.6590 C.ar  770  PHE770     -0.0203
     76  CD1      -15.2320   39.7920   21.3280 C.ar  770  PHE770     -0.0042
     77  CD2      -15.1210   40.7510   23.5040 C.ar  770  PHE770     -0.0042
     78  CE1      -15.9310   40.9070   20.8750 C.ar  770  PHE770     -0.0003
     79  CE2      -15.7720   41.8850   23.0480 C.ar  770  PHE770     -0.0003
     80  CZ       -16.1840   41.9560   21.7330 C.ar  770  PHE770     -0.0000
     81  N        -19.4490   45.5900   26.0990 N.3   788  ASP788     -0.1239
     82  CA       -19.5060   45.4480   24.6330 C.3   788  ASP788      0.1674
     83  C        -20.4680   44.3130   24.2950 C.2   788  ASP788      0.2266
     84  O        -20.0660   43.1460   24.2670 O.2   788  ASP788     -0.2867
     85  CB       -18.1390   45.2290   23.9610 C.3   788  ASP788      0.1410
     86  CG       -18.2360   45.3160   22.4350 C.2   788  ASP788      0.3668
     87  OD1      -19.3730   45.3570   21.9130 O.co2 788  ASP788     -0.2456
     88  OD2      -17.1780   45.3910   21.7690 O.co2 788  ASP788     -0.2456
     89  N        -21.6420   43.1360   21.5870 N.3   790  LYS790     -0.1245
     90  CA       -21.3260   42.3390   20.4030 C.3   790  LYS790      0.1561
     91  C        -20.5770   41.0450   20.7950 C.2   790  LYS790      0.2260
     92  O        -20.6220   40.0600   20.0590 O.2   790  LYS790     -0.2867
     93  CB       -20.4610   43.1400   19.4230 C.3   790  LYS790      0.0271
     94  CG       -21.2100   44.2900   18.7920 C.3   790  LYS790      0.0035
     95  CD       -20.3080   45.1820   17.9450 C.3   790  LYS790      0.0206
     96  CE       -19.3640   46.0780   18.7250 C.3   790  LYS790      0.1093
     97  NZ       -20.0560   46.9240   19.7470 N.3   790  LYS790     -0.1314
@<TRIPOS>BOND
     1    59    57   am
     2    57    58    2
     3    57    56    1
     4    54    53    2
     5    56    55    1
     6    53    52    1
     7    55    52    1
     8    68    69   ar
     9    68    66   ar
    10    69    67   ar
    11    52    51    1
    12    66    65   ar
    13    67    65   ar
    14     1     2    1
    15    60    61    1
    16    65    64    1
    17    51    41   am
    18     4     3    2
    19    64    61    1
    20    95    96    1
    21    95    94    1
    22    50    49    1
    23     6     5    1
    24    28    29   ar
    25    28    26   ar
    26    41    42    2
    27    41    40    1
    28    61    62    1
    29     2     3    1
    30     2     5    1
    31    29    27   ar
    32    49    47   ar
    33    49    48   ar
    34     7     5    1
    35    39    40    1
    36    47    45   ar
    37    38    37    1
    38    96    97    1
    39    94    93    1
    40    26    25   ar
    41    48    46   ar
    42    40    43    1
    43    45    44   ar
    44    62    63    2
    45    93    90    1
    46    23    22    2
    47    46    44   ar
    48    44    43    1
    49    27    25   ar
    50    37    36    1
    51    92    91    2
    52    25    24    1
    53    33    32    2
    54    90    91    1
    55    90    89    1
    56    36    35    1
    57    22    21    1
    58    22    30   am
    59    78    76   ar
    60    78    80   ar
    61    32    31    1
    62    31    30    1
    63    31    34    1
    64    76    75   ar
    65    21    24    1
    66    21    20    1
    67    80    79   ar
    68    88    86   ar
    69    35    34    1
    70    87    86   ar
    71    19    18    1
    72    86    85    1
    73    70    71    1
    74    16    18   ar
    75    16    14   ar
    76    75    74    1
    77    75    77   ar
    78    18    17   ar
    79    79    77   ar
    80    74    71    1
    81    14    13   ar
    82    71    72    1
    83    85    82    1
    84    11    10    2
    85    73    72    2
    86    17    15   ar
    87    84    83    2
    88    83    82    1
    89    82    81    1
    90    13    15   ar
    91    13    12    1
    92    10     9    1
    93     9    12    1
    94     9     8    1
