@<TRIPOS>MOLECULE
tmp/5hjrC03.pdb
 152 149 0 0 0
SMALL
GASTEIGER

@<TRIPOS>ATOM
      1  N         21.3240   31.4710   27.1120 N.3   311  TRP311     -0.1241
      2  CA        22.1800   31.1060   26.0150 C.3   311  TRP311      0.1605
      3  C         23.1210   30.1020   26.6790 C.2   311  TRP311      0.2264
      4  O         24.0180   30.5500   27.3580 O.2   311  TRP311     -0.2867
      5  CB        22.9420   32.3520   25.5090 C.3   311  TRP311      0.0550
      6  CG        23.8910   32.1030   24.3560 C.ar  311  TRP311      0.0003
      7  CD1       23.9720   30.9870   23.5640 C.ar  311  TRP311      0.0946
      8  CD2       24.8270   33.0290   23.8400 C.ar  311  TRP311      0.0152
      9  NE1       24.9990   31.1220   22.6770 N.ar  311  TRP311     -0.2442
     10  CE2       25.5090   32.3930   22.7870 C.ar  311  TRP311      0.0810
     11  CE3       25.2110   34.3210   24.2100 C.ar  311  TRP311      0.0012
     12  CZ2       26.5840   32.9970   22.1310 C.ar  311  TRP311      0.0191
     13  CZ3       26.2710   34.9190   23.5570 C.ar  311  TRP311      0.0001
     14  CH2       26.9200   34.2730   22.5050 C.ar  311  TRP311      0.0015
     15  N         18.1410   29.3490   22.3930 N.3   339  ASP339     -0.1225
     16  CA        19.0270   30.3330   21.7620 C.3   339  ASP339      0.1805
     17  C         19.7970   29.6710   20.6230 C.2   339  ASP339      0.2597
     18  O         19.4960   28.5190   20.2460 O.2   339  ASP339     -0.2718
     19  CB        19.8990   30.9960   22.8380 C.3   339  ASP339      0.1424
     20  CG        20.3020   32.4160   22.5720 C.2   339  ASP339      0.3668
     21  OD1       20.6060   32.7410   21.3970 O.co2 339  ASP339     -0.2456
     22  OD2       20.4220   33.1730   23.5360 O.co2 339  ASP339     -0.2456
     23  N         20.7480   30.4070   20.0340 N.am  340  ILE340     -0.1980
     24  CA        21.4780   30.0210   18.7950 C.3   340  ILE340      0.1595
     25  C         22.1560   28.6640   18.7930 C.2   340  ILE340      0.2287
     26  O         22.3320   28.1170   17.7010 O.2   340  ILE340     -0.2864
     27  CB        22.4730   31.0940   18.3300 C.3   340  ILE340      0.0276
     28  CG1       23.5100   31.4480   19.4200 C.3   340  ILE340      0.0022
     29  CG2       21.7010   32.3480   17.8540 C.3   340  ILE340      0.0022
     30  CD1       24.5680   32.3960   18.9700 C.3   340  ILE340      0.0001
     31  N         15.0570   30.7830   18.4430 N.3   376  ILE376     -0.1245
     32  CA        15.6520   31.9510   17.8220 C.3   376  ILE376      0.1561
     33  C         15.8010   31.7390   16.3050 C.2   376  ILE376      0.2260
     34  O         16.1010   30.6340   15.8450 O.2   376  ILE376     -0.2867
     35  CB        16.9840   32.3370   18.5110 C.3   376  ILE376      0.0252
     36  CG1       17.4060   33.7730   18.1500 C.3   376  ILE376      0.0019
     37  CG2       18.1020   31.3430   18.2020 C.3   376  ILE376      0.0019
     38  CD1       18.4740   34.3190   19.0470 C.3   376  ILE376      0.0001
     39  N         17.3770   34.4240   13.4300 N.3   378  ASP378     -0.1239
     40  CA        17.9540   35.7430   13.1210 C.3   378  ASP378      0.1674
     41  C         17.9590   35.9950   11.6000 C.2   378  ASP378      0.2266
     42  O         17.9840   35.0340   10.8180 O.2   378  ASP378     -0.2867
     43  CB        19.3930   35.8380   13.6770 C.3   378  ASP378      0.1410
     44  CG        19.5160   35.8090   15.1830 C.2   378  ASP378      0.3668
     45  OD1       18.4760   35.9240   15.8660 O.co2 378  ASP378     -0.2456
     46  OD2       20.6490   35.6490   15.6750 O.co2 378  ASP378     -0.2456
     47  N         27.1750   35.3470   13.6580 N.3   413  TRP413     -0.1241
     48  CA        27.2880   34.0960   14.4210 C.3   413  TRP413      0.1605
     49  C         27.6660   32.8420   13.5840 C.2   413  TRP413      0.2264
     50  O         28.4920   32.0540   14.0220 O.2   413  TRP413     -0.2867
     51  CB        26.0140   33.8050   15.2420 C.3   413  TRP413      0.0550
     52  CG        25.6200   34.8410   16.2520 C.ar  413  TRP413      0.0003
     53  CD1       24.3900   35.4080   16.3840 C.ar  413  TRP413      0.0946
     54  CD2       26.3830   35.2730   17.3770 C.ar  413  TRP413      0.0152
     55  NE1       24.3760   36.2590   17.4530 N.ar  413  TRP413     -0.2442
     56  CE2       25.5750   36.1780   18.1020 C.ar  413  TRP413      0.0810
     57  CE3       27.7170   35.0620   17.7980 C.ar  413  TRP413      0.0012
     58  CZ2       26.0220   36.8190   19.2650 C.ar  413  TRP413      0.0191
     59  CZ3       28.1810   35.7520   18.9020 C.ar  413  TRP413      0.0001
     60  CH2       27.3300   36.5970   19.6440 C.ar  413  TRP413      0.0015
     61  N         11.8080   34.1820   18.1330 N.3   450  TRP450     -0.1241
     62  CA        12.5690   35.2960   18.6360 C.3   450  TRP450      0.1605
     63  C         13.4640   35.7710   17.4920 C.2   450  TRP450      0.2264
     64  O         14.2470   34.9740   16.9670 O.2   450  TRP450     -0.2867
     65  CB        13.3810   34.7870   19.8630 C.3   450  TRP450      0.0550
     66  CG        14.4440   35.7070   20.3720 C.ar  450  TRP450      0.0003
     67  CD1       14.4700   37.0670   20.2690 C.ar  450  TRP450      0.0946
     68  CD2       15.5310   35.3470   21.2190 C.ar  450  TRP450      0.0152
     69  NE1       15.5450   37.5700   20.9550 N.ar  450  TRP450     -0.2442
     70  CE2       16.2400   36.5320   21.5140 C.ar  450  TRP450      0.0810
     71  CE3       15.9650   34.1290   21.7930 C.ar  450  TRP450      0.0012
     72  CZ2       17.3520   36.5470   22.3590 C.ar  450  TRP450      0.0191
     73  CZ3       17.0570   34.1460   22.6400 C.ar  450  TRP450      0.0001
     74  CH2       17.7620   35.3390   22.8860 C.ar  450  TRP450      0.0015
     75  N         16.4640   38.2100   16.7170 N.3   452  ASP452     -0.1225
     76  CA        17.5920   38.9500   17.2970 C.3   452  ASP452      0.1805
     77  C         18.5550   39.3660   16.1850 C.2   452  ASP452      0.2597
     78  O         18.4730   38.8490   15.0720 O.2   452  ASP452     -0.2718
     79  CB        18.2940   38.0020   18.2720 C.3   452  ASP452      0.1424
     80  CG        19.3200   38.6050   19.1890 C.2   452  ASP452      0.3668
     81  OD1       19.3190   39.8670   19.3530 O.co2 452  ASP452     -0.2456
     82  OD2       20.1270   37.8230   19.7610 O.co2 452  ASP452     -0.2456
     83  N         19.4480   40.3320   16.4730 N.am  453  MET453     -0.1979
     84  CA        20.4930   40.8020   15.5500 C.3   453  MET453      0.1605
     85  C         19.8580   41.4410   14.3110 C.2   453  MET453      0.2287
     86  O         20.4700   41.4670   13.2500 O.2   453  MET453     -0.2864
     87  CB        21.4180   39.6320   15.1250 C.3   453  MET453      0.0413
     88  CG        21.8890   38.6920   16.2660 C.3   453  MET453      0.0598
     89  SD        22.8480   39.5450   17.5160 S.3   453  MET453     -0.1393
     90  CE        24.3420   39.5580   16.7400 C.3   453  MET453      0.0692
     91  N         14.5470   42.5340   18.7570 N.3   512  ARG512     -0.1245
     92  CA        15.4740   43.4610   19.4040 C.3   512  ARG512      0.1563
     93  C         15.3680   44.8730   18.7780 C.2   512  ARG512      0.2260
     94  O         15.2250   45.8680   19.4910 O.2   512  ARG512     -0.2867
     95  CB        16.9040   42.9460   19.3210 C.3   512  ARG512      0.0307
     96  CG        17.7990   43.6310   20.3530 C.3   512  ARG512      0.0489
     97  CD        19.0970   42.9420   20.5640 C.3   512  ARG512      0.2205
     98  NE        19.9700   43.0590   19.3950 N.pl3 512  ARG512     -0.0865
     99  CZ        21.2250   42.6110   19.3220 C.cat 512  ARG512      0.5346
    100  NH1       21.7750   41.9790   20.3430 N.pl3 512  ARG512      0.1354
    101  NH2       21.9300   42.7910   18.2250 N.pl3 512  ARG512      0.1354
    102  N         12.4220   43.9810   23.7680 N.3   525  TRP525     -0.1241
    103  CA        13.1240   44.0100   25.0420 C.3   525  TRP525      0.1605
    104  C         14.3520   44.8940   24.8930 C.2   525  TRP525      0.2264
    105  O         14.7240   45.2300   23.7740 O.2   525  TRP525     -0.2867
    106  CB        13.4170   42.6090   25.6050 C.3   525  TRP525      0.0550
    107  CG        14.7530   42.0420   25.2730 C.ar  525  TRP525      0.0003
    108  CD1       15.7870   41.8570   26.1360 C.ar  525  TRP525      0.0946
    109  CD2       15.2110   41.5730   23.9970 C.ar  525  TRP525      0.0152
    110  NE1       16.8580   41.2970   25.4850 N.ar  525  TRP525     -0.2442
    111  CE2       16.5220   41.0780   24.1800 C.ar  525  TRP525      0.0810
    112  CE3       14.6310   41.4810   22.7230 C.ar  525  TRP525      0.0012
    113  CZ2       17.2920   40.5940   23.1270 C.ar  525  TRP525      0.0191
    114  CZ3       15.3930   40.9450   21.6890 C.ar  525  TRP525      0.0001
    115  CH2       16.7030   40.5170   21.9020 C.ar  525  TRP525      0.0015
    116  N         20.9740   43.5060   25.5500 N.3   528  ASP528     -0.1239
    117  CA        22.0250   42.9460   26.3910 C.3   528  ASP528      0.1674
    118  C         22.4290   43.8570   27.5280 C.2   528  ASP528      0.2266
    119  O         23.4190   44.5970   27.4810 O.2   528  ASP528     -0.2867
    120  CB        23.2380   42.5340   25.5330 C.3   528  ASP528      0.1410
    121  CG        22.9250   41.5090   24.4610 C.2   528  ASP528      0.3668
    122  OD1       21.8530   40.8200   24.5800 O.co2 528  ASP528     -0.2456
    123  OD2       23.7470   41.3730   23.5200 O.co2 528  ASP528     -0.2456
    124  N         15.9460   41.8110   30.4610 N.3   557  ASP557     -0.1239
    125  CA        16.3270   40.4590   30.9090 C.3   557  ASP557      0.1674
    126  C         16.4010   40.3580   32.4220 C.2   557  ASP557      0.2266
    127  O         17.1460   41.0870   33.0490 O.2   557  ASP557     -0.2867
    128  CB        17.6720   40.0350   30.3280 C.3   557  ASP557      0.1410
    129  CG        17.6960   39.8150   28.8260 C.2   557  ASP557      0.3668
    130  OD1       16.5920   39.6850   28.2170 O.co2 557  ASP557     -0.2456
    131  OD2       18.8020   39.6560   28.2780 O.co2 557  ASP557     -0.2456
    132  N         21.7090   40.2050   31.4870 N.3   561  PHE561     -0.1241
    133  CA        22.2800   39.2810   30.5020 C.3   561  PHE561      0.1605
    134  C         23.7600   38.9610   30.8190 C.2   561  PHE561      0.2264
    135  O         24.1470   37.8030   31.0080 O.2   561  PHE561     -0.2867
    136  CB        22.1450   39.8840   29.1000 C.3   561  PHE561      0.0534
    137  CG        22.7540   39.0520   28.0020 C.ar  561  PHE561     -0.0203
    138  CD1       22.2200   37.8210   27.6690 C.ar  561  PHE561     -0.0042
    139  CD2       23.8240   39.5320   27.2620 C.ar  561  PHE561     -0.0042
    140  CE1       22.7120   37.1030   26.5950 C.ar  561  PHE561     -0.0003
    141  CE2       24.3380   38.8030   26.2050 C.ar  561  PHE561     -0.0003
    142  CZ        23.7830   37.5870   25.8790 C.ar  561  PHE561     -0.0000
    143  N         16.8650   35.7510   31.2030 N.3   586  HIS586     -0.1241
    144  CA        17.8040   35.3510   30.1430 C.3   586  HIS586      0.1621
    145  C         19.2270   35.6660   30.6260 C.2   586  HIS586      0.2264
    146  O         19.4050   36.5180   31.4940 O.2   586  HIS586     -0.2867
    147  CB        17.4660   36.1000   28.8480 C.3   586  HIS586      0.0745
    148  CG        18.2890   35.6820   27.6740 C.ar  586  HIS586      0.0817
    149  ND1       18.3210   34.3660   27.2460 N.ar  586  HIS586     -0.2268
    150  CD2       19.0930   36.4190   26.8870 C.ar  586  HIS586      0.1154
    151  CE1       19.1360   34.3520   26.2230 C.ar  586  HIS586      0.1986
    152  NE2       19.5980   35.5770   25.9570 N.ar  586  HIS586     -0.2212
@<TRIPOS>BOND
     1    42    41    2
     2    41    40    1
     3    40    39    1
     4    40    43    1
     5    86    85    2
     6    49    50    2
     7    49    48    1
     8    47    48    1
     9    43    44    1
    10    85    84    1
    11    48    51    1
    12    78    77    2
    13    87    84    1
    14    87    88    1
    15    44    46   ar
    16    44    45   ar
    17    51    52    1
    18    84    83    1
    19    34    33    2
    20    77    83   am
    21    77    76    1
    22    52    53   ar
    23    52    54   ar
    24    88    89    1
    25    33    32    1
    26    53    55   ar
    27    75    76    1
    28    90    89    1
    29    64    63    2
    30    76    79    1
    31    54    57   ar
    32    54    56   ar
    33    55    56   ar
    34    63    62    1
    35    26    25    2
    36    57    59   ar
    37    32    31    1
    38    32    35    1
    39    29    27    1
    40    56    58   ar
    41    61    62    1
    42    36    35    1
    43    36    38    1
    44    37    35    1
    45   101    99    1
    46    79    80    1
    47    27    24    1
    48    27    28    1
    49    62    65    1
    50    91    92    1
    51    93    92    1
    52    93    94    2
    53    25    24    1
    54    24    23    1
    55    59    60   ar
    56    30    28    1
    57    80    81   ar
    58    80    82   ar
    59    58    60   ar
    60    95    92    1
    61    95    96    1
    62    99    98    2
    63    99   100    1
    64    98    97    1
    65    65    66    1
    66    23    17   am
    67    18    17    2
    68    67    66   ar
    69    67    69   ar
    70    96    97    1
    71    66    68   ar
    72    17    16    1
    73    69    70   ar
    74    68    70   ar
    75    68    71   ar
    76    21    20   ar
    77    70    72   ar
    78   114   115   ar
    79   114   112   ar
    80    16    15    1
    81    16    19    1
    82    71    73   ar
    83   115   113   ar
    84    12    14   ar
    85    12    10   ar
    86    72    74   ar
    87    14    13   ar
    88    20    19    1
    89    20    22   ar
    90    73    74   ar
    91     9    10   ar
    92     9     7   ar
    93   112   109   ar
    94    10     8   ar
    95   113   111   ar
    96   123   121   ar
    97    13    11   ar
    98     7     6   ar
    99   102   103    1
   100   105   104    2
   101     8    11   ar
   102     8     6   ar
   103   109   111   ar
   104   109   107   ar
   105   111   110   ar
   106     6     5    1
   107   121   122   ar
   108   121   120    1
   109   104   103    1
   110   103   106    1
   111   107   106    1
   112   107   108   ar
   113   110   108   ar
   114     5     2    1
   115   120   117    1
   116   116   117    1
   117   142   141   ar
   118   142   140   ar
   119   152   151   ar
   120   152   150   ar
   121     2     3    1
   122     2     1    1
   123   141   139   ar
   124   151   149   ar
   125   117   118    1
   126   140   138   ar
   127     3     4    2
   128   150   148   ar
   129   149   148   ar
   130   139   137   ar
   131   119   118    2
   132   138   137   ar
   133   148   147    1
   134   137   136    1
   135   130   129   ar
   136   131   129   ar
   137   129   128    1
   138   147   144    1
   139   136   133    1
   140   144   145    1
   141   144   143    1
   142   128   125    1
   143   124   125    1
   144   133   134    1
   145   133   132    1
   146   145   146    2
   147   134   135    2
   148   125   126    1
   149   126   127    2
