@<TRIPOS>MOLECULE
tmp/5hjsA00.pdb
 245 233 0 0 0
SMALL
GASTEIGER

@<TRIPOS>ATOM
      1  N         26.7430   -6.5430   14.9540 N.3    34  PHE34      -0.1241
      2  CA        27.2780   -7.2790   16.1010 C.3    34  PHE34       0.1605
      3  C         26.3180   -7.1000   17.2830 C.2    34  PHE34       0.2264
      4  O         25.9740   -8.0880   17.9300 O.2    34  PHE34      -0.2867
      5  CB        28.6910   -6.7920   16.4570 C.3    34  PHE34       0.0534
      6  CG        29.3030   -7.4610   17.6670 C.ar   34  PHE34      -0.0203
      7  CD1       30.0110   -8.6490   17.5410 C.ar   34  PHE34      -0.0042
      8  CD2       29.1730   -6.9000   18.9300 C.ar   34  PHE34      -0.0042
      9  CE1       30.5830   -9.2610   18.6600 C.ar   34  PHE34      -0.0003
     10  CE2       29.7350   -7.5170   20.0500 C.ar   34  PHE34      -0.0003
     11  CZ        30.4410   -8.6900   19.9080 C.ar   34  PHE34      -0.0000
     12  N         22.9630   -9.1300   16.9030 N.3    37  PHE37      -0.1227
     13  CA        23.1690  -10.5550   17.2370 C.3    37  PHE37       0.1736
     14  C         23.2930  -10.8100   18.7450 C.2    37  PHE37       0.2596
     15  O         22.7130  -11.7800   19.2330 O.2    37  PHE37      -0.2718
     16  CB        24.3610  -11.1400   16.4560 C.3    37  PHE37       0.0547
     17  CG        23.9880  -11.8160   15.1500 C.ar   37  PHE37      -0.0202
     18  CD1       23.1810  -11.1730   14.2160 C.ar   37  PHE37      -0.0042
     19  CD2       24.4680  -13.0850   14.8430 C.ar   37  PHE37      -0.0042
     20  CE1       22.8380  -11.7980   13.0080 C.ar   37  PHE37      -0.0003
     21  CE2       24.1230  -13.7090   13.6380 C.ar   37  PHE37      -0.0003
     22  CZ        23.3160  -13.0590   12.7250 C.ar   37  PHE37      -0.0000
     23  N         24.0190   -9.9380   19.4750 N.am   38  THR38      -0.1953
     24  CA        24.1810  -10.0250   20.9310 C.3    38  THR38       0.1897
     25  C         22.8290   -9.8400   21.6330 C.2    38  THR38       0.2313
     26  O         22.5700  -10.4890   22.6460 O.2    38  THR38      -0.2863
     27  CB        25.2060   -9.0070   21.4800 C.3    38  THR38       0.1794
     28  OG1       24.7850   -7.6860   21.1790 O.3    38  THR38      -0.2208
     29  CG2       26.6180   -9.2450   20.9990 C.3    38  THR38       0.0378
     30  N         19.8080  -10.5280   20.1980 N.3    40  LEU40      -0.1231
     31  CA        18.9740  -11.7130   19.9080 C.3    40  LEU40       0.1693
     32  C         19.3650  -12.8510   20.8760 C.2    40  LEU40       0.2591
     33  O         18.4880  -13.5780   21.3550 O.2    40  LEU40      -0.2718
     34  CB        19.1440  -12.1910   18.4480 C.3    40  LEU40       0.0284
     35  CG        18.6520  -11.2560   17.3430 C.3    40  LEU40       0.0019
     36  CD1       18.9730  -11.8290   15.9780 C.3    40  LEU40       0.0001
     37  CD2       17.1710  -10.9770   17.4570 C.3    40  LEU40       0.0001
     38  N         20.6770  -12.9690   21.1680 N.am   41  ALA41      -0.1980
     39  CA        21.2470  -13.9660   22.0870 C.3    41  ALA41       0.1597
     40  C         20.7430  -13.7750   23.5050 C.2    41  ALA41       0.2287
     41  O         20.4450  -14.7590   24.1780 O.2    41  ALA41      -0.2864
     42  CB        22.7520  -13.8890   22.0660 C.3    41  ALA41       0.0319
     43  N         17.8350  -12.2840   24.3520 N.3    43  VAL43      -0.1231
     44  CA        16.4190  -12.6460   24.3380 C.3    43  VAL43       0.1692
     45  C         16.3240  -14.1800   24.4670 C.2    43  VAL43       0.2592
     46  O         15.4990  -14.6870   25.2140 O.2    43  VAL43      -0.2718
     47  CB        15.7120  -12.1240   23.0460 C.3    43  VAL43       0.0266
     48  CG1       14.3060  -12.7030   22.8910 C.3    43  VAL43       0.0020
     49  CG2       15.6650  -10.6010   23.0280 C.3    43  VAL43       0.0020
     50  N         17.2000  -14.8920   23.7550 N.am   44  SER44      -0.1952
     51  CA        17.2630  -16.3430   23.7780 C.3    44  SER44       0.1924
     52  C         17.6020  -16.8330   25.2020 C.2    44  SER44       0.2314
     53  O         16.8720  -17.6790   25.7070 O.2    44  SER44      -0.2863
     54  CB        18.2660  -16.8540   22.7500 C.3    44  SER44       0.2116
     55  OG        18.0960  -18.2520   22.5760 O.3    44  SER44      -0.2180
     56  N         14.6130  -16.5340   27.5030 N.3    47  GLU47      -0.1245
     57  CA        13.5840  -17.5550   27.2260 C.3    47  GLU47       0.1567
     58  C         14.0100  -18.9150   27.7810 C.2    47  GLU47       0.2260
     59  O         13.1650  -19.6370   28.2830 O.2    47  GLU47      -0.2867
     60  CB        13.3210  -17.6690   25.7170 C.3    47  GLU47       0.0388
     61  CG        12.5600  -16.4750   25.1620 C.3    47  GLU47       0.1160
     62  CD        11.7130  -16.7250   23.9280 C.2    47  GLU47       0.3649
     63  OE1       11.5270  -17.9040   23.5440 O.co2  47  GLU47      -0.2457
     64  OE2       11.2330  -15.7280   23.3420 O.co2  47  GLU47      -0.2457
     65  N         24.3660  -22.1420   25.4910 N.3    75  ILE75      -0.1245
     66  CA        24.7950  -22.1540   24.0920 C.3    75  ILE75       0.1561
     67  C         24.2450  -23.3640   23.3140 C.2    75  ILE75       0.2260
     68  O         23.8870  -23.2050   22.1550 O.2    75  ILE75      -0.2867
     69  CB        26.3560  -22.0070   23.9600 C.3    75  ILE75       0.0252
     70  CG1       26.7870  -21.7730   22.4890 C.3    75  ILE75       0.0019
     71  CG2       27.1120  -23.1740   24.6040 C.3    75  ILE75       0.0019
     72  CD1       26.0510  -20.5880   21.7460 C.3    75  ILE75       0.0001
     73  N         20.5650  -22.6940   22.7550 N.3    78  MET78      -0.1230
     74  CA        20.4700  -21.6220   21.7430 C.3    78  MET78       0.1702
     75  C         20.6880  -22.1850   20.3330 C.2    78  MET78       0.2592
     76  O         19.9900  -21.7900   19.4030 O.2    78  MET78      -0.2718
     77  CB        21.5530  -20.5710   21.9760 C.3    78  MET78       0.0401
     78  CG        21.1690  -19.5760   23.0110 C.3    78  MET78       0.0596
     79  SD        22.5680  -18.6360   23.6750 S.3    78  MET78      -0.1393
     80  CE        22.6600  -17.4850   22.5650 C.3    78  MET78       0.0692
     81  N         21.6790  -23.1010   20.1780 N.am   79  LEU79      -0.1980
     82  CA        21.9760  -23.7050   18.8820 C.3    79  LEU79       0.1596
     83  C         20.8920  -24.6930   18.4670 C.2    79  LEU79       0.2287
     84  O         20.6750  -24.8590   17.2660 O.2    79  LEU79      -0.2864
     85  CB        23.3990  -24.2910   18.8150 C.3    79  LEU79       0.0297
     86  CG        24.5130  -23.2630   18.9900 C.3    79  LEU79       0.0022
     87  CD1       25.8340  -23.9190   19.1260 C.3    79  LEU79       0.0001
     88  CD2       24.5160  -22.1870   17.8640 C.3    79  LEU79       0.0001
     89  N         17.6300  -24.1600   19.2630 N.3    81  GLU81      -0.1231
     90  CA        16.5760  -23.2070   18.8630 C.3    81  GLU81       0.1699
     91  C         16.9220  -22.6550   17.4760 C.2    81  GLU81       0.2592
     92  O         16.0280  -22.4330   16.6710 O.2    81  GLU81      -0.2718
     93  CB        16.4540  -22.0360   19.8820 C.3    81  GLU81       0.0402
     94  CG        15.8050  -22.3730   21.2200 C.3    81  GLU81       0.1161
     95  CD        14.3510  -22.8120   21.2380 C.2    81  GLU81       0.3649
     96  OE1       13.6450  -22.6340   20.2230 O.co2  81  GLU81      -0.2457
     97  OE2       13.9100  -23.3330   22.2860 O.co2  81  GLU81      -0.2457
     98  N         18.2250  -22.4290   17.2030 N.am   82  THR82      -0.1953
     99  CA        18.7110  -21.9580   15.9030 C.3    82  THR82       0.1897
    100  C         18.3690  -23.0180   14.8240 C.2    82  THR82       0.2313
    101  O         17.8030  -22.6620   13.7950 O.2    82  THR82      -0.2863
    102  CB        20.2180  -21.6320   15.9680 C.3    82  THR82       0.1794
    103  OG1       20.4390  -20.5820   16.9090 O.3    82  THR82      -0.2208
    104  CG2       20.7800  -21.2090   14.6350 C.3    82  THR82       0.0378
    105  N         14.8480  -23.2500   13.6400 N.3    85  ARG85      -0.1245
    106  CA        14.4450  -22.1000   12.8390 C.3    85  ARG85       0.1563
    107  C         15.1160  -22.0370   11.4650 C.2    85  ARG85       0.2260
    108  O         14.9470  -21.0520   10.7520 O.2    85  ARG85      -0.2867
    109  CB        14.6920  -20.8150   13.6570 C.3    85  ARG85       0.0307
    110  CG        13.6800  -20.6460   14.7900 C.3    85  ARG85       0.0489
    111  CD        14.0600  -19.5520   15.7740 C.3    85  ARG85       0.2205
    112  NE        12.9940  -19.3390   16.7590 N.pl3  85  ARG85      -0.0865
    113  CZ        12.8140  -20.1000   17.8310 C.cat  85  ARG85       0.5346
    114  NH1       13.6220  -21.1200   18.0680 N.pl3  85  ARG85       0.1354
    115  NH2       11.8230  -19.8480   18.6710 N.pl3  85  ARG85       0.1354
    116  N         15.0530  -15.5800   12.8820 N.3    95  PHE95      -0.1227
    117  CA        14.9830  -15.2160   14.3000 C.3    95  PHE95       0.1736
    118  C         13.7840  -14.3080   14.5340 C.2    95  PHE95       0.2595
    119  O         13.5420  -13.4020   13.7330 O.2    95  PHE95      -0.2718
    120  CB        16.2700  -14.5060   14.7590 C.3    95  PHE95       0.0547
    121  CG        17.5300  -15.3320   14.6730 C.ar   95  PHE95      -0.0202
    122  CD1       17.6710  -16.4980   15.4200 C.ar   95  PHE95      -0.0042
    123  CD2       18.5850  -14.9360   13.8620 C.ar   95  PHE95      -0.0042
    124  CE1       18.8340  -17.2600   15.3370 C.ar   95  PHE95      -0.0003
    125  CE2       19.7510  -15.7000   13.7810 C.ar   95  PHE95      -0.0003
    126  CZ        19.8700  -16.8510   14.5220 C.ar   95  PHE95      -0.0000
    127  N         13.0320  -14.5510   15.6280 N.am   96  LEU96      -0.1980
    128  CA        11.8510  -13.7730   16.0420 C.3    96  LEU96       0.1596
    129  C         10.7960  -13.5570   14.9270 C.2    96  LEU96       0.2287
    130  O         10.3580  -12.4260   14.7000 O.2    96  LEU96      -0.2864
    131  CB        12.2610  -12.4190   16.6730 C.3    96  LEU96       0.0297
    132  CG        12.9470  -12.4490   18.0380 C.3    96  LEU96       0.0022
    133  CD1       13.3910  -11.0690   18.4450 C.3    96  LEU96       0.0001
    134  CD2       12.0580  -13.0720   19.1110 C.3    96  LEU96       0.0001
    135  N         25.9400  -13.7170    9.1830 N.3   106  PHE106     -0.1241
    136  CA        26.6070  -14.1040   10.4260 C.3   106  PHE106      0.1605
    137  C         28.0500  -13.5920   10.4180 C.2   106  PHE106      0.2264
    138  O         28.5630  -13.1690   11.4650 O.2   106  PHE106     -0.2867
    139  CB        26.5900  -15.6430   10.5830 C.3   106  PHE106      0.0534
    140  CG        25.3640  -16.2680   11.2180 C.ar  106  PHE106     -0.0203
    141  CD1       24.0960  -16.0340   10.7040 C.ar  106  PHE106     -0.0042
    142  CD2       25.4890  -17.1500   12.2840 C.ar  106  PHE106     -0.0042
    143  CE1       22.9680  -16.6200   11.2810 C.ar  106  PHE106     -0.0003
    144  CE2       24.3620  -17.7490   12.8560 C.ar  106  PHE106     -0.0003
    145  CZ        23.1070  -17.4750   12.3560 C.ar  106  PHE106     -0.0000
    146  N         28.0770   -9.9640   11.0390 N.3   109  ALA109     -0.1231
    147  CA        27.7790   -9.7340   12.4570 C.3   109  ALA109      0.1694
    148  C         28.9680   -9.9940   13.4180 C.2   109  ALA109      0.2593
    149  O         28.7830   -9.9580   14.6370 O.2   109  ALA109     -0.2718
    150  CB        26.5540  -10.5400   12.8710 C.3   109  ALA109      0.0304
    151  N         30.1640  -10.2270   12.8630 N.am  110  GLY110     -0.1942
    152  CA        31.3920  -10.4450   13.6240 C.3   110  GLY110      0.2014
    153  C         31.8120  -11.8710   13.9390 C.2   110  GLY110      0.2638
    154  O         32.8240  -12.0770   14.6280 O.2   110  GLY110     -0.2714
    155  N         31.0380  -12.8680   13.4520 N.am  111  LEU111     -0.1977
    156  CA        31.3150  -14.2910   13.6840 C.3   111  LEU111      0.1596
    157  C         32.4010  -14.7990   12.7520 C.2   111  LEU111      0.2287
    158  O         32.4390  -14.4140   11.5910 O.2   111  LEU111     -0.2864
    159  CB        30.0490  -15.1370   13.5100 C.3   111  LEU111      0.0297
    160  CG        29.0800  -15.1810   14.6840 C.3   111  LEU111      0.0022
    161  CD1       28.0090  -14.1200   14.5530 C.3   111  LEU111      0.0001
    162  CD2       28.4210  -16.5410   14.7960 C.3   111  LEU111      0.0001
    163  N         33.1480  -20.9750   13.1760 N.3   115  PHE115     -0.1241
    164  CA        31.9560  -21.1730   14.0110 C.3   115  PHE115      0.1605
    165  C         30.6880  -21.1700   13.1840 C.2   115  PHE115      0.2264
    166  O         29.7890  -21.9390   13.4720 O.2   115  PHE115     -0.2867
    167  CB        31.8650  -20.1090   15.1420 C.3   115  PHE115      0.0534
    168  CG        30.7150  -20.2460   16.1230 C.ar  115  PHE115     -0.0203
    169  CD1       30.3610  -21.4900   16.6460 C.ar  115  PHE115     -0.0042
    170  CD2       30.0420  -19.1260   16.5850 C.ar  115  PHE115     -0.0042
    171  CE1       29.3100  -21.6110   17.5620 C.ar  115  PHE115     -0.0003
    172  CE2       29.0060  -19.2450   17.5160 C.ar  115  PHE115     -0.0003
    173  CZ        28.6450  -20.4840   17.9980 C.ar  115  PHE115     -0.0000
    174  N         27.6590  -24.2810   12.7270 N.3   119  ILE119     -0.1245
    175  CA        26.2660  -23.9390   13.1090 C.3   119  ILE119      0.1561
    176  C         25.3100  -24.3320   11.9830 C.2   119  ILE119      0.2260
    177  O         24.2480  -24.9080   12.2440 O.2   119  ILE119     -0.2867
    178  CB        26.0730  -22.4290   13.4380 C.3   119  ILE119      0.0252
    179  CG1       26.7750  -22.0060   14.7350 C.3   119  ILE119      0.0019
    180  CG2       24.6000  -22.0210   13.4610 C.3   119  ILE119      0.0019
    181  CD1       26.9090  -20.3670   14.8630 C.3   119  ILE119      0.0001
    182  N         32.2390  -22.6950   20.0560 N.3   201  HIS201     -0.1241
    183  CA        31.7560  -21.3940   20.5260 C.3   201  HIS201      0.1621
    184  C         32.7400  -20.7990   21.5540 C.2   201  HIS201      0.2264
    185  O         32.9940  -19.5980   21.5210 O.2   201  HIS201     -0.2867
    186  CB        30.3400  -21.4700   21.0970 C.3   201  HIS201      0.0745
    187  CG        29.9180  -20.2220   21.8160 C.ar  201  HIS201      0.0817
    188  ND1       29.8820  -20.1630   23.1940 N.ar  201  HIS201     -0.2268
    189  CD2       29.5610  -19.0130   21.3180 C.ar  201  HIS201      0.1154
    190  CE1       29.4630  -18.9480   23.4920 C.ar  201  HIS201      0.1986
    191  NE2       29.2650  -18.2150   22.3970 N.ar  201  HIS201     -0.2212
    192  N         35.3910  -19.0820   19.7620 N.3   204  GLN204     -0.1231
    193  CA        34.8210  -17.8660   19.2050 C.3   204  GLN204      0.1698
    194  C         34.8200  -16.7420   20.2660 C.2   204  GLN204      0.2592
    195  O         35.1300  -15.5870   19.9430 O.2   204  GLN204     -0.2718
    196  CB        33.4020  -18.1270   18.6950 C.3   204  GLN204      0.0381
    197  CG        32.5980  -16.8580   18.3630 C.3   204  GLN204      0.0905
    198  CD        33.1090  -16.1340   17.1340 C.2   204  GLN204      0.2608
    199  OE1       32.6690  -16.3880   16.0160 O.2   204  GLN204     -0.2717
    200  NE2       34.0470  -15.2140   17.3110 N.am  204  GLN204     -0.0878
    201  N         34.4600  -17.0840   21.5260 N.am  205  VAL205     -0.1980
    202  CA        34.4110  -16.1440   22.6530 C.3   205  VAL205      0.1595
    203  C         35.8380  -15.6400   22.9300 C.2   205  VAL205      0.2287
    204  O         36.0200  -14.4390   23.1300 O.2   205  VAL205     -0.2864
    205  CB        33.6880  -16.7480   23.8990 C.3   205  VAL205      0.0276
    206  CG1       33.9710  -15.9570   25.1810 C.3   205  VAL205      0.0022
    207  CG2       32.1880  -16.8360   23.6590 C.3   205  VAL205      0.0022
    208  N         36.9340  -13.1190   20.2970 N.3   208  LEU208     -0.1245
    209  CA        36.3250  -11.7960   20.5170 C.3   208  LEU208      0.1561
    210  C         37.1070  -10.9860   21.5360 C.2   208  LEU208      0.2260
    211  O         37.1750   -9.7640   21.4140 O.2   208  LEU208     -0.2867
    212  CB        34.8410  -11.8640   20.9120 C.3   208  LEU208      0.0270
    213  CG        33.8600  -12.4050   19.8870 C.3   208  LEU208      0.0019
    214  CD1       32.4910  -12.6140   20.5280 C.3   208  LEU208      0.0001
    215  CD2       33.7320  -11.4750   18.6870 C.3   208  LEU208      0.0001
    216  N         31.3700   -8.2990   24.9650 N.3   215  LEU215     -0.1245
    217  CA        30.0420   -8.8780   24.9920 C.3   215  LEU215      0.1561
    218  C         29.2130   -8.1040   26.0200 C.2   215  LEU215      0.2260
    219  O         29.7910   -7.5880   26.9890 O.2   215  LEU215     -0.2867
    220  CB        30.1160  -10.3750   25.3700 C.3   215  LEU215      0.0270
    221  CG        30.5720  -11.3480   24.2780 C.3   215  LEU215      0.0019
    222  CD1       30.8270  -12.7120   24.8610 C.3   215  LEU215      0.0001
    223  CD2       29.5350  -11.4580   23.1830 C.3   215  LEU215      0.0001
    224  N         25.8080  -11.9080   28.5670 N.3   219  LEU219     -0.1245
    225  CA        26.6000  -12.8520   27.7860 C.3   219  LEU219      0.1561
    226  C         28.0040  -12.9340   28.3240 C.2   219  LEU219      0.2260
    227  O         28.5690  -14.0190   28.3690 O.2   219  LEU219     -0.2867
    228  CB        26.5830  -12.5100   26.2800 C.3   219  LEU219      0.0270
    229  CG        25.2080  -12.3990   25.6090 C.3   219  LEU219      0.0019
    230  CD1       25.3490  -12.1200   24.1390 C.3   219  LEU219      0.0001
    231  CD2       24.3200  -13.6420   25.8900 C.3   219  LEU219      0.0001
    232  N         29.5270  -16.4760   29.5800 N.3   223  TRP223     -0.1241
    233  CA        30.5700  -16.9840   28.6810 C.3   223  TRP223      0.1605
    234  C         31.9970  -16.5560   28.8930 C.2   223  TRP223      0.2264
    235  O         32.8790  -17.3420   28.5610 O.2   223  TRP223     -0.2867
    236  CB        30.2040  -16.6550   27.2380 C.3   223  TRP223      0.0550
    237  CG        28.9610  -17.3470   26.7690 C.ar  223  TRP223      0.0003
    238  CD1       28.4650  -18.5400   27.2140 C.ar  223  TRP223      0.0946
    239  CD2       28.0670  -16.8940   25.7430 C.ar  223  TRP223      0.0152
    240  NE1       27.3230  -18.8620   26.5250 N.ar  223  TRP223     -0.2442
    241  CE2       27.0640  -17.8780   25.6010 C.ar  223  TRP223      0.0810
    242  CE3       28.0750  -15.7990   24.8520 C.ar  223  TRP223      0.0012
    243  CZ2       26.0380  -17.7730   24.6530 C.ar  223  TRP223      0.0191
    244  CZ3       27.0630  -15.6990   23.9080 C.ar  223  TRP223      0.0001
    245  CH2       26.0530  -16.6720   23.8190 C.ar  223  TRP223      0.0015
@<TRIPOS>BOND
     1   135   136    1
     2   137   136    1
     3   137   138    2
     4   136   139    1
     5   139   140    1
     6   141   140   ar
     7   141   143   ar
     8   108   107    2
     9   146   147    1
    10   140   142   ar
    11   143   145   ar
    12   107   106    1
    13   158   157    2
    14   176   177    2
    15   176   175    1
    16   142   144   ar
    17   145   144   ar
    18   147   150    1
    19   147   148    1
    20    22    20   ar
    21    22    21   ar
    22   174   175    1
    23   157   156    1
    24   106   105    1
    25   106   109    1
    26   151   148   am
    27   151   152    1
    28   116   117    1
    29    20    18   ar
    30   175   178    1
    31   163   164    1
    32   165   166    2
    33   165   164    1
    34   148   149    2
    35   178   180    1
    36   178   179    1
    37   155   156    1
    38   155   153   am
    39   159   156    1
    40   159   160    1
    41   152   153    1
    42    21    19   ar
    43   109   110    1
    44   119   118    2
    45   125   123   ar
    46   125   126   ar
    47   101   100    2
    48   123   121   ar
    49   153   154    2
    50   164   167    1
    51    18    17   ar
    52   117   118    1
    53   117   120    1
    54   126   124   ar
    55   118   127   am
    56   161   160    1
    57   104   102    1
    58   121   120    1
    59   121   122   ar
    60   160   162    1
    61   130   129    2
    62   179   181    1
    63   110   111    1
    64   100    99    1
    65    19    17   ar
    66   129   128    1
    67     1     2    1
    68   167   168    1
    69    17    16    1
    70   124   122   ar
    71   127   128    1
    72   111   112    1
    73    99   102    1
    74    99    98    1
    75   102   103    1
    76    36    35    1
    77   199   198    2
    78   128   131    1
    79     2     5    1
    80     2     3    1
    81   168   170   ar
    82   168   169   ar
    83    16    13    1
    84     5     6    1
    85   170   172   ar
    86   169   171   ar
    87    92    91    2
    88   131   132    1
    89   112   113    2
    90    12    13    1
    91   198   200   am
    92   198   197    1
    93    98    91   am
    94    13    14    1
    95    84    83    2
    96     3     4    2
    97    35    37    1
    98    35    34    1
    99    91    90    1
   100   172   173   ar
   101     7     6   ar
   102     7     9   ar
   103   171   173   ar
   104     6     8   ar
   105   113   114    1
   106   113   115    1
   107    88    86    1
   108   132   133    1
   109   132   134    1
   110   197   196    1
   111    34    31    1
   112    83    82    1
   113     9    11   ar
   114   215   213    1
   115   196   193    1
   116    14    15    2
   117    14    23   am
   118    85    82    1
   119    85    86    1
   120    90    89    1
   121    90    93    1
   122    82    81    1
   123     8    10   ar
   124    86    87    1
   125   193   192    1
   126   193   194    1
   127    76    75    2
   128    23    24    1
   129    93    94    1
   130   213   214    1
   131   213   212    1
   132    11    10   ar
   133    31    30    1
   134    31    32    1
   135   195   194    2
   136   182   183    1
   137    81    75   am
   138    96    95   ar
   139   194   201   am
   140   208   209    1
   141    75    74    1
   142   209   212    1
   143   209   210    1
   144   183   186    1
   145   183   184    1
   146    32    38   am
   147    32    33    2
   148    24    27    1
   149    24    25    1
   150    29    27    1
   151   186   187    1
   152    38    39    1
   153    28    27    1
   154    94    95    1
   155    95    97   ar
   156   189   187   ar
   157   189   191   ar
   158   211   210    2
   159   185   184    2
   160   201   202    1
   161    25    26    2
   162    74    77    1
   163    74    73    1
   164    72    70    1
   165   187   188   ar
   166    77    78    1
   167    42    39    1
   168    39    40    1
   169    68    67    2
   170   191   190   ar
   171    70    69    1
   172    80    79    1
   173    55    54    1
   174   202   203    1
   175   202   205    1
   176    54    51    1
   177    48    47    1
   178   203   204    2
   179    78    79    1
   180    49    47    1
   181    47    44    1
   182   223   221    1
   183   188   190   ar
   184    67    66    1
   185    64    62   ar
   186    40    41    2
   187    63    62   ar
   188   207   205    1
   189    50    51    1
   190    50    45   am
   191    51    52    1
   192   245   244   ar
   193   245   243   ar
   194   205   206    1
   195   244   242   ar
   196    62    61    1
   197    69    66    1
   198    69    71    1
   199    66    65    1
   200   230   229    1
   201   221   222    1
   202   221   220    1
   203    44    43    1
   204    44    45    1
   205    45    46    2
   206   243   241   ar
   207   242   239   ar
   208   216   217    1
   209   217   220    1
   210   217   218    1
   211    61    60    1
   212    52    53    2
   213   241   239   ar
   214   241   240   ar
   215   229   231    1
   216   229   228    1
   217    60    57    1
   218   239   237   ar
   219   218   219    2
   220   228   225    1
   221   240   238   ar
   222   237   238   ar
   223   237   236    1
   224    57    56    1
   225    57    58    1
   226   236   233    1
   227    58    59    2
   228   225   226    1
   229   225   224    1
   230   226   227    2
   231   235   234    2
   232   233   234    1
   233   233   232    1
