@<TRIPOS>MOLECULE
tmp/5hk1C00.pdb
 224 212 0 0 0
SMALL
GASTEIGER

@<TRIPOS>ATOM
      1  N         -6.6450   46.3770  -38.6440 N.3    83  VAL83      -0.1245
      2  CA        -7.4910   45.9890  -37.5230 C.3    83  VAL83       0.1561
      3  C         -7.1870   44.5610  -37.0920 C.2    83  VAL83       0.2260
      4  O         -7.2850   43.6270  -37.8910 O.2    83  VAL83      -0.2867
      5  CB        -8.9860   46.0970  -37.8640 C.3    83  VAL83       0.0252
      6  CG1       -9.8320   45.8320  -36.6240 C.3    83  VAL83       0.0019
      7  CG2       -9.2960   47.4540  -38.4280 C.3    83  VAL83       0.0019
      8  N         -8.4460   37.4150  -36.0000 N.3    88  TRP88      -0.1241
      9  CA        -8.3150   37.7600  -37.4110 C.3    88  TRP88       0.1605
     10  C         -7.6010   39.0930  -37.6060 C.2    88  TRP88       0.2264
     11  O         -7.3340   39.8160  -36.6450 O.2    88  TRP88      -0.2867
     12  CB        -9.6850   37.7910  -38.1030 C.3    88  TRP88       0.0550
     13  CG       -10.7530   38.5940  -37.4050 C.ar   88  TRP88       0.0003
     14  CD1      -11.7530   38.1100  -36.6090 C.ar   88  TRP88       0.0946
     15  CD2      -10.9440   40.0160  -37.4640 C.ar   88  TRP88       0.0152
     16  NE1      -12.5450   39.1410  -36.1610 N.ar   88  TRP88      -0.2442
     17  CE2      -12.0690   40.3200  -36.6720 C.ar   88  TRP88       0.0810
     18  CE3      -10.2660   41.0590  -38.1020 C.ar   88  TRP88       0.0012
     19  CZ2      -12.5310   41.6240  -36.5000 C.ar   88  TRP88       0.0191
     20  CZ3      -10.7280   42.3520  -37.9310 C.ar   88  TRP88       0.0001
     21  CH2      -11.8480   42.6230  -37.1370 C.ar   88  TRP88       0.0015
     22  N         -9.2180   48.7000  -42.1680 N.3    92  MET92      -0.1245
     23  CA       -10.4430   49.4850  -42.2330 C.3    92  MET92       0.1570
     24  C        -10.1780   50.9230  -42.6640 C.2    92  MET92       0.2261
     25  O         -9.0930   51.4650  -42.4430 O.2    92  MET92      -0.2867
     26  CB       -11.1600   49.4860  -40.8810 C.3    92  MET92       0.0387
     27  CG       -10.5060   50.3840  -39.8400 C.3    92  MET92       0.0595
     28  SD       -11.5950   51.6760  -39.2250 S.3    92  MET92      -0.1393
     29  CE       -10.4960   52.5320  -38.0990 C.3    92  MET92       0.0692
     30  N        -12.4010   54.3470  -41.9810 N.3    94  LEU94      -0.1245
     31  CA       -13.5820   54.9150  -41.3480 C.3    94  LEU94       0.1561
     32  C        -14.1470   56.0620  -42.1780 C.2    94  LEU94       0.2260
     33  O        -13.4520   57.0370  -42.4600 O.2    94  LEU94      -0.2867
     34  CB       -13.2430   55.3910  -39.9360 C.3    94  LEU94       0.0270
     35  CG       -14.4120   55.7360  -39.0180 C.3    94  LEU94       0.0019
     36  CD1      -15.3460   54.5420  -38.8720 C.3    94  LEU94       0.0001
     37  CD2      -13.8820   56.1730  -37.6640 C.3    94  LEU94       0.0001
     38  N        -18.5610   57.9720  -38.2280 N.3    97  ALA97      -0.1245
     39  CA       -18.5640   57.4220  -36.8770 C.3    97  ALA97       0.1562
     40  C        -19.1330   58.4010  -35.8600 C.2    97  ALA97       0.2260
     41  O        -18.7150   59.5550  -35.7870 O.2    97  ALA97      -0.2867
     42  CB       -17.1610   57.0080  -36.4690 C.3    97  ALA97       0.0290
     43  N        -21.8010   53.8880  -37.2340 N.3   102  TYR102     -0.1241
     44  CA       -20.5460   54.0080  -37.9630 C.3   102  TYR102      0.1605
     45  C        -20.6540   53.3860  -39.3540 C.2   102  TYR102      0.2264
     46  O        -21.3930   52.4250  -39.5640 O.2   102  TYR102     -0.2867
     47  CB       -19.3850   53.3740  -37.1820 C.3   102  TYR102      0.0534
     48  CG       -19.3670   51.8590  -37.1400 C.ar  102  TYR102     -0.0201
     49  CD1      -18.8300   51.1150  -38.1880 C.ar  102  TYR102     -0.0009
     50  CD2      -19.8580   51.1730  -36.0400 C.ar  102  TYR102     -0.0009
     51  CE1      -18.8090   49.7380  -38.1490 C.ar  102  TYR102      0.0417
     52  CE2      -19.8340   49.7920  -35.9910 C.ar  102  TYR102      0.0417
     53  CZ       -19.3080   49.0810  -37.0470 C.ar  102  TYR102      0.1957
     54  OH       -19.2870   47.7070  -37.0020 O.3   102  TYR102     -0.2866
     55  N        -17.8400   52.0570  -42.3640 N.3   104  LEU104     -0.1245
     56  CA       -16.4350   51.8540  -42.6840 C.3   104  LEU104      0.1561
     57  C        -16.2520   50.9080  -43.8620 C.2   104  LEU104      0.2260
     58  O        -17.0910   50.0440  -44.1160 O.2   104  LEU104     -0.2867
     59  CB       -15.6740   51.3270  -41.4580 C.3   104  LEU104      0.0270
     60  CG       -16.1110   50.0430  -40.7390 C.3   104  LEU104      0.0019
     61  CD1      -15.6450   48.7880  -41.4550 C.3   104  LEU104      0.0001
     62  CD2      -15.5910   50.0390  -39.3110 C.3   104  LEU104      0.0001
     63  N        -13.9670   47.8570  -45.2120 N.3   106  PHE106     -0.1241
     64  CA       -13.1440   46.8320  -44.5870 C.3   106  PHE106      0.1605
     65  C        -12.7660   45.7260  -45.5590 C.2   106  PHE106      0.2264
     66  O        -13.4940   45.4300  -46.5050 O.2   106  PHE106     -0.2867
     67  CB       -13.8630   46.2280  -43.3760 C.3   106  PHE106      0.0534
     68  CG       -13.0700   45.1630  -42.6730 C.ar  106  PHE106     -0.0203
     69  CD1      -12.1120   45.5030  -41.7300 C.ar  106  PHE106     -0.0042
     70  CD2      -13.2720   43.8200  -42.9640 C.ar  106  PHE106     -0.0042
     71  CE1      -11.3760   44.5260  -41.0830 C.ar  106  PHE106     -0.0003
     72  CE2      -12.5360   42.8390  -42.3240 C.ar  106  PHE106     -0.0003
     73  CZ       -11.5900   43.1930  -41.3790 C.ar  106  PHE106     -0.0000
     74  N        -16.1100   36.6470  -34.6210 N.3   116  SER116     -0.1217
     75  CA       -16.7550   37.8350  -35.1810 C.3   116  SER116      0.1889
     76  C        -16.8750   38.9630  -34.1660 C.2   116  SER116      0.2288
     77  O        -16.8960   40.1350  -34.5320 O.2   116  SER116     -0.2866
     78  CB       -18.1470   37.4920  -35.7120 C.3   116  SER116      0.2089
     79  OG       -19.0450   37.2420  -34.6430 O.3   116  SER116     -0.2183
     80  N        -21.3420   41.8800  -30.0250 N.3   119  TYR119     -0.1241
     81  CA       -21.5040   43.3190  -29.8450 C.3   119  TYR119      0.1605
     82  C        -22.8400   43.7150  -29.2330 C.2   119  TYR119      0.2264
     83  O        -23.8240   42.9840  -29.3230 O.2   119  TYR119     -0.2867
     84  CB       -21.3560   44.0470  -31.1860 C.3   119  TYR119      0.0534
     85  CG       -20.1250   43.6840  -31.9810 C.ar  119  TYR119     -0.0201
     86  CD1      -18.9370   44.3810  -31.8120 C.ar  119  TYR119     -0.0009
     87  CD2      -20.1570   42.6580  -32.9160 C.ar  119  TYR119     -0.0009
     88  CE1      -17.8120   44.0590  -32.5450 C.ar  119  TYR119      0.0417
     89  CE2      -19.0380   42.3290  -33.6530 C.ar  119  TYR119      0.0417
     90  CZ       -17.8680   43.0320  -33.4640 C.ar  119  TYR119      0.1957
     91  OH       -16.7520   42.7060  -34.1970 O.3   119  TYR119     -0.2866
     92  N        -24.8230   44.9410  -36.8100 N.3   123  ILE123     -0.1245
     93  CA       -23.8120   45.1930  -37.8250 C.3   123  ILE123      0.1561
     94  C        -24.1200   44.4550  -39.1230 C.2   123  ILE123      0.2260
     95  O        -24.3790   43.2530  -39.1210 O.2   123  ILE123     -0.2867
     96  CB       -22.4160   44.7830  -37.3190 C.3   123  ILE123      0.0252
     97  CG1      -22.0990   45.5010  -36.0050 C.3   123  ILE123      0.0019
     98  CG2      -21.3530   45.0720  -38.3660 C.3   123  ILE123      0.0019
     99  CD1      -20.7920   45.0800  -35.3810 C.3   123  ILE123      0.0001
    100  N        -22.7230   43.7250  -43.1670 N.3   125  ASP125     -0.1239
    101  CA       -21.5730   43.7790  -44.0640 C.3   125  ASP125      0.1674
    102  C        -21.9740   43.4400  -45.4940 C.2   125  ASP125      0.2266
    103  O        -22.4300   42.3330  -45.7740 O.2   125  ASP125     -0.2867
    104  CB       -20.4720   42.8240  -43.5920 C.3   125  ASP125      0.1410
    105  CG       -19.8160   43.2780  -42.3020 C.2   125  ASP125      0.3668
    106  OD1      -20.3170   42.9130  -41.2160 O.co2 125  ASP125     -0.2456
    107  OD2      -18.7940   43.9940  -42.3750 O.co2 125  ASP125     -0.2456
    108  N        -17.0080   35.6510  -47.9900 N.3   132  PHE132     -0.1241
    109  CA       -17.2730   35.7570  -46.5620 C.3   132  PHE132      0.1605
    110  C        -17.8790   34.4380  -46.0870 C.2   132  PHE132      0.2264
    111  O        -18.9970   34.0930  -46.4670 O.2   132  PHE132     -0.2867
    112  CB       -18.2230   36.9300  -46.2890 C.3   132  PHE132      0.0534
    113  CG       -18.3600   37.3080  -44.8340 C.ar  132  PHE132     -0.0203
    114  CD1      -18.9520   36.4490  -43.9180 C.ar  132  PHE132     -0.0042
    115  CD2      -17.9440   38.5560  -44.3960 C.ar  132  PHE132     -0.0042
    116  CE1      -19.0920   36.8110  -42.5890 C.ar  132  PHE132     -0.0003
    117  CE2      -18.0840   38.9270  -43.0670 C.ar  132  PHE132     -0.0003
    118  CZ       -18.6570   38.0520  -42.1630 C.ar  132  PHE132     -0.0000
    119  N        -25.2980   40.9970  -38.6720 N.3   153  HIS153     -0.1241
    120  CA       -24.8730   40.4740  -37.3810 C.3   153  HIS153      0.1621
    121  C        -25.7030   41.0980  -36.2620 C.2   153  HIS153      0.2264
    122  O        -25.4560   42.2370  -35.8560 O.2   153  HIS153     -0.2867
    123  CB       -23.3850   40.7490  -37.1650 C.3   153  HIS153      0.0745
    124  CG       -22.7630   39.9340  -36.0740 C.ar  153  HIS153      0.0817
    125  ND1      -22.5360   38.5800  -36.1940 N.ar  153  HIS153     -0.2268
    126  CD2      -22.3050   40.2850  -34.8500 C.ar  153  HIS153      0.1154
    127  CE1      -21.9740   38.1300  -35.0860 C.ar  153  HIS153      0.1986
    128  NE2      -21.8220   39.1450  -34.2540 N.ar  153  HIS153     -0.2212
    129  N        -15.9410   33.6760  -38.3440 N.3   161  VAL161     -0.1245
    130  CA       -15.9060   34.2640  -39.6750 C.3   161  VAL161      0.1561
    131  C        -14.6170   33.9180  -40.4040 C.2   161  VAL161      0.2260
    132  O        -13.5880   33.6650  -39.7840 O.2   161  VAL161     -0.2867
    133  CB       -16.0670   35.7980  -39.6170 C.3   161  VAL161      0.0252
    134  CG1      -17.4590   36.1610  -39.1330 C.3   161  VAL161      0.0019
    135  CG2      -15.0070   36.4190  -38.7160 C.3   161  VAL161      0.0019
    136  N        -12.6130   35.2630  -44.1250 N.3   163  TRP163     -0.1241
    137  CA       -12.5390   36.0060  -45.3720 C.3   163  TRP163      0.1605
    138  C        -11.5370   35.3550  -46.3140 C.2   163  TRP163      0.2264
    139  O        -10.4370   34.9840  -45.9040 O.2   163  TRP163     -0.2867
    140  CB       -12.1520   37.4630  -45.1100 C.3   163  TRP163      0.0550
    141  CG       -13.1190   38.1840  -44.2270 C.ar  163  TRP163      0.0003
    142  CD1      -14.3330   38.6860  -44.5860 C.ar  163  TRP163      0.0946
    143  CD2      -12.9540   38.4890  -42.8360 C.ar  163  TRP163      0.0152
    144  NE1      -14.9360   39.2850  -43.5080 N.ar  163  TRP163     -0.2442
    145  CE2      -14.1110   39.1790  -42.4210 C.ar  163  TRP163      0.0810
    146  CE3      -11.9410   38.2480  -41.9020 C.ar  163  TRP163      0.0012
    147  CZ2      -14.2860   39.6260  -41.1130 C.ar  163  TRP163      0.0191
    148  CZ3      -12.1160   38.6970  -40.6020 C.ar  163  TRP163      0.0001
    149  CH2      -13.2810   39.3780  -40.2200 C.ar  163  TRP163      0.0015
    150  N        -15.4090   44.7880  -48.3240 N.3   169  MET169     -0.1245
    151  CA       -16.8050   44.9930  -47.9740 C.3   169  MET169      0.1570
    152  C        -17.0780   46.3680  -47.3730 C.2   169  MET169      0.2261
    153  O        -16.1620   47.0740  -46.9520 O.2   169  MET169     -0.2867
    154  CB       -17.2580   43.9110  -46.9950 C.3   169  MET169      0.0387
    155  CG       -16.6330   44.0340  -45.6200 C.3   169  MET169      0.0595
    156  SD       -16.8240   42.5150  -44.6760 S.3   169  MET169     -0.1393
    157  CE       -16.1160   41.3500  -45.8330 C.3   169  MET169      0.0692
    158  N        -19.2570   48.1850  -44.3220 N.3   171  GLU171     -0.1245
    159  CA       -19.8760   47.8160  -43.0580 C.3   171  GLU171      0.1567
    160  C        -20.6180   48.9830  -42.4110 C.2   171  GLU171      0.2260
    161  O        -20.0780   50.0810  -42.2690 O.2   171  GLU171     -0.2867
    162  CB       -18.8180   47.2680  -42.0980 C.3   171  GLU171      0.0388
    163  CG       -19.3420   46.9330  -40.7130 C.3   171  GLU171      0.1160
    164  CD       -18.3240   46.1830  -39.8750 C.2   171  GLU171      0.3649
    165  OE1      -18.2160   46.4760  -38.6660 O.co2 171  GLU171     -0.2457
    166  OE2      -17.6350   45.2970  -40.4240 O.co2 171  GLU171     -0.2457
    167  N        -21.5360   52.0800  -30.0420 N.3   177  ILE177     -0.1245
    168  CA       -20.2990   52.0570  -30.8190 C.3   177  ILE177      0.1561
    169  C        -19.0030   52.0410  -29.9860 C.2   177  ILE177      0.2260
    170  O        -18.0590   51.3410  -30.3530 O.2   177  ILE177     -0.2867
    171  CB       -20.2540   53.2520  -31.7980 C.3   177  ILE177      0.0252
    172  CG1      -21.5250   53.2780  -32.6470 C.3   177  ILE177      0.0019
    173  CG2      -19.0290   53.1790  -32.6920 C.3   177  ILE177      0.0019
    174  CD1      -21.8550   51.9500  -33.3000 C.3   177  ILE177      0.0001
    175  N        -17.9940   48.5850  -29.1230 N.3   180  THR180     -0.1203
    176  CA       -17.5380   47.8030  -30.2670 C.3   180  THR180      0.1994
    177  C        -16.0570   48.0320  -30.5420 C.2   180  THR180      0.2617
    178  O        -15.3490   47.1230  -30.9780 O.2   180  THR180     -0.2717
    179  CB       -18.3410   48.1400  -31.5400 C.3   180  THR180      0.1784
    180  OG1      -18.0250   49.4690  -31.9710 O.3   180  THR180     -0.2211
    181  CG2      -19.8360   48.0370  -31.2730 C.3   180  THR180      0.0376
    182  N        -15.5940   49.2510  -30.2840 N.am  181  LEU181     -0.1979
    183  CA       -14.1910   49.5940  -30.4880 C.3   181  LEU181      0.1596
    184  C        -13.3010   48.8200  -29.5240 C.2   181  LEU181      0.2287
    185  O        -12.1610   48.4880  -29.8500 O.2   181  LEU181     -0.2864
    186  CB       -13.9690   51.0960  -30.3110 C.3   181  LEU181      0.0297
    187  CG       -13.2490   51.8160  -31.4520 C.3   181  LEU181      0.0022
    188  CD1      -12.7530   53.1720  -30.9860 C.3   181  LEU181      0.0001
    189  CD2      -12.1020   50.9800  -31.9980 C.3   181  LEU181      0.0001
    190  N        -13.5950   45.7740  -28.5890 N.3   183  PHE183     -0.1227
    191  CA       -13.2920   44.4940  -29.2080 C.3   183  PHE183      0.1736
    192  C        -12.2820   44.6530  -30.3360 C.2   183  PHE183      0.2595
    193  O        -11.3270   43.8860  -30.4330 O.2   183  PHE183     -0.2718
    194  CB       -14.5590   43.8290  -29.7440 C.3   183  PHE183      0.0547
    195  CG       -14.2830   42.6570  -30.6390 C.ar  183  PHE183     -0.0202
    196  CD1      -13.8710   41.4470  -30.1060 C.ar  183  PHE183     -0.0042
    197  CD2      -14.4190   42.7690  -32.0120 C.ar  183  PHE183     -0.0042
    198  CE1      -13.6080   40.3700  -30.9260 C.ar  183  PHE183     -0.0003
    199  CE2      -14.1570   41.6930  -32.8360 C.ar  183  PHE183     -0.0003
    200  CZ       -13.7520   40.4940  -32.2940 C.ar  183  PHE183     -0.0000
    201  N        -12.4970   45.6590  -31.1780 N.am  184  ALA184     -0.1980
    202  CA       -11.6760   45.8710  -32.3690 C.3   184  ALA184      0.1597
    203  C        -10.2020   46.1150  -32.0430 C.2   184  ALA184      0.2287
    204  O         -9.3340   45.9460  -32.9020 O.2   184  ALA184     -0.2864
    205  CB       -12.2310   47.0330  -33.1840 C.3   184  ALA184      0.0319
    206  N         -6.3880   54.3090  -34.9660 N.3   201  THR201     -0.1218
    207  CA        -7.7830   53.9110  -34.8210 C.3   201  THR201      0.1862
    208  C         -8.5600   54.9120  -33.9720 C.2   201  THR201      0.2287
    209  O         -9.6170   55.3960  -34.3770 O.2   201  THR201     -0.2866
    210  CB        -7.8970   52.5080  -34.1920 C.3   201  THR201      0.1770
    211  OG1       -7.0840   51.5880  -34.9320 O.3   201  THR201     -0.2211
    212  CG2       -9.3380   52.0320  -34.1960 C.3   201  THR201      0.0375
    213  N        -11.6660   57.6460  -34.9710 N.3   205  TYR205     -0.1241
    214  CA       -12.9270   57.7930  -34.2560 C.3   205  TYR205      0.1605
    215  C        -13.1380   59.2410  -33.8240 C.2   205  TYR205      0.2264
    216  O        -14.2300   59.7930  -33.9810 O.2   205  TYR205     -0.2867
    217  CB       -12.9680   56.8730  -33.0340 C.3   205  TYR205      0.0534
    218  CG       -14.3520   56.6780  -32.4560 C.ar  205  TYR205     -0.0201
    219  CD1      -15.4860   57.0030  -33.1910 C.ar  205  TYR205     -0.0009
    220  CD2      -14.5260   56.1780  -31.1720 C.ar  205  TYR205     -0.0009
    221  CE1      -16.7510   56.8210  -32.6690 C.ar  205  TYR205      0.0417
    222  CE2      -15.7900   55.9940  -30.6400 C.ar  205  TYR205      0.0417
    223  CZ       -16.8990   56.3180  -31.3930 C.ar  205  TYR205      0.1957
    224  OH       -18.1600   56.1400  -30.8690 O.3   205  TYR205     -0.2866
@<TRIPOS>BOND
     1   150   151    1
     2   108   109    1
     3   151   152    1
     4   151   154    1
     5   152   153    2
     6   154   155    1
     7   109   112    1
     8   109   110    1
     9    66    65    2
    10   111   110    2
    11   138   139    2
    12   138   137    1
    13   112   113    1
    14   157   156    1
    15   103   102    2
    16   155   156    1
    17    65    64    1
    18   102   101    1
    19   137   140    1
    20   137   136    1
    21    63    64    1
    22   140   141    1
    23   113   115   ar
    24   113   114   ar
    25    64    67    1
    26   142   141   ar
    27   142   144   ar
    28   115   117   ar
    29   158   159    1
    30   141   143   ar
    31    58    57    2
    32   101   104    1
    33   101   100    1
    34   114   116   ar
    35    57    56    1
    36   104   105    1
    37   144   145   ar
    38    67    68    1
    39   117   118   ar
    40   159   160    1
    41   159   162    1
    42    70    68   ar
    43    70    72   ar
    44   143   145   ar
    45   143   146   ar
    46    56    55    1
    47    56    59    1
    48    68    69   ar
    49    24    25    2
    50    24    23    1
    51   116   118   ar
    52    33    32    2
    53   145   147   ar
    54   160   161    2
    55   107   105   ar
    56    72    73   ar
    57   105   106   ar
    58    23    22    1
    59    23    26    1
    60    32    31    1
    61   162   163    1
    62    30    31    1
    63   146   148   ar
    64    69    71   ar
    65    59    60    1
    66    61    60    1
    67    73    71   ar
    68    31    34    1
    69   147   149   ar
    70    26    27    1
    71    60    62    1
    72   163   164    1
    73   148   149   ar
    74   166   164   ar
    75   131   132    2
    76   131   130    1
    77    34    35    1
    78   164   165   ar
    79    27    28    1
    80   130   133    1
    81   130   129    1
    82   133   134    1
    83   133   135    1
    84    46    45    2
    85    45    44    1
    86    28    29    1
    87    94    95    2
    88    94    93    1
    89    35    36    1
    90    35    37    1
    91   119   120    1
    92     1     2    1
    93     7     5    1
    94    98    96    1
    95    38    39    1
    96    49    51   ar
    97    49    48   ar
    98    51    53   ar
    99    12     9    1
   100    12    13    1
   101    18    20   ar
   102    18    15   ar
   103    44    43    1
   104    44    47    1
   105    20    21   ar
   106     4     3    2
   107     5     2    1
   108     5     6    1
   109    93    96    1
   110    93    92    1
   111    10     9    1
   112    10    11    2
   113     2     3    1
   114    15    13   ar
   115    15    17   ar
   116     9     8    1
   117    13    14   ar
   118   120   123    1
   119   120   121    1
   120    96    97    1
   121    47    48    1
   122   123   124    1
   123    48    50   ar
   124    21    19   ar
   125    53    54    1
   126    53    52   ar
   127    39    42    1
   128    39    40    1
   129    17    19   ar
   130    17    16   ar
   131    14    16   ar
   132   121   122    2
   133   125   124   ar
   134   125   127   ar
   135   124   126   ar
   136    50    52   ar
   137    97    99    1
   138    40    41    2
   139    78    75    1
   140    78    79    1
   141    75    74    1
   142    75    76    1
   143   127   128   ar
   144   213   214    1
   145   206   207    1
   146   211   210    1
   147   126   128   ar
   148   207   210    1
   149   207   208    1
   150    77    76    2
   151   209   208    2
   152   214   215    1
   153   214   217    1
   154    91    90    1
   155   212   210    1
   156   216   215    2
   157    89    90   ar
   158    89    87   ar
   159    90    88   ar
   160   174   172    1
   161   219   221   ar
   162   219   218   ar
   163   205   202    1
   164   217   218    1
   165    87    85   ar
   166   204   203    2
   167   199   200   ar
   168   199   197   ar
   169   173   171    1
   170   221   223   ar
   171   172   171    1
   172    88    86   ar
   173   218   220   ar
   174   202   203    1
   175   202   201    1
   176   200   198   ar
   177   197   195   ar
   178   189   187    1
   179    85    86   ar
   180    85    84    1
   181   180   179    1
   182   171   168    1
   183   179   181    1
   184   179   176    1
   185   187   188    1
   186   187   186    1
   187   223   224    1
   188   223   222   ar
   189    84    81    1
   190   201   192   am
   191   220   222   ar
   192   178   177    2
   193   198   196   ar
   194   168   167    1
   195   168   169    1
   196   195   196   ar
   197   195   194    1
   198   177   182   am
   199   177   176    1
   200   183   186    1
   201   183   182    1
   202   183   184    1
   203   193   192    2
   204   170   169    2
   205   192   191    1
   206   176   175    1
   207    80    81    1
   208   185   184    2
   209    81    82    1
   210   194   191    1
   211    83    82    2
   212   191   190    1
