@<TRIPOS>MOLECULE
tmp/5hk2B05.pdb
 87 83 0 0 0
SMALL
GASTEIGER

@<TRIPOS>ATOM
      1  N        -11.2920   49.2260  -56.0030 N.3    47  GLU47      -0.1245
      2  CA       -10.8430   50.6120  -55.9070 C.3    47  GLU47       0.1567
      3  C        -11.7860   51.5530  -56.6500 C.2    47  GLU47       0.2260
      4  O        -12.0440   52.6710  -56.2020 O.2    47  GLU47      -0.2867
      5  CB        -9.4210   50.7670  -56.4480 C.3    47  GLU47       0.0388
      6  CG        -8.3190   50.2830  -55.5090 C.3    47  GLU47       0.1160
      7  CD        -8.1260   51.1750  -54.2860 C.2    47  GLU47       0.3649
      8  OE1       -8.8130   52.2130  -54.1650 O.co2  47  GLU47      -0.2457
      9  OE2       -7.2760   50.8320  -53.4380 O.co2  47  GLU47      -0.2457
     10  N        -15.1360   51.6890  -54.6530 N.3    50  PHE50      -0.1227
     11  CA       -14.9990   52.5180  -53.4590 C.3    50  PHE50       0.1736
     12  C        -15.0850   54.0050  -53.7840 C.2    50  PHE50       0.2596
     13  O        -15.7670   54.7600  -53.0920 O.2    50  PHE50      -0.2718
     14  CB       -13.6750   52.2240  -52.7480 C.3    50  PHE50       0.0547
     15  CG       -13.6890   50.9650  -51.9330 C.ar   50  PHE50      -0.0202
     16  CD1      -14.8830   50.4200  -51.4970 C.ar   50  PHE50      -0.0042
     17  CD2      -12.5030   50.3300  -51.5980 C.ar   50  PHE50      -0.0042
     18  CE1      -14.8970   49.2640  -50.7460 C.ar   50  PHE50      -0.0003
     19  CE2      -12.5080   49.1740  -50.8470 C.ar   50  PHE50      -0.0003
     20  CZ       -13.7070   48.6400  -50.4200 C.ar   50  PHE50      -0.0000
     21  N        -14.3920   54.4200  -54.8390 N.am   51  SER51      -0.1952
     22  CA       -14.3610   55.8280  -55.2100 C.3    51  SER51       0.1924
     23  C        -15.7400   56.2970  -55.6540 C.2    51  SER51       0.2314
     24  O        -16.1980   57.3620  -55.2440 O.2    51  SER51      -0.2863
     25  CB       -13.3310   56.0790  -56.3140 C.3    51  SER51       0.2116
     26  OG       -13.7440   55.5060  -57.5410 O.3    51  SER51      -0.2180
     27  N        -18.0480   56.6060  -52.5990 N.3    54  ILE54      -0.1245
     28  CA       -17.7620   57.7570  -51.7510 C.3    54  ILE54       0.1561
     29  C        -18.3580   59.0280  -52.3430 C.2    54  ILE54       0.2260
     30  O        -18.8980   59.8630  -51.6200 O.2    54  ILE54      -0.2867
     31  CB       -16.2460   57.9440  -51.5410 C.3    54  ILE54       0.0252
     32  CG1      -15.6910   56.8110  -50.6790 C.3    54  ILE54       0.0019
     33  CG2      -15.9570   59.2730  -50.8730 C.3    54  ILE54       0.0019
     34  CD1      -14.2220   56.9490  -50.3630 C.3    54  ILE54       0.0001
     35  N        -11.4520   63.9910  -48.3250 N.3    68  ASP68      -0.1239
     36  CA       -10.3650   63.2070  -48.9050 C.3    68  ASP68       0.1674
     37  C         -9.0990   63.2960  -48.0620 C.2    68  ASP68       0.2266
     38  O         -8.3250   62.3430  -47.9910 O.2    68  ASP68      -0.2867
     39  CB       -10.0740   63.6670  -50.3360 C.3    68  ASP68       0.1410
     40  CG       -11.1730   63.2790  -51.3080 C.2    68  ASP68       0.3668
     41  OD1      -12.3040   63.0150  -50.8510 O.co2  68  ASP68      -0.2456
     42  OD2      -10.9070   63.2420  -52.5290 O.co2  68  ASP68      -0.2456
     43  N         -9.3040   60.6790  -45.1870 N.3    71  LEU71      -0.1231
     44  CA        -9.4850   59.2730  -45.5160 C.3    71  LEU71       0.1693
     45  C         -8.1510   58.5440  -45.4290 C.2    71  LEU71       0.2592
     46  O         -7.1340   59.0340  -45.9220 O.2    71  LEU71      -0.2718
     47  CB       -10.0930   59.1160  -46.9080 C.3    71  LEU71       0.0284
     48  CG       -11.5170   59.6440  -47.0530 C.3    71  LEU71       0.0019
     49  CD1      -12.0830   59.2870  -48.4170 C.3    71  LEU71       0.0001
     50  CD2      -12.3960   59.1040  -45.9330 C.3    71  LEU71       0.0001
     51  N         -8.1590   57.3760  -44.7970 N.am   72  GLN72      -0.1966
     52  CA        -6.9340   56.6140  -44.5920 C.3    72  GLN72       0.1733
     53  C         -7.2260   55.1450  -44.3170 C.2    72  GLN72       0.2616
     54  O         -8.1600   54.8140  -43.5850 O.2    72  GLN72      -0.2715
     55  CB        -6.1260   57.2130  -43.4350 C.3    72  GLN72       0.0408
     56  CG        -4.9270   56.3820  -42.9980 C.3    72  GLN72       0.0908
     57  CD        -4.2280   56.9610  -41.7810 C.2    72  GLN72       0.2608
     58  OE1       -4.4980   58.0920  -41.3730 O.2    72  GLN72      -0.2717
     59  NE2       -3.3240   56.1840  -41.1930 N.am   72  GLN72      -0.0878
     60  N         -6.4270   54.2690  -44.9180 N.am   73  TRP73      -0.1974
     61  CA        -6.4820   52.8470  -44.6050 C.3    73  TRP73       0.1640
     62  C         -5.6910   52.5560  -43.3340 C.2    73  TRP73       0.2290
     63  O         -4.4920   52.8290  -43.2580 O.2    73  TRP73      -0.2864
     64  CB        -5.9460   52.0060  -45.7660 C.3    73  TRP73       0.0576
     65  CG        -6.9150   51.8580  -46.8910 C.ar   73  TRP73       0.0006
     66  CD1       -6.8170   52.4090  -48.1330 C.ar   73  TRP73       0.0946
     67  CD2       -8.1410   51.1160  -46.8760 C.ar   73  TRP73       0.0152
     68  NE1       -7.9020   52.0510  -48.8970 N.ar   73  TRP73      -0.2442
     69  CE2       -8.7310   51.2580  -48.1480 C.ar   73  TRP73       0.0810
     70  CE3       -8.7960   50.3420  -45.9120 C.ar   73  TRP73       0.0012
     71  CZ2       -9.9420   50.6570  -48.4810 C.ar   73  TRP73       0.0191
     72  CZ3       -9.9970   49.7470  -46.2430 C.ar   73  TRP73       0.0001
     73  CH2      -10.5590   49.9070  -47.5180 C.ar   73  TRP73       0.0015
     74  N        -11.3440   51.8910  -43.7660 N.3    86  CYS86      -0.1235
     75  CA       -11.3840   53.2980  -44.1320 C.3    86  CYS86       0.1677
     76  C        -12.6960   53.9030  -43.6530 C.2    86  CYS86       0.2270
     77  O        -13.7460   53.7050  -44.2650 O.2    86  CYS86      -0.2867
     78  CB       -11.2300   53.4870  -45.6390 C.3    86  CYS86       0.0956
     79  SG       -11.2050   55.2220  -46.1440 S.3    86  CYS86      -0.0801
     80  N        -15.1550   51.3880  -45.0420 N.3    98  LEU98      -0.1245
     81  CA       -14.7190   50.3910  -46.0050 C.3    98  LEU98       0.1561
     82  C        -13.8100   49.3960  -45.2980 C.2    98  LEU98       0.2260
     83  O        -12.8740   49.7920  -44.6130 O.2    98  LEU98      -0.2867
     84  CB       -13.9850   51.0470  -47.1740 C.3    98  LEU98       0.0270
     85  CG       -14.6250   52.2860  -47.8030 C.3    98  LEU98       0.0019
     86  CD1      -13.7230   52.8320  -48.8960 C.3    98  LEU98       0.0001
     87  CD2      -16.0090   51.9780  -48.3550 C.3    98  LEU98       0.0001
@<TRIPOS>BOND
     1    26    25    1
     2     3     4    2
     3     3     2    1
     4     5     2    1
     5     5     6    1
     6    25    22    1
     7     1     2    1
     8    23    24    2
     9    23    22    1
    10     6     7    1
    11    22    21    1
    12    21    12   am
    13    10    11    1
    14     7     8   ar
    15     7     9   ar
    16    12    11    1
    17    12    13    2
    18    11    14    1
    19    14    15    1
    20    27    28    1
    21    42    40   ar
    22    29    28    1
    23    29    30    2
    24    15    17   ar
    25    15    16   ar
    26    28    31    1
    27    17    19   ar
    28    31    33    1
    29    31    32    1
    30    16    18   ar
    31    40    41   ar
    32    40    39    1
    33    19    20   ar
    34    18    20   ar
    35    32    34    1
    36    39    36    1
    37    36    35    1
    38    36    37    1
    39    68    69   ar
    40    68    66   ar
    41    86    85    1
    42    71    69   ar
    43    71    73   ar
    44    49    48    1
    45    87    85    1
    46    69    67   ar
    47    66    65   ar
    48    37    38    2
    49    85    84    1
    50    73    72   ar
    51    84    81    1
    52    48    47    1
    53    48    50    1
    54    47    44    1
    55    65    67   ar
    56    65    64    1
    57    67    70   ar
    58    72    70   ar
    59    79    78    1
    60    81    82    1
    61    81    80    1
    62    46    45    2
    63    64    61    1
    64    78    75    1
    65    44    45    1
    66    44    43    1
    67    45    51   am
    68    82    83    2
    69    60    61    1
    70    60    53   am
    71    51    52    1
    72    61    62    1
    73    52    53    1
    74    52    55    1
    75    53    54    2
    76    77    76    2
    77    75    74    1
    78    75    76    1
    79    55    56    1
    80    62    63    2
    81    56    57    1
    82    57    58    2
    83    57    59   am
