@<TRIPOS>MOLECULE
tmp/5hk2B00.pdb
 224 212 0 0 0
SMALL
GASTEIGER

@<TRIPOS>ATOM
      1  N         -6.5960   46.8110  -38.8280 N.3    76  VAL76      -0.1245
      2  CA        -7.4350   46.4710  -37.6900 C.3    76  VAL76       0.1561
      3  C         -7.1050   45.0650  -37.2270 C.2    76  VAL76       0.2260
      4  O         -7.1120   44.1280  -38.0230 O.2    76  VAL76      -0.2867
      5  CB        -8.9370   46.5540  -38.0270 C.3    76  VAL76       0.0252
      6  CG1       -9.7740   46.2910  -36.7790 C.3    76  VAL76       0.0019
      7  CG2       -9.2750   47.9060  -38.6240 C.3    76  VAL76       0.0019
      8  N         -8.2470   38.0130  -36.1100 N.3    81  TRP81      -0.1241
      9  CA        -8.1710   38.3550  -37.5240 C.3    81  TRP81       0.1605
     10  C         -7.4990   39.7040  -37.7180 C.2    81  TRP81       0.2264
     11  O         -7.3030   40.4610  -36.7650 O.2    81  TRP81      -0.2867
     12  CB        -9.5600   38.3510  -38.1820 C.3    81  TRP81       0.0550
     13  CG       -10.6140   39.1510  -37.4760 C.ar   81  TRP81       0.0003
     14  CD1      -11.6060   38.6640  -36.6780 C.ar   81  TRP81       0.0946
     15  CD2      -10.7960   40.5740  -37.5190 C.ar   81  TRP81       0.0152
     16  NE1      -12.3880   39.6930  -36.2120 N.ar   81  TRP81      -0.2442
     17  CE2      -11.9120   40.8760  -36.7140 C.ar   81  TRP81       0.0810
     18  CE3      -10.1200   41.6220  -38.1520 C.ar   81  TRP81       0.0012
     19  CZ2      -12.3680   42.1820  -36.5250 C.ar   81  TRP81       0.0191
     20  CZ3      -10.5740   42.9180  -37.9640 C.ar   81  TRP81       0.0001
     21  CH2      -11.6870   43.1860  -37.1570 C.ar   81  TRP81       0.0015
     22  N         -9.2950   49.1890  -42.5300 N.3    85  MET85      -0.1245
     23  CA       -10.5350   49.9520  -42.5750 C.3    85  MET85       0.1570
     24  C        -10.3210   51.3650  -43.1040 C.2    85  MET85       0.2261
     25  O         -9.2550   51.9570  -42.9320 O.2    85  MET85      -0.2867
     26  CB       -11.1840   50.0160  -41.1880 C.3    85  MET85       0.0387
     27  CG       -10.4200   50.8760  -40.1980 C.3    85  MET85       0.0595
     28  SD       -11.4610   51.9760  -39.2250 S.3    85  MET85      -0.1393
     29  CE       -10.2510   53.1940  -38.6970 C.3    85  MET85       0.0692
     30  N        -12.6260   54.6320  -42.5460 N.3    87  LEU87      -0.1245
     31  CA       -13.8050   55.2270  -41.9350 C.3    87  LEU87       0.1561
     32  C        -14.3630   56.3550  -42.7920 C.2    87  LEU87       0.2260
     33  O        -13.6260   57.2450  -43.2120 O.2    87  LEU87      -0.2867
     34  CB       -13.4640   55.7460  -40.5410 C.3    87  LEU87       0.0270
     35  CG       -14.6350   55.9720  -39.5940 C.3    87  LEU87       0.0019
     36  CD1      -15.4260   54.6880  -39.4510 C.3    87  LEU87       0.0001
     37  CD2      -14.1200   56.4390  -38.2470 C.3    87  LEU87       0.0001
     38  N        -18.9210   58.4630  -38.7620 N.3    90  ALA90      -0.1245
     39  CA       -18.8030   57.9940  -37.3820 C.3    90  ALA90       0.1562
     40  C        -19.4360   58.9410  -36.3630 C.2    90  ALA90       0.2260
     41  O        -19.0350   60.0980  -36.2350 O.2    90  ALA90      -0.2867
     42  CB       -17.3400   57.7680  -37.0300 C.3    90  ALA90       0.0290
     43  N        -21.9120   54.2560  -37.8080 N.3    95  TYR95      -0.1241
     44  CA       -20.6510   54.3710  -38.5300 C.3    95  TYR95       0.1605
     45  C        -20.7410   53.7080  -39.9000 C.2    95  TYR95       0.2264
     46  O        -21.4730   52.7370  -40.0860 O.2    95  TYR95      -0.2867
     47  CB       -19.4910   53.7740  -37.7210 C.3    95  TYR95       0.0534
     48  CG       -19.4440   52.2610  -37.6530 C.ar   95  TYR95      -0.0201
     49  CD1      -18.8160   51.5170  -38.6460 C.ar   95  TYR95      -0.0009
     50  CD2      -19.9970   51.5770  -36.5810 C.ar   95  TYR95      -0.0009
     51  CE1      -18.7640   50.1390  -38.5840 C.ar   95  TYR95       0.0417
     52  CE2      -19.9440   50.1990  -36.5080 C.ar   95  TYR95       0.0417
     53  CZ       -19.3270   49.4870  -37.5130 C.ar   95  TYR95       0.1957
     54  OH       -19.2700   48.1160  -37.4490 O.3    95  TYR95      -0.2866
     55  N        -17.8960   52.4070  -42.8740 N.3    97  LEU97      -0.1245
     56  CA       -16.4880   52.2520  -43.2220 C.3    97  LEU97       0.1561
     57  C        -16.2670   51.2350  -44.3330 C.2    97  LEU97       0.2260
     58  O        -17.0800   50.3350  -44.5410 O.2    97  LEU97      -0.2867
     59  CB       -15.6750   51.8570  -41.9830 C.3    97  LEU97       0.0270
     60  CG       -16.1190   50.6610  -41.1330 C.3    97  LEU97       0.0019
     61  CD1      -15.7070   49.3210  -41.7390 C.3    97  LEU97       0.0001
     62  CD2      -15.5610   50.7960  -39.7280 C.3    97  LEU97       0.0001
     63  N        -14.0850   48.1070  -45.4550 N.3    99  PHE99      -0.1241
     64  CA       -13.2820   47.0830  -44.7960 C.3    99  PHE99       0.1605
     65  C        -12.8950   45.9690  -45.7630 C.2    99  PHE99       0.2264
     66  O        -13.6060   45.7000  -46.7330 O.2    99  PHE99      -0.2867
     67  CB       -14.0390   46.5030  -43.5970 C.3    99  PHE99       0.0534
     68  CG       -13.2690   45.4560  -42.8400 C.ar   99  PHE99      -0.0203
     69  CD1      -12.3590   45.8180  -41.8600 C.ar   99  PHE99      -0.0042
     70  CD2      -13.4540   44.1090  -43.1100 C.ar   99  PHE99      -0.0042
     71  CE1      -11.6490   44.8530  -41.1620 C.ar   99  PHE99      -0.0003
     72  CE2      -12.7460   43.1400  -42.4190 C.ar   99  PHE99      -0.0003
     73  CZ       -11.8440   43.5120  -41.4430 C.ar   99  PHE99      -0.0000
     74  N        -16.0110   37.1970  -34.6140 N.3   109  SER109     -0.1217
     75  CA       -16.8250   38.3360  -35.0440 C.3   109  SER109      0.1889
     76  C        -16.9240   39.4260  -33.9760 C.2   109  SER109      0.2288
     77  O        -17.0000   40.6140  -34.2910 O.2   109  SER109     -0.2866
     78  CB       -18.2340   37.8720  -35.4120 C.3   109  SER109      0.2089
     79  OG       -18.9470   37.4760  -34.2520 O.3   109  SER109     -0.2183
     80  N        -21.2250   42.5600  -30.0800 N.3   112  TYR112     -0.1241
     81  CA       -21.4550   43.9960  -29.9950 C.3   112  TYR112      0.1605
     82  C        -22.8110   44.3350  -29.3930 C.2   112  TYR112      0.2264
     83  O        -23.7540   43.5470  -29.4680 O.2   112  TYR112     -0.2867
     84  CB       -21.3590   44.6420  -31.3780 C.3   112  TYR112      0.0534
     85  CG       -20.1330   44.2650  -32.1680 C.ar  112  TYR112     -0.0201
     86  CD1      -18.9040   44.8450  -31.8970 C.ar  112  TYR112     -0.0009
     87  CD2      -20.2110   43.3400  -33.2000 C.ar  112  TYR112     -0.0009
     88  CE1      -17.7790   44.5070  -32.6250 C.ar  112  TYR112      0.0417
     89  CE2      -19.0940   42.9950  -33.9340 C.ar  112  TYR112      0.0417
     90  CZ       -17.8820   43.5810  -33.6420 C.ar  112  TYR112      0.1957
     91  OH       -16.7690   43.2380  -34.3720 O.3   112  TYR112     -0.2866
     92  N        -24.6430   45.2670  -37.1050 N.3   116  ILE116     -0.1245
     93  CA       -23.6690   45.5120  -38.1610 C.3   116  ILE116      0.1561
     94  C        -23.9890   44.7330  -39.4310 C.2   116  ILE116      0.2260
     95  O        -24.1480   43.5140  -39.3990 O.2   116  ILE116     -0.2867
     96  CB       -22.2520   45.1410  -37.7000 C.3   116  ILE116      0.0252
     97  CG1      -21.8870   45.9180  -36.4360 C.3   116  ILE116      0.0019
     98  CG2      -21.2490   45.4130  -38.8020 C.3   116  ILE116      0.0019
     99  CD1      -20.5050   45.6110  -35.9200 C.3   116  ILE116      0.0001
    100  N        -22.7910   44.0080  -43.5060 N.3   118  ASP118     -0.1239
    101  CA       -21.6920   44.0960  -44.4590 C.3   118  ASP118      0.1674
    102  C        -22.1310   43.6780  -45.8570 C.2   118  ASP118      0.2266
    103  O        -22.6530   42.5840  -46.0470 O.2   118  ASP118     -0.2867
    104  CB       -20.5190   43.2240  -44.0040 C.3   118  ASP118      0.1410
    105  CG       -19.7820   43.8080  -42.8150 C.2   118  ASP118      0.3668
    106  OD1      -20.1690   43.5090  -41.6660 O.co2 118  ASP118     -0.2456
    107  OD2      -18.8110   44.5630  -43.0300 O.co2 118  ASP118     -0.2456
    108  N        -17.0850   35.8910  -48.2510 N.3   125  PHE125     -0.1241
    109  CA       -17.3110   36.0380  -46.8180 C.3   125  PHE125      0.1605
    110  C        -17.9120   34.7570  -46.2450 C.2   125  PHE125      0.2264
    111  O        -19.0610   34.4220  -46.5320 O.2   125  PHE125     -0.2867
    112  CB       -18.2300   37.2310  -46.5390 C.3   125  PHE125      0.0534
    113  CG       -18.3420   37.5940  -45.0810 C.ar  125  PHE125     -0.0203
    114  CD1      -19.0450   36.7900  -44.1960 C.ar  125  PHE125     -0.0042
    115  CD2      -17.7690   38.7580  -44.6000 C.ar  125  PHE125     -0.0042
    116  CE1      -19.1500   37.1270  -42.8610 C.ar  125  PHE125     -0.0003
    117  CE2      -17.8770   39.1030  -43.2640 C.ar  125  PHE125     -0.0003
    118  CZ       -18.5670   38.2860  -42.3950 C.ar  125  PHE125     -0.0000
    119  N        -25.0780   41.3400  -38.9300 N.3   146  HIS146     -0.1241
    120  CA       -24.6130   40.8360  -37.6430 C.3   146  HIS146      0.1621
    121  C        -25.4170   41.4660  -36.5100 C.2   146  HIS146      0.2264
    122  O        -25.1210   42.5760  -36.0650 O.2   146  HIS146     -0.2867
    123  CB       -23.1180   41.1220  -37.4670 C.3   146  HIS146      0.0745
    124  CG       -22.4790   40.3480  -36.3560 C.ar  146  HIS146      0.0817
    125  ND1      -22.5400   38.9730  -36.2760 N.ar  146  HIS146     -0.2268
    126  CD2      -21.7580   40.7570  -35.2860 C.ar  146  HIS146      0.1154
    127  CE1      -21.8880   38.5690  -35.2010 C.ar  146  HIS146      0.1986
    128  NE2      -21.4040   39.6310  -34.5820 N.ar  146  HIS146     -0.2212
    129  N        -15.8580   34.1430  -38.4010 N.3   154  VAL154     -0.1245
    130  CA       -15.8480   34.7140  -39.7420 C.3   154  VAL154      0.1561
    131  C        -14.5490   34.4260  -40.4910 C.2   154  VAL154      0.2260
    132  O        -13.4910   34.2500  -39.8870 O.2   154  VAL154     -0.2867
    133  CB       -16.0860   36.2410  -39.6970 C.3   154  VAL154      0.0252
    134  CG1      -17.4850   36.5410  -39.1840 C.3   154  VAL154      0.0019
    135  CG2      -15.0400   36.9240  -38.8290 C.3   154  VAL154      0.0019
    136  N        -12.5040   35.6860  -44.2510 N.3   156  TRP156     -0.1241
    137  CA       -12.4150   36.4210  -45.5000 C.3   156  TRP156      0.1605
    138  C        -11.4210   35.7470  -46.4330 C.2   156  TRP156      0.2264
    139  O        -10.3610   35.2950  -46.0020 O.2   156  TRP156     -0.2867
    140  CB       -12.0060   37.8720  -45.2450 C.3   156  TRP156      0.0550
    141  CG       -12.9420   38.6010  -44.3370 C.ar  156  TRP156      0.0003
    142  CD1      -14.1770   39.0800  -44.6520 C.ar  156  TRP156      0.0946
    143  CD2      -12.7160   38.9410  -42.9650 C.ar  156  TRP156      0.0152
    144  NE1      -14.7390   39.6950  -43.5600 N.ar  156  TRP156     -0.2442
    145  CE2      -13.8620   39.6240  -42.5110 C.ar  156  TRP156      0.0810
    146  CE3      -11.6580   38.7350  -42.0760 C.ar  156  TRP156      0.0012
    147  CZ2      -13.9810   40.1030  -41.2080 C.ar  156  TRP156      0.0191
    148  CZ3      -11.7770   39.2110  -40.7820 C.ar  156  TRP156      0.0001
    149  CH2      -12.9310   39.8870  -40.3600 C.ar  156  TRP156      0.0015
    150  N        -15.5100   44.9750  -48.7090 N.3   162  MET162     -0.1245
    151  CA       -16.9210   45.1770  -48.4250 C.3   162  MET162      0.1570
    152  C        -17.2190   46.5720  -47.9040 C.2   162  MET162      0.2261
    153  O        -16.3150   47.3150  -47.5280 O.2   162  MET162     -0.2867
    154  CB       -17.3940   44.1470  -47.4060 C.3   162  MET162      0.0387
    155  CG       -16.7070   44.2890  -46.0650 C.3   162  MET162      0.0595
    156  SD       -16.7910   42.7860  -45.0830 S.3   162  MET162     -0.1393
    157  CE       -16.0300   41.6270  -46.2110 C.3   162  MET162      0.0692
    158  N        -19.3870   48.4680  -44.9240 N.3   164  GLU164     -0.1245
    159  CA       -19.9610   48.1070  -43.6390 C.3   164  GLU164      0.1567
    160  C        -20.6740   49.2740  -42.9720 C.2   164  GLU164      0.2260
    161  O        -20.1200   50.3680  -42.8520 O.2   164  GLU164     -0.2867
    162  CB       -18.8760   47.5620  -42.7120 C.3   164  GLU164      0.0388
    163  CG       -19.3900   47.1560  -41.3440 C.3   164  GLU164      0.1160
    164  CD       -18.3320   46.4770  -40.5000 C.2   164  GLU164      0.3649
    165  OE1      -18.2960   46.7270  -39.2780 O.co2 164  GLU164     -0.2457
    166  OE2      -17.5380   45.6900  -41.0560 O.co2 164  GLU164     -0.2457
    167  N        -21.7620   52.4810  -30.5040 N.3   170  ILE170     -0.1245
    168  CA       -20.5230   52.4000  -31.2820 C.3   170  ILE170      0.1561
    169  C        -19.2120   52.4280  -30.4670 C.2   170  ILE170      0.2260
    170  O        -18.3080   51.6420  -30.7600 O.2   170  ILE170     -0.2867
    171  CB       -20.4880   53.5300  -32.3520 C.3   170  ILE170      0.0252
    172  CG1      -21.0750   53.0320  -33.6720 C.3   170  ILE170      0.0019
    173  CG2      -19.0690   54.0170  -32.6050 C.3   170  ILE170      0.0019
    174  CD1      -22.4200   52.3540  -33.5530 C.3   170  ILE170      0.0001
    175  N        -18.0720   49.0600  -29.4860 N.3   173  THR173     -0.1203
    176  CA       -17.5730   48.2300  -30.5780 C.3   173  THR173      0.1994
    177  C        -16.1010   48.5230  -30.8410 C.2   173  THR173      0.2617
    178  O        -15.3470   47.6510  -31.2760 O.2   173  THR173     -0.2717
    179  CB       -18.3660   48.4510  -31.8770 C.3   173  THR173      0.1784
    180  OG1      -18.0190   49.7220  -32.4410 O.3   173  THR173     -0.2211
    181  CG2      -19.8580   48.4050  -31.6050 C.3   173  THR173      0.0376
    182  N        -15.7040   49.7610  -30.5700 N.am  174  LEU174     -0.1979
    183  CA       -14.3210   50.1820  -30.7400 C.3   174  LEU174      0.1596
    184  C        -13.4170   49.4660  -29.7380 C.2   174  LEU174      0.2287
    185  O        -12.2270   49.2760  -29.9900 O.2   174  LEU174     -0.2864
    186  CB       -14.2030   51.6990  -30.5810 C.3   174  LEU174      0.0297
    187  CG       -12.9480   52.3540  -31.1580 C.3   174  LEU174      0.0022
    188  CD1      -12.9750   52.3250  -32.6780 C.3   174  LEU174      0.0001
    189  CD2      -12.7980   53.7760  -30.6440 C.3   174  LEU174      0.0001
    190  N        -13.6470   46.3530  -28.9480 N.3   176  PHE176     -0.1227
    191  CA       -13.3360   45.0490  -29.5220 C.3   176  PHE176      0.1736
    192  C        -12.3270   45.1580  -30.6620 C.2   176  PHE176      0.2595
    193  O        -11.4190   44.3360  -30.7720 O.2   176  PHE176     -0.2718
    194  CB       -14.6110   44.3600  -30.0170 C.3   176  PHE176      0.0547
    195  CG       -14.3540   43.1240  -30.8340 C.ar  176  PHE176     -0.0202
    196  CD1      -13.9910   41.9340  -30.2230 C.ar  176  PHE176     -0.0042
    197  CD2      -14.4800   43.1510  -32.2130 C.ar  176  PHE176     -0.0042
    198  CE1      -13.7530   40.7950  -30.9740 C.ar  176  PHE176     -0.0003
    199  CE2      -14.2450   42.0170  -32.9680 C.ar  176  PHE176     -0.0003
    200  CZ       -13.8810   40.8380  -32.3480 C.ar  176  PHE176     -0.0000
    201  N        -12.4850   46.1790  -31.5000 N.am  177  ALA177     -0.1980
    202  CA       -11.6400   46.3480  -32.6800 C.3   177  ALA177      0.1597
    203  C        -10.1830   46.6590  -32.3350 C.2   177  ALA177      0.2287
    204  O         -9.2980   46.5460  -33.1870 O.2   177  ALA177     -0.2864
    205  CB       -12.2080   47.4420  -33.5730 C.3   177  ALA177      0.0319
    206  N         -6.5490   54.8360  -35.4630 N.3   194  THR194     -0.1218
    207  CA        -7.9610   54.4970  -35.3340 C.3   194  THR194      0.1862
    208  C         -8.6950   55.5030  -34.4550 C.2   194  THR194      0.2287
    209  O         -9.7410   56.0170  -34.8430 O.2   194  THR194     -0.2866
    210  CB        -8.1570   53.0830  -34.7550 C.3   194  THR194      0.1770
    211  OG1       -7.3880   52.9460  -33.5550 O.3   194  THR194     -0.2211
    212  CG2       -7.7120   52.0270  -35.7550 C.3   194  THR194      0.0375
    213  N        -11.7380   58.0470  -35.4520 N.3   198  TYR198     -0.1241
    214  CA       -13.0010   58.1470  -34.7390 C.3   198  TYR198      0.1605
    215  C        -13.2500   59.5910  -34.3270 C.2   198  TYR198      0.2264
    216  O        -14.3600   60.1050  -34.4710 O.2   198  TYR198     -0.2867
    217  CB       -13.0050   57.2330  -33.5100 C.3   198  TYR198      0.0534
    218  CG       -14.3600   57.0880  -32.8520 C.ar  198  TYR198     -0.0201
    219  CD1      -15.5300   57.3580  -33.5510 C.ar  198  TYR198     -0.0009
    220  CD2      -14.4690   56.6900  -31.5270 C.ar  198  TYR198     -0.0009
    221  CE1      -16.7690   57.2280  -32.9520 C.ar  198  TYR198      0.0417
    222  CE2      -15.7030   56.5550  -30.9190 C.ar  198  TYR198      0.0417
    223  CZ       -16.8490   56.8270  -31.6360 C.ar  198  TYR198      0.1957
    224  OH       -18.0800   56.6970  -31.0360 O.3   198  TYR198     -0.2866
@<TRIPOS>BOND
     1   150   151    1
     2   151   152    1
     3   151   154    1
     4   108   109    1
     5   152   153    2
     6   154   155    1
     7   109   112    1
     8   109   110    1
     9    66    65    2
    10   112   113    1
    11   111   110    2
    12   138   139    2
    13   138   137    1
    14   157   156    1
    15   155   156    1
    16   103   102    2
    17   102   101    1
    18    65    64    1
    19   137   140    1
    20   137   136    1
    21    63    64    1
    22   140   141    1
    23   113   115   ar
    24   113   114   ar
    25   158   159    1
    26    64    67    1
    27   142   141   ar
    28   142   144   ar
    29   115   117   ar
    30    58    57    2
    31   101   104    1
    32   101   100    1
    33   141   143   ar
    34    57    56    1
    35   114   116   ar
    36   104   105    1
    37   159   160    1
    38   159   162    1
    39    67    68    1
    40   144   145   ar
    41   117   118   ar
    42    56    55    1
    43    56    59    1
    44    33    32    2
    45    70    68   ar
    46    70    72   ar
    47    24    25    2
    48    24    23    1
    49   107   105   ar
    50   160   161    2
    51   143   145   ar
    52   143   146   ar
    53   116   118   ar
    54    68    69   ar
    55   105   106   ar
    56    32    31    1
    57   162   163    1
    58    23    22    1
    59    23    26    1
    60    30    31    1
    61   145   147   ar
    62    72    73   ar
    63   146   148   ar
    64    59    60    1
    65    31    34    1
    66    69    71   ar
    67    61    60    1
    68    73    71   ar
    69   163   164    1
    70   147   149   ar
    71    26    27    1
    72    60    62    1
    73   166   164   ar
    74   148   149   ar
    75    34    35    1
    76   164   165   ar
    77   131   132    2
    78   131   130    1
    79    27    28    1
    80    46    45    2
    81    45    44    1
    82   130   133    1
    83   130   129    1
    84   133   134    1
    85   133   135    1
    86    35    36    1
    87    35    37    1
    88    94    95    2
    89    94    93    1
    90    28    29    1
    91   119   120    1
    92     1     2    1
    93    98    96    1
    94    38    39    1
    95    49    51   ar
    96    49    48   ar
    97     7     5    1
    98    51    53   ar
    99    44    43    1
   100    44    47    1
   101    12     9    1
   102    12    13    1
   103    93    96    1
   104    93    92    1
   105    18    20   ar
   106    18    15   ar
   107     5     2    1
   108     5     6    1
   109     4     3    2
   110    20    21   ar
   111    47    48    1
   112    10     9    1
   113    10    11    2
   114    96    97    1
   115     2     3    1
   116    48    50   ar
   117   120   123    1
   118   120   121    1
   119     9     8    1
   120    15    13   ar
   121    15    17   ar
   122    53    54    1
   123    53    52   ar
   124    13    14   ar
   125   123   124    1
   126    39    42    1
   127    39    40    1
   128    21    19   ar
   129    17    19   ar
   130    17    16   ar
   131    14    16   ar
   132    50    52   ar
   133   121   122    2
   134    97    99    1
   135    40    41    2
   136   124   125   ar
   137   124   126   ar
   138   125   127   ar
   139   212   210    1
   140   206   207    1
   141   213   214    1
   142    78    75    1
   143    78    79    1
   144   207   210    1
   145   207   208    1
   146   126   128   ar
   147   127   128   ar
   148    75    74    1
   149    75    76    1
   150   209   208    2
   151   210   211    1
   152   214   215    1
   153   214   217    1
   154   216   215    2
   155    91    90    1
   156    77    76    2
   157    89    90   ar
   158    89    87   ar
   159   172   174    1
   160   172   171    1
   161    90    88   ar
   162   205   202    1
   163   219   221   ar
   164   219   218   ar
   165   217   218    1
   166    87    85   ar
   167   204   203    2
   168   199   200   ar
   169   199   197   ar
   170   221   223   ar
   171   218   220   ar
   172   202   203    1
   173   202   201    1
   174   188   187    1
   175    88    86   ar
   176   173   171    1
   177   180   179    1
   178   171   168    1
   179   200   198   ar
   180   197   195   ar
   181    85    86   ar
   182    85    84    1
   183   179   181    1
   184   179   176    1
   185   223   224    1
   186   223   222   ar
   187   220   222   ar
   188   201   192   am
   189    84    81    1
   190   168   167    1
   191   168   169    1
   192   178   177    2
   193   187   189    1
   194   187   186    1
   195   198   196   ar
   196   177   176    1
   197   177   182   am
   198   195   196   ar
   199   195   194    1
   200   193   192    2
   201   170   169    2
   202   183   186    1
   203   183   182    1
   204   183   184    1
   205   192   191    1
   206   176   175    1
   207    80    81    1
   208   194   191    1
   209    81    82    1
   210   185   184    2
   211   191   190    1
   212    83    82    2
