@<TRIPOS>MOLECULE
tmp/5hk7B03.pdb
 90 86 0 0 0
SMALL
GASTEIGER

@<TRIPOS>ATOM
      1  N         19.6620   39.7300   62.8400 N.3    10  LEU10      -0.1231
      2  CA        19.4670   38.4240   63.4450 C.3    10  LEU10       0.1693
      3  C         18.8220   38.5540   64.8330 C.2    10  LEU10       0.2591
      4  O         17.7840   37.9370   65.0790 O.2    10  LEU10      -0.2718
      5  CB        20.7930   37.6660   63.5160 C.3    10  LEU10       0.0284
      6  CG        20.7420   36.2400   64.0430 C.3    10  LEU10       0.0019
      7  CD1       20.2380   35.3100   62.9580 C.3    10  LEU10       0.0001
      8  CD2       22.1060   35.8150   64.5840 C.3    10  LEU10       0.0001
      9  N         19.4040   39.3810   65.7110 N.am   11  LEU11      -0.1980
     10  CA        18.8310   39.6340   67.0470 C.3    11  LEU11       0.1596
     11  C         17.3800   40.0520   66.9560 C.2    11  LEU11       0.2287
     12  O         16.5790   39.6730   67.7760 O.2    11  LEU11      -0.2864
     13  CB        19.6250   40.6830   67.8260 C.3    11  LEU11       0.0297
     14  CG        21.0050   40.2770   68.3720 C.3    11  LEU11       0.0022
     15  CD1       21.6550   39.0940   67.6530 C.3    11  LEU11       0.0001
     16  CD2       21.9250   41.4890   68.3190 C.3    11  LEU11       0.0001
     17  N         16.6910   29.2420   69.6520 N.3    44  PHE44      -0.1241
     18  CA        18.0800   28.9150   69.5040 C.3    44  PHE44       0.1605
     19  C         18.2970   27.4630   69.0980 C.2    44  PHE44       0.2264
     20  O         18.9530   27.1620   68.1030 O.2    44  PHE44      -0.2867
     21  CB        18.8590   29.2070   70.7520 C.3    44  PHE44       0.0534
     22  CG        20.2960   29.0990   70.5260 C.ar   44  PHE44      -0.0203
     23  CD1       20.8870   29.8520   69.5370 C.ar   44  PHE44      -0.0042
     24  CD2       21.0420   28.1780   71.2000 C.ar   44  PHE44      -0.0042
     25  CE1       22.2410   29.7400   69.2600 C.ar   44  PHE44      -0.0003
     26  CE2       22.3970   28.0440   70.9460 C.ar   44  PHE44      -0.0003
     27  CZ        22.9990   28.8240   69.9690 C.ar   44  PHE44      -0.0000
     28  N         17.0610   27.0220   65.7170 N.3    47  MET47      -0.1230
     29  CA        17.7910   27.7250   64.6980 C.3    47  MET47       0.1702
     30  C         18.9800   26.8930   64.2810 C.2    47  MET47       0.2593
     31  O         19.4160   27.0350   63.1240 O.2    47  MET47      -0.2718
     32  CB        18.2320   29.1090   65.1830 C.3    47  MET47       0.0401
     33  CG        19.0900   29.8710   64.1940 C.3    47  MET47       0.0596
     34  SD        20.1090   31.0880   65.0360 S.3    47  MET47      -0.1393
     35  CE        21.7150   30.3020   64.8130 C.3    47  MET47       0.0692
     36  N         19.4720   26.0550   65.2220 N.am   48  THR48      -0.1939
     37  CA        20.6010   25.1230   65.0100 C.3    48  THR48       0.2028
     38  C         20.1090   23.7420   64.5220 C.2    48  THR48       0.2642
     39  O         20.8660   22.7200   64.4470 O.2    48  THR48      -0.2714
     40  CB        21.4790   24.9850   66.2600 C.3    48  THR48       0.1808
     41  OG1       20.9780   23.9480   67.0830 O.3    48  THR48      -0.2208
     42  CG2       21.4100   26.1970   67.0610 C.3    48  THR48       0.0379
     43  N         18.8160   23.7530   64.1840 N.am   49  LEU49      -0.1977
     44  CA        18.0830   22.6150   63.6370 C.3    49  LEU49       0.1596
     45  C         18.0710   21.3460   64.4890 C.2    49  LEU49       0.2287
     46  O         18.0920   20.2290   63.9590 O.2    49  LEU49      -0.2864
     47  CB        18.6030   22.2800   62.2620 C.3    49  LEU49       0.0297
     48  CG        18.7420   23.4100   61.2820 C.3    49  LEU49       0.0022
     49  CD1       19.0330   22.8170   59.9130 C.3    49  LEU49       0.0001
     50  CD2       17.4460   24.1980   61.2780 C.3    49  LEU49       0.0001
     51  N         18.1550   31.0860   58.6510 N.3    79  SER79      -0.1217
     52  CA        19.2880   30.4700   57.9740 C.3    79  SER79       0.1889
     53  C         19.8550   31.4620   56.9870 C.2    79  SER79       0.2288
     54  O         21.0740   31.6350   56.9250 O.2    79  SER79      -0.2866
     55  CB        18.9030   29.1770   57.2620 C.3    79  SER79       0.2089
     56  OG        18.3390   28.2770   58.1840 O.3    79  SER79      -0.2183
     57  N         21.9330   33.8570   58.9490 N.3    82  VAL82      -0.1231
     58  CA        23.1190   33.2800   59.5420 C.3    82  VAL82       0.1692
     59  C         24.1020   33.0960   58.4200 C.2    82  VAL82       0.2591
     60  O         25.3130   33.1300   58.6360 O.2    82  VAL82      -0.2718
     61  CB        22.8530   31.8840   60.1090 C.3    82  VAL82       0.0266
     62  CG1       24.1430   31.2810   60.6560 C.3    82  VAL82       0.0020
     63  CG2       21.7730   31.9160   61.1770 C.3    82  VAL82       0.0020
     64  N         23.5530   32.8720   57.2250 N.am   83  LEU83      -0.1980
     65  CA        24.3530   32.5690   56.0520 C.3    83  LEU83       0.1596
     66  C         25.2140   33.7560   55.8160 C.2    83  LEU83       0.2287
     67  O         26.4020   33.6340   55.5810 O.2    83  LEU83      -0.2864
     68  CB        23.4790   32.3710   54.8230 C.3    83  LEU83       0.0297
     69  CG        24.2100   32.0700   53.5160 C.3    83  LEU83       0.0022
     70  CD1       25.1640   30.9080   53.6910 C.3    83  LEU83       0.0001
     71  CD2       23.1900   31.6750   52.4660 C.3    83  LEU83       0.0001
     72  N         26.2400   36.4970   57.6790 N.3    85  LEU85      -0.1231
     73  CA        27.3520   36.7580   58.5530 C.3    85  LEU85       0.1693
     74  C         28.5260   35.9210   58.0970 C.2    85  LEU85       0.2592
     75  O         29.6500   36.3980   58.0570 O.2    85  LEU85      -0.2718
     76  CB        27.0110   36.3540   59.9560 C.3    85  LEU85       0.0284
     77  CG        26.7640   37.4790   60.9160 C.3    85  LEU85       0.0019
     78  CD1       25.2560   37.6260   61.0030 C.3    85  LEU85       0.0001
     79  CD2       27.3930   37.0450   62.2310 C.3    85  LEU85       0.0001
     80  N         28.2490   34.6630   57.7680 N.am   86  PHE86      -0.1976
     81  CA        29.2780   33.7370   57.3280 C.3    86  PHE86       0.1639
     82  C         29.8830   34.3080   56.0470 C.2    86  PHE86       0.2290
     83  O         31.0900   34.4050   55.9360 O.2    86  PHE86      -0.2864
     84  CB        28.6870   32.3210   57.1600 C.3    86  PHE86       0.0560
     85  CG        29.6420   31.2820   56.6020 C.ar   86  PHE86      -0.0200
     86  CD1       30.7150   30.8060   57.3500 C.ar   86  PHE86      -0.0042
     87  CD2       29.4300   30.7230   55.3410 C.ar   86  PHE86      -0.0042
     88  CE1       31.5770   29.8250   56.8370 C.ar   86  PHE86      -0.0003
     89  CE2       30.2880   29.7430   54.8270 C.ar   86  PHE86      -0.0003
     90  CZ        31.3610   29.2920   55.5760 C.ar   86  PHE86      -0.0000
@<TRIPOS>BOND
     1    71    69    1
     2    69    70    1
     3    69    68    1
     4    68    65    1
     5    89    87   ar
     6    89    90   ar
     7    87    85   ar
     8    90    88   ar
     9    67    66    2
    10    66    65    1
    11    83    82    2
    12    82    81    1
    13    65    64    1
    14    85    84    1
    15    85    86   ar
    16    88    86   ar
    17    54    53    2
    18    53    52    1
    19    84    81    1
    20    64    59   am
    21    55    52    1
    22    55    56    1
    23    81    80    1
    24    72    73    1
    25    80    74   am
    26    52    51    1
    27    75    74    2
    28    74    73    1
    29    59    60    2
    30    59    58    1
    31    73    76    1
    32    57    58    1
    33    58    61    1
    34    49    48    1
    35    76    77    1
    36    61    62    1
    37    61    63    1
    38    77    78    1
    39    77    79    1
    40    50    48    1
    41    48    47    1
    42    47    44    1
    43     1     2    1
    44     7     6    1
    45    31    30    2
    46     2     5    1
    47     2     3    1
    48     5     6    1
    49    44    43    1
    50    44    45    1
    51    46    45    2
    52     6     8    1
    53    43    38   am
    54    33    34    1
    55    33    32    1
    56    30    29    1
    57    30    36   am
    58    39    38    2
    59    38    37    1
    60    29    32    1
    61    29    28    1
    62    35    34    1
    63     3     4    2
    64     3     9   am
    65    37    36    1
    66    37    40    1
    67     9    10    1
    68    40    42    1
    69    40    41    1
    70    11    10    1
    71    11    12    2
    72    10    13    1
    73    15    14    1
    74    13    14    1
    75    20    19    2
    76    16    14    1
    77    19    18    1
    78    25    23   ar
    79    25    27   ar
    80    18    17    1
    81    18    21    1
    82    23    22   ar
    83    27    26   ar
    84    22    21    1
    85    22    24   ar
    86    26    24   ar
