@<TRIPOS>MOLECULE
tmp/5hk7A02.pdb
 98 94 0 0 0
SMALL
GASTEIGER

@<TRIPOS>ATOM
      1  N         15.6210   23.2820   42.6340 N.3    10  LEU10      -0.1231
      2  CA        15.3950   22.7140   43.9480 C.3    10  LEU10       0.1693
      3  C         13.9050   22.4660   44.1700 C.2    10  LEU10       0.2591
      4  O         13.5210   21.3440   44.4630 O.2    10  LEU10      -0.2718
      5  CB        15.9460   23.6510   45.0030 C.3    10  LEU10       0.0284
      6  CG        15.7910   23.2470   46.4360 C.3    10  LEU10       0.0019
      7  CD1       16.5620   21.9550   46.6210 C.3    10  LEU10       0.0001
      8  CD2       16.3260   24.3820   47.2800 C.3    10  LEU10       0.0001
      9  N         13.0760   23.4990   44.0020 N.am   11  LEU11      -0.1980
     10  CA        11.6340   23.3890   44.1970 C.3    11  LEU11       0.1596
     11  C         11.0480   22.3060   43.3150 C.2    11  LEU11       0.2287
     12  O         10.0130   21.7570   43.6270 O.2    11  LEU11      -0.2864
     13  CB        10.9390   24.7120   43.8930 C.3    11  LEU11       0.0297
     14  CG        10.7120   25.6640   45.0670 C.3    11  LEU11       0.0022
     15  CD1       12.0130   26.0880   45.7380 C.3    11  LEU11       0.0001
     16  CD2        9.9700   26.8950   44.5850 C.3    11  LEU11       0.0001
     17  N         11.8450   18.9070   45.1570 N.3    14  PHE14      -0.1241
     18  CA        10.8770   18.6840   46.2240 C.3    14  PHE14       0.1605
     19  C          9.6360   18.1170   45.6560 C.2    14  PHE14       0.2264
     20  O          9.1460   17.1010   46.1170 O.2    14  PHE14      -0.2867
     21  CB        10.4330   19.9610   46.8370 C.3    14  PHE14       0.0534
     22  CG        10.9800   20.1800   48.1520 C.ar   14  PHE14      -0.0203
     23  CD1       12.3620   20.0710   48.3490 C.ar   14  PHE14      -0.0042
     24  CD2       10.1450   20.5190   49.1880 C.ar   14  PHE14      -0.0042
     25  CE1       12.9190   20.2960   49.5790 C.ar   14  PHE14      -0.0003
     26  CE2       10.6820   20.7370   50.4270 C.ar   14  PHE14      -0.0003
     27  CZ        12.0700   20.6280   50.6240 C.ar   14  PHE14      -0.0000
     28  N          1.0400    7.5950   57.0230 N.3    30  PRO30      -0.2102
     29  CA         0.1610    8.7100   56.7300 C.3    30  PRO30       0.1504
     30  C          0.5380    9.9900   57.4320 C.2    30  PRO30       0.2575
     31  O          0.1180   11.0640   56.9900 O.2    30  PRO30      -0.2718
     32  CB        -1.1580    8.2800   57.3390 C.3    30  PRO30       0.0282
     33  CG        -0.7450    7.4200   58.4910 C.3    30  PRO30       0.0208
     34  CD         0.4260    6.6420   57.9600 C.3    30  PRO30       0.0893
     35  N          1.2510    9.9120   58.5550 N.am   31  GLU31      -0.1980
     36  CA         1.4300   11.1250   59.3400 C.3    31  GLU31       0.1602
     37  C          2.4000   11.9710   58.5760 C.2    31  GLU31       0.2287
     38  O          2.1740   13.1600   58.3270 O.2    31  GLU31      -0.2864
     39  CB         1.9770   10.7980   60.7230 C.3    31  GLU31       0.0415
     40  CG         0.9110   10.4900   61.7640 C.3    31  GLU31       0.1163
     41  CD         1.0560   11.3010   63.0440 C.2    31  GLU31       0.3649
     42  OE1        0.8140   12.5300   63.0100 O.co2  31  GLU31      -0.2457
     43  OE2        1.4010   10.7070   64.0910 O.co2  31  GLU31      -0.2457
     44  N         -0.3230   13.1350   52.6370 N.3    35  THR35      -0.1218
     45  CA        -0.8910   14.0900   51.7480 C.3    35  THR35       0.1862
     46  C          0.3310   14.8370   51.1920 C.2    35  THR35       0.2287
     47  O          1.4210   14.7140   51.7350 O.2    35  THR35      -0.2866
     48  CB        -1.8640   15.0420   52.4890 C.3    35  THR35       0.1770
     49  OG1       -1.6360   16.3790   52.0480 O.3    35  THR35      -0.2211
     50  CG2       -1.6940   15.0150   53.9930 C.3    35  THR35       0.0375
     51  N          1.0040   17.9780   51.1680 N.3    37  GLY37      -0.1210
     52  CA         1.4150   18.9810   52.1380 C.3    37  GLY37       0.1956
     53  C          2.2730   18.3170   53.1880 C.2    37  GLY37       0.2611
     54  O          3.3730   18.7890   53.5220 O.2    37  GLY37      -0.2717
     55  N          1.7630   17.1910   53.6790 N.am   38  ALA38      -0.1979
     56  CA         2.4360   16.4190   54.6890 C.3    38  ALA38       0.1597
     57  C          3.7880   16.0070   54.1870 C.2    38  ALA38       0.2287
     58  O          4.7990   16.1280   54.8690 O.2    38  ALA38      -0.2864
     59  CB         1.6290   15.1940   55.0010 C.3    38  ALA38       0.0319
     60  N          5.7680   17.1660   52.0560 N.3    40  MET40      -0.1230
     61  CA         6.7610   18.1700   51.7750 C.3    40  MET40       0.1702
     62  C          7.4070   18.5990   53.0440 C.2    40  MET40       0.2592
     63  O          8.6380   18.7820   53.1000 O.2    40  MET40      -0.2718
     64  CB         6.0710   19.3880   51.2240 C.3    40  MET40       0.0401
     65  CG         5.2900   19.0710   49.9940 C.3    40  MET40       0.0596
     66  SD         5.6600   20.3820   48.8560 S.3    40  MET40      -0.1393
     67  CE         6.9930   19.6860   47.8740 C.3    40  MET40       0.0692
     68  N          6.5510   18.8190   54.0440 N.am   41  TYR41      -0.1976
     69  CA         7.0270   19.1690   55.3540 C.3    41  TYR41       0.1639
     70  C          8.0840   18.1430   55.7370 C.2    41  TYR41       0.2290
     71  O          9.1770   18.4990   56.1780 O.2    41  TYR41      -0.2864
     72  CB         5.8960   19.1340   56.3740 C.3    41  TYR41       0.0560
     73  CG         6.3940   19.5010   57.7320 C.ar   41  TYR41      -0.0198
     74  CD1        6.8930   18.5370   58.6030 C.ar   41  TYR41      -0.0009
     75  CD2        6.4210   20.8200   58.1300 C.ar   41  TYR41      -0.0009
     76  CE1        7.3820   18.8840   59.8590 C.ar   41  TYR41       0.0417
     77  CE2        6.8970   21.1850   59.3750 C.ar   41  TYR41       0.0417
     78  CZ         7.3820   20.2170   60.2370 C.ar   41  TYR41       0.1957
     79  OH         7.8670   20.6100   61.4670 O.3    41  TYR41      -0.2866
     80  N         11.2030   18.6600   53.8310 N.3    44  PHE44      -0.1241
     81  CA        11.9370   19.8320   54.3040 C.3    44  PHE44       0.1605
     82  C         12.6740   19.4680   55.5880 C.2    44  PHE44       0.2264
     83  O         13.7710   19.9270   55.8640 O.2    44  PHE44      -0.2867
     84  CB        11.0090   21.0000   54.5820 C.3    44  PHE44       0.0534
     85  CG        11.7250   22.1810   55.1340 C.ar   44  PHE44      -0.0203
     86  CD1       12.7300   22.7710   54.4120 C.ar   44  PHE44      -0.0042
     87  CD2       11.4370   22.6770   56.3860 C.ar   44  PHE44      -0.0042
     88  CE1       13.4250   23.8640   54.9110 C.ar   44  PHE44      -0.0003
     89  CE2       12.1130   23.7710   56.8930 C.ar   44  PHE44      -0.0003
     90  CZ        13.1190   24.3600   56.1600 C.ar   44  PHE44      -0.0000
     91  N         15.6190   17.4670   54.7150 N.3    47  MET47      -0.1245
     92  CA        16.6210   18.2560   54.0760 C.3    47  MET47       0.1570
     93  C         17.4640   18.9910   55.0860 C.2    47  MET47       0.2261
     94  O         18.6390   19.2480   54.8270 O.2    47  MET47      -0.2867
     95  CB        15.9290   19.2630   53.2130 C.3    47  MET47       0.0387
     96  CG        16.7540   19.7370   52.0430 C.3    47  MET47       0.0595
     97  SD        16.0770   21.3050   51.4700 S.3    47  MET47      -0.1393
     98  CE        16.7530   22.3730   52.7680 C.3    47  MET47       0.0692
@<TRIPOS>BOND
     1     1     2    1
     2    11    12    2
     3    11    10    1
     4    13    10    1
     5    13    14    1
     6     2     3    1
     7     2     5    1
     8     9     3   am
     9     9    10    1
    10     3     4    2
    11    16    14    1
    12     5     6    1
    13    14    15    1
    14    17    18    1
    15    19    20    2
    16    19    18    1
    17    18    21    1
    18     6     7    1
    19     6     8    1
    20    21    22    1
    21    67    66    1
    22    22    23   ar
    23    22    24   ar
    24    23    25   ar
    25    66    65    1
    26    24    26   ar
    27    25    27   ar
    28    65    64    1
    29    26    27   ar
    30    51    52    1
    31    46    47    2
    32    46    45    1
    33    64    61    1
    34    97    96    1
    35    97    98    1
    36    45    48    1
    37    45    44    1
    38    61    60    1
    39    61    62    1
    40    96    95    1
    41    49    48    1
    42    52    53    1
    43    48    50    1
    44    62    63    2
    45    62    68   am
    46    53    54    2
    47    53    55   am
    48    95    92    1
    49    55    56    1
    50    80    81    1
    51    68    69    1
    52    92    91    1
    53    92    93    1
    54    57    56    1
    55    57    58    2
    56    81    84    1
    57    81    82    1
    58    86    88   ar
    59    86    85   ar
    60    84    85    1
    61    56    59    1
    62    94    93    2
    63    88    90   ar
    64    85    87   ar
    65    69    70    1
    66    69    72    1
    67    82    83    2
    68    70    71    2
    69    90    89   ar
    70    72    73    1
    71    87    89   ar
    72    29    28    1
    73    29    32    1
    74    29    30    1
    75    31    30    2
    76    28    34    1
    77    32    33    1
    78    30    35   am
    79    73    75   ar
    80    73    74   ar
    81    34    33    1
    82    75    77   ar
    83    38    37    2
    84    35    36    1
    85    37    36    1
    86    74    76   ar
    87    36    39    1
    88    77    78   ar
    89    76    78   ar
    90    78    79    1
    91    39    40    1
    92    40    41    1
    93    42    41   ar
    94    41    43   ar
