@<TRIPOS>MOLECULE
tmp/5hk7A01.pdb
 95 90 0 0 0
SMALL
GASTEIGER

@<TRIPOS>ATOM
      1  N         17.3680   27.7810   42.2060 N.3     7  ALA7       -0.1245
      2  CA        16.3360   27.6560   43.2390 C.3     7  ALA7        0.1562
      3  C         15.1210   26.9780   42.6350 C.2     7  ALA7        0.2260
      4  O         14.3990   26.2540   43.3020 O.2     7  ALA7       -0.2867
      5  CB        15.9410   29.0080   43.8090 C.3     7  ALA7        0.0290
      6  N         15.6210   23.2820   42.6340 N.3    10  LEU10      -0.1231
      7  CA        15.3950   22.7140   43.9480 C.3    10  LEU10       0.1693
      8  C         13.9050   22.4660   44.1700 C.2    10  LEU10       0.2591
      9  O         13.5210   21.3440   44.4630 O.2    10  LEU10      -0.2718
     10  CB        15.9460   23.6510   45.0030 C.3    10  LEU10       0.0284
     11  CG        15.7910   23.2470   46.4360 C.3    10  LEU10       0.0019
     12  CD1       16.5620   21.9550   46.6210 C.3    10  LEU10       0.0001
     13  CD2       16.3260   24.3820   47.2800 C.3    10  LEU10       0.0001
     14  N         13.0760   23.4990   44.0020 N.am   11  LEU11      -0.1980
     15  CA        11.6340   23.3890   44.1970 C.3    11  LEU11       0.1596
     16  C         11.0480   22.3060   43.3150 C.2    11  LEU11       0.2287
     17  O         10.0130   21.7570   43.6270 O.2    11  LEU11      -0.2864
     18  CB        10.9390   24.7120   43.8930 C.3    11  LEU11       0.0297
     19  CG        10.7120   25.6640   45.0670 C.3    11  LEU11       0.0022
     20  CD1       12.0130   26.0880   45.7380 C.3    11  LEU11       0.0001
     21  CD2        9.9700   26.8950   44.5850 C.3    11  LEU11       0.0001
     22  N         11.2030   18.6600   53.8310 N.3    44  PHE44      -0.1241
     23  CA        11.9370   19.8320   54.3040 C.3    44  PHE44       0.1605
     24  C         12.6740   19.4680   55.5880 C.2    44  PHE44       0.2264
     25  O         13.7710   19.9270   55.8640 O.2    44  PHE44      -0.2867
     26  CB        11.0090   21.0000   54.5820 C.3    44  PHE44       0.0534
     27  CG        11.7250   22.1810   55.1340 C.ar   44  PHE44      -0.0203
     28  CD1       12.7300   22.7710   54.4120 C.ar   44  PHE44      -0.0042
     29  CD2       11.4370   22.6770   56.3860 C.ar   44  PHE44      -0.0042
     30  CE1       13.4250   23.8640   54.9110 C.ar   44  PHE44      -0.0003
     31  CE2       12.1130   23.7710   56.8930 C.ar   44  PHE44      -0.0003
     32  CZ        13.1190   24.3600   56.1600 C.ar   44  PHE44      -0.0000
     33  N         15.6190   17.4670   54.7150 N.3    47  MET47      -0.1230
     34  CA        16.6210   18.2560   54.0760 C.3    47  MET47       0.1702
     35  C         17.4640   18.9910   55.0860 C.2    47  MET47       0.2593
     36  O         18.6390   19.2480   54.8270 O.2    47  MET47      -0.2718
     37  CB        15.9290   19.2630   53.2130 C.3    47  MET47       0.0401
     38  CG        16.7540   19.7370   52.0430 C.3    47  MET47       0.0596
     39  SD        16.0770   21.3050   51.4700 S.3    47  MET47      -0.1393
     40  CE        16.7530   22.3730   52.7680 C.3    47  MET47       0.0692
     41  N         16.8630   19.3350   56.2200 N.am   48  THR48      -0.1939
     42  CA        17.5860   19.9850   57.2890 C.3    48  THR48       0.2028
     43  C         18.2880   18.9010   58.0620 C.2    48  THR48       0.2642
     44  O         18.9120   19.1510   59.0870 O.2    48  THR48      -0.2714
     45  CB        16.6280   20.6940   58.2420 C.3    48  THR48       0.1808
     46  OG1       15.5270   19.8310   58.4930 O.3    48  THR48      -0.2208
     47  CG2       16.0860   21.9180   57.6060 C.3    48  THR48       0.0379
     48  N         18.1510   17.6760   57.5830 N.am   49  LEU49      -0.1977
     49  CA        18.7920   16.5260   58.2270 C.3    49  LEU49       0.1596
     50  C         18.2890   16.2130   59.6340 C.2    49  LEU49       0.2287
     51  O         19.0230   15.6520   60.4460 O.2    49  LEU49      -0.2864
     52  CB        20.3050   16.7110   58.2660 C.3    49  LEU49       0.0297
     53  CG        21.0110   16.9590   56.9450 C.3    49  LEU49       0.0022
     54  CD1       22.4870   17.0830   57.2550 C.3    49  LEU49       0.0001
     55  CD2       20.8980   15.7930   55.9820 C.3    49  LEU49       0.0001
     56  N         20.8320   17.9380   48.5680 N.3    79  SER79      -0.1217
     57  CA        21.7940   18.7060   49.3540 C.3    79  SER79       0.1889
     58  C         22.7670   19.2930   48.3950 C.2    79  SER79       0.2288
     59  O         23.0590   20.4790   48.4780 O.2    79  SER79      -0.2866
     60  CB        22.4820   17.9110   50.4670 C.3    79  SER79       0.2089
     61  OG        21.9700   18.3420   51.7310 O.3    79  SER79      -0.2183
     62  N         21.7130   22.4540   47.0550 N.3    82  VAL82      -0.1231
     63  CA        21.5400   23.5640   47.9590 C.3    82  VAL82       0.1692
     64  C         22.9090   24.0970   48.1590 C.2    82  VAL82       0.2591
     65  O         23.0750   25.1620   48.6920 O.2    82  VAL82      -0.2718
     66  CB        20.9690   23.1100   49.3060 C.3    82  VAL82       0.0266
     67  CG1       20.9930   24.2220   50.3130 C.3    82  VAL82       0.0020
     68  CG2       19.5330   22.7000   49.1210 C.3    82  VAL82       0.0020
     69  N         23.8940   23.3180   47.7480 N.am   83  LEU83      -0.1980
     70  CA        25.2660   23.7320   47.8420 C.3    83  LEU83       0.1596
     71  C         25.4920   24.7670   46.7800 C.2    83  LEU83       0.2287
     72  O         26.0600   25.8220   47.0600 O.2    83  LEU83      -0.2864
     73  CB        26.1740   22.5470   47.5950 C.3    83  LEU83       0.0297
     74  CG        27.6500   22.8560   47.7200 C.3    83  LEU83       0.0022
     75  CD1       27.9310   23.5660   49.0400 C.3    83  LEU83       0.0001
     76  CD2       28.4180   21.5480   47.5820 C.3    83  LEU83       0.0001
     77  N         23.2690   26.6190   45.4160 N.3    85  LEU85      -0.1231
     78  CA        22.6850   27.8470   45.9000 C.3    85  LEU85       0.1693
     79  C         23.5870   28.5950   46.8710 C.2    85  LEU85       0.2592
     80  O         23.5280   29.8100   46.9640 O.2    85  LEU85      -0.2718
     81  CB        21.3690   27.5850   46.5780 C.3    85  LEU85       0.0284
     82  CG        20.4270   28.7150   46.2400 C.3    85  LEU85       0.0019
     83  CD1       19.7450   28.2460   44.9840 C.3    85  LEU85       0.0001
     84  CD2       19.4070   28.9280   47.3290 C.3    85  LEU85       0.0001
     85  N         24.3930   27.8810   47.6350 N.am   86  PHE86      -0.1976
     86  CA        25.1610   28.5500   48.6680 C.3    86  PHE86       0.1639
     87  C         26.3980   29.1360   48.0540 C.2    86  PHE86       0.2290
     88  O         26.8340   30.1730   48.4830 O.2    86  PHE86      -0.2864
     89  CB        25.5210   27.6160   49.8260 C.3    86  PHE86       0.0560
     90  CG        24.3470   27.2490   50.6780 C.ar   86  PHE86      -0.0200
     91  CD1       23.8020   28.1650   51.5820 C.ar   86  PHE86      -0.0042
     92  CD2       23.7610   25.9990   50.5390 C.ar   86  PHE86      -0.0042
     93  CE1       22.7050   27.8400   52.3480 C.ar   86  PHE86      -0.0003
     94  CE2       22.6660   25.6650   51.3030 C.ar   86  PHE86      -0.0003
     95  CZ        22.1410   26.5890   52.2080 C.ar   86  PHE86      -0.0000
@<TRIPOS>BOND
     1     1     2    1
     2     6     7    1
     3     3     2    1
     4     3     4    2
     5     2     5    1
     6    16    17    2
     7    16    15    1
     8    18    15    1
     9    18    19    1
    10     7     8    1
    11     7    10    1
    12    14     8   am
    13    14    15    1
    14     8     9    2
    15    21    19    1
    16    83    82    1
    17    10    11    1
    18    19    20    1
    19    77    78    1
    20    78    81    1
    21    78    79    1
    22    82    81    1
    23    82    84    1
    24    11    12    1
    25    11    13    1
    26    71    72    2
    27    71    70    1
    28    79    80    2
    29    79    85   am
    30    62    63    1
    31    76    74    1
    32    73    74    1
    33    73    70    1
    34    85    86    1
    35    74    75    1
    36    69    70    1
    37    69    64   am
    38    63    64    1
    39    63    66    1
    40    87    88    2
    41    87    86    1
    42    64    65    2
    43    58    59    2
    44    58    57    1
    45    56    57    1
    46    86    89    1
    47    68    66    1
    48    66    67    1
    49    57    60    1
    50    89    90    1
    51    60    61    1
    52    92    90   ar
    53    92    94   ar
    54    90    91   ar
    55    94    95   ar
    56    39    38    1
    57    39    40    1
    58    91    93   ar
    59    38    37    1
    60    95    93   ar
    61    37    34    1
    62    22    23    1
    63    34    33    1
    64    34    35    1
    65    23    26    1
    66    23    24    1
    67    28    30   ar
    68    28    27   ar
    69    26    27    1
    70    36    35    2
    71    30    32   ar
    72    35    41   am
    73    27    29   ar
    74    24    25    2
    75    55    53    1
    76    32    31   ar
    77    41    42    1
    78    29    31   ar
    79    53    54    1
    80    53    52    1
    81    42    43    1
    82    42    45    1
    83    48    43   am
    84    48    49    1
    85    47    45    1
    86    43    44    2
    87    49    52    1
    88    49    50    1
    89    45    46    1
    90    50    51    2
