@<TRIPOS>MOLECULE
tmp/5hk9A00.pdb
 210 209 0 0 0
SMALL
GASTEIGER

@<TRIPOS>ATOM
      1  N        -22.1050   14.9410   23.0650 N.3    39  PHE39      -0.1241
      2  CA       -22.2580   15.6340   21.7990 C.3    39  PHE39       0.1605
      3  C        -20.9220   15.9420   21.1320 C.2    39  PHE39       0.2264
      4  O        -19.9570   16.2850   21.8090 O.2    39  PHE39      -0.2867
      5  CB       -23.0190   16.9510   22.0100 C.3    39  PHE39       0.0534
      6  CG       -22.9710   17.8510   20.8140 C.ar   39  PHE39      -0.0203
      7  CD1      -23.7590   17.5900   19.7080 C.ar   39  PHE39      -0.0042
      8  CD2      -22.0980   18.9270   20.7710 C.ar   39  PHE39      -0.0042
      9  CE1      -23.7020   18.4130   18.5920 C.ar   39  PHE39      -0.0003
     10  CE2      -22.0300   19.7460   19.6520 C.ar   39  PHE39      -0.0003
     11  CZ       -22.8340   19.4860   18.5680 C.ar   39  PHE39      -0.0000
     12  N        -21.3590   14.5480   29.2360 N.3   105  ASP105     -0.1225
     13  CA       -22.1520   15.4490   28.4080 C.3   105  ASP105      0.1805
     14  C        -23.5760   14.9090   28.1990 C.2   105  ASP105      0.2597
     15  O        -24.2240   14.5080   29.1610 O.2   105  ASP105     -0.2718
     16  CB       -21.4360   15.7170   27.0830 C.3   105  ASP105      0.1424
     17  CG       -22.0590   16.8560   26.3110 C.2   105  ASP105      0.3668
     18  OD1      -21.8910   18.0190   26.7340 O.co2 105  ASP105     -0.2456
     19  OD2      -22.7120   16.5820   25.2860 O.co2 105  ASP105     -0.2456
     20  N        -24.0750   14.8640   26.9660 N.am  106  ILE106     -0.1980
     21  CA       -25.4610   14.4260   26.7950 C.3   106  ILE106      0.1595
     22  C        -25.6340   12.9310   27.0980 C.2   106  ILE106      0.2287
     23  O        -26.7540   12.4170   27.1680 O.2   106  ILE106     -0.2864
     24  CB       -26.0520   14.8010   25.4160 C.3   106  ILE106      0.0276
     25  CG1      -25.3470   14.0320   24.2940 C.3   106  ILE106      0.0022
     26  CG2      -26.0100   16.3230   25.2020 C.3   106  ILE106      0.0022
     27  CD1      -26.0740   14.1250   22.9570 C.3   106  ILE106      0.0001
     28  N        -27.8070   13.1280   30.0610 N.3   109  TRP109     -0.1241
     29  CA       -29.2140   13.2940   29.7090 C.3   109  TRP109      0.1605
     30  C        -29.8180   11.9520   29.3180 C.2   109  TRP109      0.2264
     31  O        -30.9580   11.6410   29.6750 O.2   109  TRP109     -0.2867
     32  CB       -29.3750   14.2210   28.5040 C.3   109  TRP109      0.0550
     33  CG       -28.7710   15.5850   28.6470 C.ar  109  TRP109      0.0003
     34  CD1      -28.0850   16.0810   29.7130 C.ar  109  TRP109      0.0946
     35  CD2      -28.8030   16.6210   27.6680 C.ar  109  TRP109      0.0152
     36  NE1      -27.6840   17.3750   29.4560 N.ar  109  TRP109     -0.2442
     37  CE2      -28.1120   17.7240   28.2010 C.ar  109  TRP109      0.0810
     38  CE3      -29.3450   16.7180   26.3810 C.ar  109  TRP109      0.0012
     39  CZ2      -27.9530   18.9140   27.4970 C.ar  109  TRP109      0.0191
     40  CZ3      -29.1850   17.9010   25.6830 C.ar  109  TRP109      0.0001
     41  CH2      -28.4950   18.9810   26.2420 C.ar  109  TRP109      0.0015
     42  N        -19.3970   16.6690   33.3320 N.3   129  GLU129     -0.1231
     43  CA       -19.4830   17.7140   32.3140 C.3   129  GLU129      0.1699
     44  C        -20.7970   17.8220   31.5220 C.2   129  GLU129      0.2592
     45  O        -20.7990   17.8010   30.2810 O.2   129  GLU129     -0.2718
     46  CB       -18.2780   17.6120   31.3680 C.3   129  GLU129      0.0402
     47  CG       -17.0500   18.3350   31.9180 C.3   129  GLU129      0.1161
     48  CD       -17.3040   19.8330   32.0530 C.2   129  GLU129      0.3649
     49  OE1      -17.9730   20.3870   31.1640 O.co2 129  GLU129     -0.2457
     50  OE2      -16.8680   20.4310   33.0570 O.co2 129  GLU129     -0.2457
     51  N        -21.9000   17.9540   32.2500 N.am  130  ALA130     -0.1966
     52  CA       -23.1900   18.3960   31.6920 C.3   130  ALA130      0.1713
     53  C        -24.1910   18.4830   32.8190 C.2   130  ALA130      0.2458
     54  O        -24.1530   17.6760   33.7320 O.2   130  ALA130     -0.2730
     55  CB       -23.7120   17.4580   30.6330 C.3   130  ALA130      0.0333
     56  N        -25.1120   19.4530   32.7390 N.am  131  PRO131     -0.2727
     57  CA       -26.2190   19.4540   33.6910 C.3   131  PRO131      0.1402
     58  C        -27.1760   18.3030   33.3910 C.2   131  PRO131      0.2269
     59  O        -27.4190   17.9660   32.2330 O.2   131  PRO131     -0.2865
     60  CB       -26.9040   20.8080   33.4290 C.3   131  PRO131      0.0296
     61  CG       -26.5830   21.1230   31.9880 C.3   131  PRO131      0.0237
     62  CD       -25.1900   20.5630   31.7740 C.3   131  PRO131      0.0939
     63  N        -31.5000   29.0270   33.7250 N.3   139  ARG139     -0.1231
     64  CA       -30.8100   30.1130   34.4200 C.3   139  ARG139      0.1694
     65  C        -29.4660   30.4600   33.7800 C.2   139  ARG139      0.2592
     66  O        -28.8930   31.5020   34.0700 O.2   139  ARG139     -0.2718
     67  CB       -30.6170   29.7740   35.9040 C.3   139  ARG139      0.0321
     68  CG       -31.9020   29.3210   36.5850 C.3   139  ARG139      0.0489
     69  CD       -32.7560   30.5120   36.9850 C.3   139  ARG139      0.2205
     70  NE       -32.1900   31.2320   38.1250 N.pl3 139  ARG139     -0.0865
     71  CZ       -32.8220   32.1920   38.7950 C.cat 139  ARG139      0.5346
     72  NH1      -32.2270   32.7870   39.8200 N.pl3 139  ARG139      0.1354
     73  NH2      -34.0520   32.5560   38.4460 N.pl3 139  ARG139      0.1354
     74  N        -28.9570   29.5900   32.9160 N.am  140  PHE140     -0.1963
     75  CA       -27.6610   29.8460   32.2730 C.3   140  PHE140      0.1756
     76  C        -27.7980   31.0570   31.3550 C.2   140  PHE140      0.2461
     77  O        -28.8020   31.1940   30.6660 O.2   140  PHE140     -0.2730
     78  CB       -27.1710   28.6440   31.4740 C.3   140  PHE140      0.0574
     79  CG       -26.8300   27.4240   32.3190 C.ar  140  PHE140     -0.0200
     80  CD1      -26.6160   27.5350   33.6790 C.ar  140  PHE140     -0.0042
     81  CD2      -26.7270   26.1710   31.7360 C.ar  140  PHE140     -0.0042
     82  CE1      -26.3030   26.4240   34.4510 C.ar  140  PHE140     -0.0003
     83  CE2      -26.4180   25.0530   32.4920 C.ar  140  PHE140     -0.0003
     84  CZ       -26.2020   25.1760   33.8540 C.ar  140  PHE140     -0.0000
     85  N        -26.7950   31.9570   31.3700 N.am  141  PRO141     -0.2727
     86  CA       -26.8590   33.1840   30.5600 C.3   141  PRO141      0.1402
     87  C        -26.5780   32.9540   29.0740 C.2   141  PRO141      0.2269
     88  O        -25.7640   32.0990   28.6970 O.2   141  PRO141     -0.2865
     89  CB       -25.7790   34.0790   31.1850 C.3   141  PRO141      0.0296
     90  CG       -24.7630   33.0920   31.7160 C.3   141  PRO141      0.0237
     91  CD       -25.5740   31.9060   32.2010 C.3   141  PRO141      0.0939
     92  N        -21.9430   36.4200   28.1600 N.3   144  THR144     -0.1218
     93  CA       -21.1880   36.7660   29.3610 C.3   144  THR144      0.1862
     94  C        -20.2300   37.9420   29.1630 C.2   144  THR144      0.2287
     95  O        -19.9220   38.3380   28.0400 O.2   144  THR144     -0.2866
     96  CB       -20.3680   35.5830   29.8780 C.3   144  THR144      0.1770
     97  OG1      -19.2300   35.3990   29.0340 O.3   144  THR144     -0.2211
     98  CG2      -21.2020   34.3040   29.8750 C.3   144  THR144      0.0375
     99  N        -21.1270   32.4220   25.7010 N.3   149  SER149     -0.1202
    100  CA       -21.4070   31.6810   26.9290 C.3   149  SER149      0.2020
    101  C        -21.3210   30.1730   26.7080 C.2   149  SER149      0.2619
    102  O        -21.1900   29.7180   25.5780 O.2   149  SER149     -0.2717
    103  CB       -22.8180   31.9850   27.4170 C.3   149  SER149      0.2103
    104  OG       -23.7860   31.3970   26.5560 O.3   149  SER149     -0.2182
    105  N        -21.4740   29.4140   27.7880 N.am  150  LEU150     -0.1965
    106  CA       -21.3430   27.9590   27.7210 C.3   150  LEU150      0.1728
    107  C        -22.4270   27.2590   26.9070 C.2   150  LEU150      0.2616
    108  O        -22.1340   26.2750   26.2160 O.2   150  LEU150     -0.2715
    109  CB       -21.3410   27.3410   29.1170 C.3   150  LEU150      0.0311
    110  CG       -20.0990   27.4220   30.0010 C.3   150  LEU150      0.0022
    111  CD1      -20.2810   26.5310   31.2500 C.3   150  LEU150      0.0001
    112  CD2      -18.7990   27.1030   29.2440 C.3   150  LEU150      0.0001
    113  N        -23.6800   27.7160   27.0240 N.am  151  VAL151     -0.1977
    114  CA       -24.7700   26.9320   26.4530 C.3   151  VAL151      0.1596
    115  C        -25.7140   27.6660   25.5200 C.2   151  VAL151      0.2287
    116  O        -26.8630   27.2550   25.3740 O.2   151  VAL151     -0.2864
    117  CB       -25.6010   26.1650   27.5190 C.3   151  VAL151      0.0276
    118  CG1      -24.7330   25.2380   28.3430 C.3   151  VAL151      0.0022
    119  CG2      -26.3450   27.1320   28.4110 C.3   151  VAL151      0.0022
    120  N        -25.6860   27.4840   22.5280 N.3   153  HIS153     -0.1226
    121  CA       -25.9850   26.5460   21.4590 C.3   153  HIS153      0.1752
    122  C        -27.2590   25.7340   21.7380 C.2   153  HIS153      0.2596
    123  O        -27.8550   25.1960   20.8060 O.2   153  HIS153     -0.2718
    124  CB       -24.7870   25.6130   21.2150 C.3   153  HIS153      0.0759
    125  CG       -24.4310   24.7740   22.4010 C.ar  153  HIS153      0.0818
    126  ND1      -23.7380   25.2690   23.4850 N.ar  153  HIS153     -0.2268
    127  CD2      -24.6700   23.4700   22.6690 C.ar  153  HIS153      0.1154
    128  CE1      -23.5760   24.3060   24.3750 C.ar  153  HIS153      0.1986
    129  NE2      -24.1340   23.2050   23.9060 N.ar  153  HIS153     -0.2212
    130  N        -27.6770   25.6420   23.0040 N.am  154  PHE154     -0.1976
    131  CA       -28.9320   24.9500   23.3240 C.3   154  PHE154      0.1639
    132  C        -30.0490   25.5290   22.4630 C.2   154  PHE154      0.2290
    133  O        -30.8120   24.7920   21.8630 O.2   154  PHE154     -0.2864
    134  CB       -29.3490   25.0970   24.7950 C.3   154  PHE154      0.0560
    135  CG       -28.5500   24.2600   25.7700 C.ar  154  PHE154     -0.0200
    136  CD1      -27.4200   23.5750   25.3810 C.ar  154  PHE154     -0.0042
    137  CD2      -28.9430   24.1880   27.0990 C.ar  154  PHE154     -0.0042
    138  CE1      -26.6920   22.8270   26.2970 C.ar  154  PHE154     -0.0003
    139  CE2      -28.2270   23.4420   28.0190 C.ar  154  PHE154     -0.0003
    140  CZ       -27.0960   22.7600   27.6170 C.ar  154  PHE154     -0.0000
    141  N        -16.5780   24.6970   18.0830 N.3   179  PHE179     -0.1241
    142  CA       -17.3330   24.2590   19.2540 C.3   179  PHE179      0.1605
    143  C        -16.4320   23.5810   20.2890 C.2   179  PHE179      0.2264
    144  O        -16.5150   23.8620   21.4820 O.2   179  PHE179     -0.2867
    145  CB       -18.4790   23.3100   18.8620 C.3   179  PHE179      0.0534
    146  CG       -19.3490   22.9130   20.0270 C.ar  179  PHE179     -0.0203
    147  CD1      -20.4470   23.6890   20.3830 C.ar  179  PHE179     -0.0042
    148  CD2      -19.0530   21.7910   20.7840 C.ar  179  PHE179     -0.0042
    149  CE1      -21.2390   23.3380   21.4660 C.ar  179  PHE179     -0.0003
    150  CE2      -19.8350   21.4290   21.8690 C.ar  179  PHE179     -0.0003
    151  CZ       -20.9370   22.2080   22.2110 C.ar  179  PHE179     -0.0000
    152  N        -14.8810   25.3020   24.0340 N.3   183  HIS183     -0.1241
    153  CA       -15.2460   24.6820   25.2960 C.3   183  HIS183      0.1621
    154  C        -14.0700   23.9530   25.9400 C.2   183  HIS183      0.2264
    155  O        -14.2570   23.1570   26.8560 O.2   183  HIS183     -0.2867
    156  CB       -16.4010   23.6980   25.0810 C.3   183  HIS183      0.0745
    157  CG       -17.7190   24.3650   24.8340 C.ar  183  HIS183      0.0817
    158  ND1      -18.1440   24.7390   23.5780 N.ar  183  HIS183     -0.2268
    159  CD2      -18.7040   24.7300   25.6880 C.ar  183  HIS183      0.1154
    160  CE1      -19.3380   25.3000   23.6650 C.ar  183  HIS183      0.1986
    161  NE2      -19.6980   25.3110   24.9360 N.ar  183  HIS183     -0.2212
    162  N        -31.3630   18.1770   21.5660 N.3   215  TYR215     -0.1241
    163  CA       -31.6710   19.5000   22.1100 C.3   215  TYR215      0.1605
    164  C        -33.1250   19.8680   21.8850 C.2   215  TYR215      0.2264
    165  O        -33.7360   20.5230   22.7210 O.2   215  TYR215     -0.2867
    166  CB       -30.7370   20.5630   21.5130 C.3   215  TYR215      0.0534
    167  CG       -29.2860   20.2530   21.8220 C.ar  215  TYR215     -0.0201
    168  CD1      -28.5810   19.3300   21.0690 C.ar  215  TYR215     -0.0009
    169  CD2      -28.6380   20.8540   22.8930 C.ar  215  TYR215     -0.0009
    170  CE1      -27.2610   19.0200   21.3720 C.ar  215  TYR215      0.0417
    171  CE2      -27.3220   20.5540   23.1970 C.ar  215  TYR215      0.0417
    172  CZ       -26.6450   19.6320   22.4320 C.ar  215  TYR215      0.1957
    173  OH       -25.3360   19.3190   22.7220 O.3   215  TYR215     -0.2866
    174  N        -14.3140   26.7140   29.6510 N.3   246  GLY246     -0.1210
    175  CA       -15.2430   25.7860   29.0220 C.3   246  GLY246      0.1956
    176  C        -15.8120   24.7160   29.9390 C.2   246  GLY246      0.2612
    177  O        -16.6950   23.9620   29.5440 O.2   246  GLY246     -0.2717
    178  N        -15.3190   24.6530   31.1700 N.am  247  GLY247     -0.1942
    179  CA       -15.7640   23.6400   32.1060 C.3   247  GLY247      0.2014
    180  C        -16.9300   24.0750   32.9700 C.2   247  GLY247      0.2638
    181  O        -17.1830   25.2720   33.1270 O.2   247  GLY247     -0.2714
    182  N        -17.6240   23.0920   33.5490 N.am  248  MET248     -0.1976
    183  CA       -18.7990   23.3140   34.3960 C.3   248  MET248      0.1605
    184  C        -18.4510   23.7760   35.8130 C.2   248  MET248      0.2287
    185  O        -19.3130   24.2700   36.5440 O.2   248  MET248     -0.2864
    186  CB       -19.6310   22.0240   34.4870 C.3   248  MET248      0.0413
    187  CG       -20.3260   21.6260   33.2010 C.3   248  MET248      0.0598
    188  SD       -21.6770   22.7280   32.7500 S.3   248  MET248     -0.1393
    189  CE       -22.9070   22.2200   33.9260 C.3   248  MET248      0.0692
    190  N        -20.6110   23.6220   39.4600 N.3   251  PHE251     -0.1241
    191  CA       -22.0270   23.3490   39.1910 C.3   251  PHE251      0.1605
    192  C        -22.3250   21.8660   39.1930 C.2   251  PHE251      0.2264
    193  O        -23.3630   21.4430   39.6880 O.2   251  PHE251     -0.2867
    194  CB       -22.4710   23.9420   37.8470 C.3   251  PHE251      0.0534
    195  CG       -23.9180   23.6540   37.4990 C.ar  251  PHE251     -0.0203
    196  CD1      -24.2880   22.4440   36.9230 C.ar  251  PHE251     -0.0042
    197  CD2      -24.9070   24.5980   37.7450 C.ar  251  PHE251     -0.0042
    198  CE1      -25.6070   22.1740   36.6070 C.ar  251  PHE251     -0.0003
    199  CE2      -26.2300   24.3390   37.4310 C.ar  251  PHE251     -0.0003
    200  CZ       -26.5820   23.1270   36.8590 C.ar  251  PHE251     -0.0000
    201  N        -14.1790   21.2250   29.0270 N.3   273  HIS273     -0.1241
    202  CA       -15.3120   20.3150   28.8990 C.3   273  HIS273      0.1621
    203  C        -14.8980   18.8900   28.5290 C.2   273  HIS273      0.2264
    204  O        -15.5540   17.9220   28.9150 O.2   273  HIS273     -0.2867
    205  CB       -16.2460   20.8400   27.8170 C.3   273  HIS273      0.0745
    206  CG       -17.4160   19.9460   27.5430 C.ar  273  HIS273      0.0817
    207  ND1      -18.3800   19.6820   28.4900 N.ar  273  HIS273     -0.2268
    208  CD2      -17.7910   19.2820   26.4250 C.ar  273  HIS273      0.1154
    209  CE1      -19.2950   18.8840   27.9680 C.ar  273  HIS273      0.1986
    210  NE2      -18.9640   18.6290   26.7140 N.ar  273  HIS273     -0.2212
@<TRIPOS>BOND
     1   141   142    1
     2    11     9   ar
     3    11    10   ar
     4     9     7   ar
     5   145   142    1
     6   145   146    1
     7   142   143    1
     8    10     8   ar
     9     7     6   ar
    10   146   147   ar
    11   146   148   ar
    12   143   144    2
    13   147   149   ar
    14     8     6   ar
    15   148   150   ar
    16   123   122    2
    17     6     5    1
    18   168   170   ar
    19   168   167   ar
    20     3     2    1
    21     3     4    2
    22   124   121    1
    23   124   125    1
    24   170   172   ar
    25   121   122    1
    26   121   120    1
    27   149   151   ar
    28   166   167    1
    29   166   163    1
    30   162   163    1
    31   122   130   am
    32     2     5    1
    33     2     1    1
    34   167   169   ar
    35   133   132    2
    36   150   151   ar
    37   164   163    1
    38   164   165    2
    39   125   127   ar
    40   125   126   ar
    41   172   173    1
    42   172   171   ar
    43   132   131    1
    44   127   129   ar
    45   169   171   ar
    46    27    25    1
    47   130   131    1
    48   131   134    1
    49   126   128   ar
    50   158   160   ar
    51   158   157   ar
    52   160   161   ar
    53   129   128   ar
    54   152   153    1
    55    25    24    1
    56   134   135    1
    57   157   156    1
    58   157   159   ar
    59   161   159   ar
    60   156   153    1
    61    26    24    1
    62    19    17   ar
    63   153   154    1
    64   116   115    2
    65   136   135   ar
    66   136   138   ar
    67    24    21    1
    68   115   114    1
    69   102   101    2
    70    40    41   ar
    71    40    38   ar
    72    99   100    1
    73   135   137   ar
    74   154   155    2
    75   108   107    2
    76    41    39   ar
    77   138   140   ar
    78    17    18   ar
    79    17    16    1
    80    38    35   ar
    81   208   210   ar
    82   208   206   ar
    83   114   113    1
    84   114   117    1
    85   104   103    1
    86   101   100    1
    87   101   105   am
    88   210   209   ar
    89    21    20    1
    90    21    22    1
    91   107   113   am
    92   107   106    1
    93   100   103    1
    94    20    14   am
    95    16    13    1
    96    22    23    2
    97   137   139   ar
    98    39    37   ar
    99   117   118    1
   100   117   119    1
   101   206   205    1
   102   206   207   ar
   103   140   139   ar
   104    35    37   ar
   105    35    33   ar
   106   106   105    1
   107   106   109    1
   108   205   202    1
   109   209   207   ar
   110    95    94    2
   111    92    93    1
   112    14    13    1
   113    14    15    2
   114    37    36   ar
   115    13    12    1
   116    32    33    1
   117    32    29    1
   118   203   202    1
   119   203   204    2
   120    33    34   ar
   121    88    87    2
   122   202   201    1
   123   175   174    1
   124   175   176    1
   125    97    96    1
   126    87    86    1
   127   109   110    1
   128    94    93    1
   129   112   110    1
   130    30    31    2
   131    30    29    1
   132    93    96    1
   133    36    34   ar
   134   177   176    2
   135    29    28    1
   136    98    96    1
   137   176   178   am
   138   110   111    1
   139    45    44    2
   140    86    89    1
   141    86    85    1
   142    55    52    1
   143    77    76    2
   144    49    48   ar
   145   178   179    1
   146    89    90    1
   147    76    85   am
   148    76    75    1
   149    46    47    1
   150    46    43    1
   151    85    91    1
   152    78    75    1
   153    78    79    1
   154    44    51   am
   155    44    43    1
   156    52    51    1
   157    52    53    1
   158    90    91    1
   159    81    79   ar
   160    81    83   ar
   161    62    61    1
   162    62    56    1
   163    47    48    1
   164    61    60    1
   165    48    50   ar
   166   179   180    1
   167    59    58    2
   168    75    74    1
   169    43    42    1
   170    79    80   ar
   171    83    84   ar
   172    56    53   am
   173    56    57    1
   174   188   187    1
   175   188   189    1
   176    53    54    2
   177    74    65   am
   178   180   181    2
   179   180   182   am
   180   187   186    1
   181    58    57    1
   182    60    57    1
   183   182   183    1
   184    80    82   ar
   185    63    64    1
   186    65    66    2
   187    65    64    1
   188    84    82   ar
   189   183   186    1
   190   183   184    1
   191    64    67    1
   192   184   185    2
   193    67    68    1
   194    68    69    1
   195   198   200   ar
   196   198   196   ar
   197   200   199   ar
   198   196   195   ar
   199    69    70    1
   200   199   197   ar
   201   195   197   ar
   202   195   194    1
   203   194   191    1
   204    70    71    2
   205    73    71    1
   206    71    72    1
   207   191   192    1
   208   191   190    1
   209   192   193    2
