@<TRIPOS>MOLECULE
tmp/5hkaD00.pdb
 202 204 0 0 0
SMALL
GASTEIGER

@<TRIPOS>ATOM
      1  N         13.4690   10.2350   13.7560 N.3    39  PHE39      -0.1241
      2  CA        12.9470   11.4120   13.0720 C.3    39  PHE39       0.1605
      3  C         13.9540   12.0170   12.1110 C.2    39  PHE39       0.2264
      4  O         15.1540   11.9840   12.3630 O.2    39  PHE39      -0.2867
      5  CB        12.5270   12.4760   14.0810 C.3    39  PHE39       0.0534
      6  CG        12.2460   13.8060   13.4540 C.ar   39  PHE39      -0.0203
      7  CD1       11.0530   14.0270   12.7920 C.ar   39  PHE39      -0.0042
      8  CD2       13.1770   14.8310   13.5110 C.ar   39  PHE39      -0.0042
      9  CE1       10.7830   15.2520   12.1930 C.ar   39  PHE39      -0.0003
     10  CE2       12.9020   16.0680   12.9240 C.ar   39  PHE39      -0.0003
     11  CZ        11.7110   16.2680   12.2600 C.ar   39  PHE39      -0.0000
     12  N         16.7690    7.1190   18.2470 N.3   105  ASP105     -0.1225
     13  CA        15.8940    8.2920   18.2210 C.3   105  ASP105      0.1805
     14  C         14.4480    7.8130   18.4490 C.2   105  ASP105      0.2597
     15  O         14.2290    6.9440   19.2790 O.2   105  ASP105     -0.2718
     16  CB        16.0790    9.0290   16.8850 C.3   105  ASP105      0.1424
     17  CG        15.4270   10.3970   16.8670 C.2   105  ASP105      0.3668
     18  OD1       15.9670   11.3260   17.5010 O.co2 105  ASP105     -0.2456
     19  OD2       14.3850   10.5370   16.1950 O.co2 105  ASP105     -0.2456
     20  N         13.4670    8.3090   17.6960 N.am  106  ILE106     -0.1980
     21  CA        12.0840    7.8560   17.9360 C.3   106  ILE106      0.1595
     22  C         11.8330    6.3890   17.5750 C.2   106  ILE106      0.2287
     23  O         10.7600    5.8420   17.8540 O.2   106  ILE106     -0.2864
     24  CB        11.0100    8.7610   17.2650 C.3   106  ILE106      0.0276
     25  CG1       11.0160    8.5940   15.7420 C.3   106  ILE106      0.0022
     26  CG2       11.2150   10.2200   17.6480 C.3   106  ILE106      0.0022
     27  CD1        9.8380    9.3240   15.0670 C.3   106  ILE106      0.0001
     28  N         10.9480    5.1000   20.8410 N.3   109  TRP109     -0.1241
     29  CA         9.5550    5.3560   21.1900 C.3   109  TRP109      0.1605
     30  C          8.6290    4.3330   20.5450 C.2   109  TRP109      0.2264
     31  O          7.6590    3.8860   21.1440 O.2   109  TRP109     -0.2867
     32  CB         9.1320    6.7230   20.6690 C.3   109  TRP109      0.0550
     33  CG         9.9390    7.8800   21.1560 C.ar  109  TRP109      0.0003
     34  CD1       11.0700    7.8530   21.9460 C.ar  109  TRP109      0.0946
     35  CD2        9.6730    9.2500   20.8800 C.ar  109  TRP109      0.0152
     36  NE1       11.5060    9.1390   22.1830 N.ar  109  TRP109     -0.2442
     37  CE2       10.6740   10.0130   21.5220 C.ar  109  TRP109      0.0810
     38  CE3        8.6870    9.9130   20.1330 C.ar  109  TRP109      0.0012
     39  CZ2       10.7100   11.4070   21.4550 C.ar  109  TRP109      0.0191
     40  CZ3        8.7230   11.3160   20.0730 C.ar  109  TRP109      0.0001
     41  CH2        9.7270   12.0400   20.7330 C.ar  109  TRP109      0.0015
     42  N         17.8770    8.4590   22.4470 N.3   130  ALA130     -0.1231
     43  CA        16.5500    9.0310   22.6760 C.3   130  ALA130      0.1679
     44  C         16.0540    8.5420   24.0050 C.2   130  ALA130      0.2434
     45  O         16.2690    7.3980   24.3460 O.2   130  ALA130     -0.2733
     46  CB        15.5530    8.6460   21.6010 C.3   130  ALA130      0.0304
     47  N         15.3580    9.4020   24.7450 N.am  131  PRO131     -0.2729
     48  CA        14.7090    8.8870   25.9440 C.3   131  PRO131      0.1401
     49  C         13.5510    7.9680   25.5710 C.2   131  PRO131      0.2269
     50  O         12.8310    8.2190   24.6030 O.2   131  PRO131     -0.2865
     51  CB        14.1700   10.1570   26.6100 C.3   131  PRO131      0.0296
     52  CG        13.8730   11.0660   25.4590 C.3   131  PRO131      0.0237
     53  CD        14.9560   10.7890   24.4390 C.3   131  PRO131      0.0939
     54  N         11.3970   17.4370   32.2290 N.3   139  ARG139     -0.1231
     55  CA        12.4440   18.1890   32.9250 C.3   139  ARG139      0.1694
     56  C         13.3780   18.9620   31.9830 C.2   139  ARG139      0.2592
     57  O         14.0660   19.8960   32.4060 O.2   139  ARG139     -0.2718
     58  CB        13.3020   17.2390   33.7530 C.3   139  ARG139      0.0321
     59  CG        12.5960   16.5610   34.8950 C.3   139  ARG139      0.0489
     60  CD        13.6070   15.7260   35.6750 C.3   139  ARG139      0.2205
     61  NE        12.9580   14.9060   36.6890 N.pl3 139  ARG139     -0.0865
     62  CZ        12.6180   15.3560   37.8890 C.cat 139  ARG139      0.5346
     63  NH1       12.8700   16.6180   38.2160 N.pl3 139  ARG139      0.1354
     64  NH2       12.0390   14.5480   38.7620 N.pl3 139  ARG139      0.1354
     65  N         13.4310   18.5580   30.7190 N.am  140  PHE140     -0.1963
     66  CA        14.3200   19.2180   29.7570 C.3   140  PHE140      0.1756
     67  C         13.9250   20.6900   29.5860 C.2   140  PHE140      0.2461
     68  O         12.7450   21.0040   29.4730 O.2   140  PHE140     -0.2730
     69  CB        14.2650   18.5110   28.4020 C.3   140  PHE140      0.0574
     70  CG        14.6820   17.0610   28.4460 C.ar  140  PHE140     -0.0200
     71  CD1       15.6720   16.6290   29.3120 C.ar  140  PHE140     -0.0042
     72  CD2       14.0820   16.1360   27.6080 C.ar  140  PHE140     -0.0042
     73  CE1       16.0570   15.2910   29.3360 C.ar  140  PHE140     -0.0003
     74  CE2       14.4560   14.8150   27.6180 C.ar  140  PHE140     -0.0003
     75  CZ        15.4540   14.3860   28.4850 C.ar  140  PHE140     -0.0000
     76  N         14.9130   21.5940   29.5610 N.am  141  PRO141     -0.2727
     77  CA        14.6430   23.0390   29.5020 C.3   141  PRO141      0.1402
     78  C         14.2230   23.5710   28.1230 C.2   141  PRO141      0.2269
     79  O         14.7060   23.1090   27.0770 O.2   141  PRO141     -0.2865
     80  CB        15.9900   23.6520   29.9040 C.3   141  PRO141      0.0296
     81  CG        16.9890   22.6770   29.4500 C.3   141  PRO141      0.0237
     82  CD        16.3570   21.3110   29.6670 C.3   141  PRO141      0.0939
     83  N         18.0380   21.8130   23.2300 N.3   150  LEU150     -0.1231
     84  CA        18.0790   20.6080   22.4150 C.3   150  LEU150      0.1693
     85  C         16.6980   20.0230   22.0920 C.2   150  LEU150      0.2591
     86  O         16.5410   19.3230   21.0990 O.2   150  LEU150     -0.2718
     87  CB        18.9770   19.5560   23.0850 C.3   150  LEU150      0.0284
     88  CG        20.4720   19.9070   23.0140 C.3   150  LEU150      0.0019
     89  CD1       21.2970   19.0580   23.9620 C.3   150  LEU150      0.0001
     90  CD2       20.9610   19.7460   21.5910 C.3   150  LEU150      0.0001
     91  N         15.6940   20.2930   22.9190 N.am  151  VAL151     -0.1980
     92  CA        14.3920   19.6910   22.6490 C.3   151  VAL151      0.1595
     93  C         13.1900   20.6360   22.6180 C.2   151  VAL151      0.2287
     94  O         12.0660   20.1990   22.8450 O.2   151  VAL151     -0.2864
     95  CB        14.0820   18.5230   23.6100 C.3   151  VAL151      0.0276
     96  CG1       15.1840   17.4660   23.5430 C.3   151  VAL151      0.0022
     97  CG2       13.9250   19.0220   25.0100 C.3   151  VAL151      0.0022
     98  N         11.8050   21.6420   20.1760 N.3   153  HIS153     -0.1226
     99  CA        11.0200   21.1110   19.0720 C.3   153  HIS153      0.1752
    100  C          9.9510   20.1000   19.4920 C.2   153  HIS153      0.2596
    101  O          9.0300   19.8320   18.7200 O.2   153  HIS153     -0.2718
    102  CB        11.9470   20.4630   18.0450 C.3   153  HIS153      0.0759
    103  CG        12.6110   19.2170   18.5410 C.ar  153  HIS153      0.0818
    104  ND1       13.8220   19.2310   19.2030 N.ar  153  HIS153     -0.2268
    105  CD2       12.2360   17.9190   18.4690 C.ar  153  HIS153      0.1154
    106  CE1       14.1670   17.9920   19.5070 C.ar  153  HIS153      0.1986
    107  NE2       13.2180   17.1770   19.0800 N.ar  153  HIS153     -0.2212
    108  N         10.0640   19.5340   20.6970 N.am  154  PHE154     -0.1976
    109  CA         8.9880   18.6770   21.2070 C.3   154  PHE154      0.1639
    110  C          7.6540   19.4320   21.1800 C.2   154  PHE154      0.2290
    111  O          6.6580   18.9040   20.7170 O.2   154  PHE154     -0.2864
    112  CB         9.2560   18.1890   22.6360 C.3   154  PHE154      0.0560
    113  CG        10.2670   17.0700   22.7380 C.ar  154  PHE154     -0.0200
    114  CD1       10.9960   16.6580   21.6360 C.ar  154  PHE154     -0.0042
    115  CD2       10.4710   16.4210   23.9510 C.ar  154  PHE154     -0.0042
    116  CE1       11.9150   15.6350   21.7450 C.ar  154  PHE154     -0.0003
    117  CE2       11.3890   15.3940   24.0580 C.ar  154  PHE154     -0.0003
    118  CZ        12.1070   14.9990   22.9510 C.ar  154  PHE154     -0.0000
    119  N         18.0210   21.4420   11.9660 N.3   179  PHE179     -0.1241
    120  CA        17.6870   20.4690   12.9960 C.3   179  PHE179      0.1605
    121  C         18.7840   19.4220   13.1910 C.2   179  PHE179      0.2264
    122  O         19.1710   19.1150   14.3190 O.2   179  PHE179     -0.2867
    123  CB        16.3600   19.7520   12.6990 C.3   179  PHE179      0.0534
    124  CG        15.9300   18.8150   13.8040 C.ar  179  PHE179     -0.0203
    125  CD1       15.1910   19.2890   14.8810 C.ar  179  PHE179     -0.0042
    126  CD2       16.2990   17.4700   13.7830 C.ar  179  PHE179     -0.0042
    127  CE1       14.8060   18.4400   15.9140 C.ar  179  PHE179     -0.0003
    128  CE2       15.9220   16.6070   14.8070 C.ar  179  PHE179     -0.0003
    129  CZ        15.1660   17.0950   15.8780 C.ar  179  PHE179     -0.0000
    130  N         21.9610   19.2970   16.3480 N.3   183  HIS183     -0.1241
    131  CA        22.0290   18.1600   17.2710 C.3   183  HIS183      0.1621
    132  C         23.2330   17.2790   16.9790 C.2   183  HIS183      0.2264
    133  O         23.3390   16.1630   17.4980 O.2   183  HIS183     -0.2867
    134  CB        20.7460   17.3400   17.2040 C.3   183  HIS183      0.0745
    135  CG        19.5490   18.0700   17.7220 C.ar  183  HIS183      0.0817
    136  ND1       18.8070   18.9280   16.9400 N.ar  183  HIS183     -0.2268
    137  CD2       18.9830   18.0900   18.9520 C.ar  183  HIS183      0.1154
    138  CE1       17.8260   19.4380   17.6660 C.ar  183  HIS183      0.1986
    139  NE2       17.9110   18.9470   18.8890 N.ar  183  HIS183     -0.2212
    140  N          5.0010   13.1210   17.5170 N.3   215  TYR215     -0.1241
    141  CA         5.1520   14.0350   18.6560 C.3   215  TYR215      0.1605
    142  C          3.8040   14.4160   19.2560 C.2   215  TYR215      0.2264
    143  O          3.6850   14.6030   20.4740 O.2   215  TYR215     -0.2867
    144  CB         5.9670   15.2700   18.2550 C.3   215  TYR215      0.0534
    145  CG         7.4000   14.9160   17.8920 C.ar  215  TYR215     -0.0201
    146  CD1        7.7130   14.3900   16.6440 C.ar  215  TYR215     -0.0009
    147  CD2        8.4340   15.0750   18.8140 C.ar  215  TYR215     -0.0009
    148  CE1        9.0290   14.0350   16.3140 C.ar  215  TYR215      0.0417
    149  CE2        9.7530   14.7400   18.4890 C.ar  215  TYR215      0.0417
    150  CZ        10.0400   14.2200   17.2410 C.ar  215  TYR215      0.1957
    151  OH        11.3310   13.8760   16.9140 O.3   215  TYR215     -0.2866
    152  N         25.1090   18.0270   21.1830 N.3   246  GLY246     -0.1210
    153  CA        23.9240   17.4110   20.6090 C.3   246  GLY246      0.1956
    154  C         23.5980   16.0210   21.1320 C.2   246  GLY246      0.2612
    155  O         22.4880   15.5320   20.9290 O.2   246  GLY246     -0.2717
    156  N         24.5580   15.3860   21.8040 N.am  247  GLY247     -0.1942
    157  CA        24.3860   14.0310   22.3050 C.3   247  GLY247      0.2014
    158  C         23.6910   13.9990   23.6540 C.2   247  GLY247      0.2638
    159  O         23.5870   15.0300   24.3220 O.2   247  GLY247     -0.2714
    160  N         23.2190   12.8180   24.0550 N.am  248  MET248     -0.1976
    161  CA        22.5350   12.6570   25.3440 C.3   248  MET248      0.1605
    162  C         23.4430   12.2770   26.5140 C.2   248  MET248      0.2287
    163  O         23.0080   12.3250   27.6710 O.2   248  MET248     -0.2864
    164  CB        21.3930   11.6500   25.2160 C.3   248  MET248      0.0413
    165  CG        20.2540   12.2020   24.3840 C.3   248  MET248      0.0598
    166  SD        19.0180   10.9530   24.0270 S.3   248  MET248     -0.1393
    167  CE        18.4010   10.6170   25.6660 C.3   248  MET248      0.0692
    168  N         22.6610   10.3240   30.2020 N.3   251  PHE251     -0.1241
    169  CA        21.2140   10.1550   30.3880 C.3   251  PHE251      0.1605
    170  C         20.7350    8.8070   29.8690 C.2   251  PHE251      0.2264
    171  O         19.9320    8.1510   30.5280 O.2   251  PHE251     -0.2867
    172  CB        20.4180   11.2800   29.6970 C.3   251  PHE251      0.0534
    173  CG        18.9140   11.1620   29.8500 C.ar  251  PHE251     -0.0203
    174  CD1       18.1800   10.2440   29.0970 C.ar  251  PHE251     -0.0042
    175  CD2       18.2270   11.9900   30.7340 C.ar  251  PHE251     -0.0042
    176  CE1       16.8110   10.1420   29.2360 C.ar  251  PHE251     -0.0003
    177  CE2       16.8610   11.9010   30.8700 C.ar  251  PHE251     -0.0003
    178  CZ        16.1460   10.9770   30.1240 C.ar  251  PHE251     -0.0000
    179  N         24.1080   13.5110   18.3190 N.3   273  HIS273     -0.1226
    180  CA        22.8630   12.7380   18.3290 C.3   273  HIS273      0.1752
    181  C         22.8180   11.6690   17.2340 C.2   273  HIS273      0.2596
    182  O         22.1930   10.6330   17.3960 O.2   273  HIS273     -0.2718
    183  CB        21.6840   13.7060   18.1490 C.3   273  HIS273      0.0759
    184  CG        20.3330   13.0600   18.1990 C.ar  273  HIS273      0.0818
    185  ND1       19.8690   12.3870   19.3080 N.ar  273  HIS273     -0.2268
    186  CD2       19.3360   13.0090   17.2850 C.ar  273  HIS273      0.1154
    187  CE1       18.6470   11.9460   19.0740 C.ar  273  HIS273      0.1986
    188  NE2       18.3010   12.3030   17.8500 N.ar  273  HIS273     -0.2212
    189  N         23.5000   11.9080   16.1220 N.am  274  TRP274     -0.1976
    190  CA        23.2990   11.0730   14.9410 C.3   274  TRP274      0.1640
    191  C         24.3620    9.9890   14.8220 C.2   274  TRP274      0.2290
    192  O         25.1270    9.9610   13.8560 O.2   274  TRP274     -0.2864
    193  CB        23.2960   11.9590   13.6980 C.3   274  TRP274      0.0576
    194  CG        22.4060   13.1590   13.8860 C.ar  274  TRP274      0.0006
    195  CD1       22.7870   14.4220   14.2250 C.ar  274  TRP274      0.0946
    196  CD2       20.9720   13.1770   13.8150 C.ar  274  TRP274      0.0152
    197  NE1       21.6820   15.2390   14.3330 N.ar  274  TRP274     -0.2442
    198  CE2       20.5550   14.4950   14.0840 C.ar  274  TRP274      0.0810
    199  CE3       20.0040   12.2060   13.5270 C.ar  274  TRP274      0.0012
    200  CZ2       19.2020   14.8710   14.0790 C.ar  274  TRP274      0.0191
    201  CZ3       18.6590   12.5800   13.5230 C.ar  274  TRP274      0.0001
    202  CH2       18.2740   13.9020   13.8030 C.ar  274  TRP274      0.0015
@<TRIPOS>BOND
     1   119   120    1
     2     3     4    2
     3     3     2    1
     4     9    11   ar
     5     9     7   ar
     6    11    10   ar
     7   123   120    1
     8   123   124    1
     9     7     6   ar
    10    10     8   ar
    11   120   121    1
    12     2     1    1
    13     2     5    1
    14   121   122    2
    15     6     8   ar
    16     6     5    1
    17   201   199   ar
    18   201   202   ar
    19   199   196   ar
    20   193   194    1
    21   193   190    1
    22   126   124   ar
    23   126   128   ar
    24   202   200   ar
    25   124   125   ar
    26   196   194   ar
    27   196   198   ar
    28   192   191    2
    29   194   195   ar
    30   200   198   ar
    31   198   197   ar
    32   195   197   ar
    33   128   129   ar
    34   191   190    1
    35   125   127   ar
    36   190   189    1
    37    27    25    1
    38    25    24    1
    39   129   127   ar
    40   189   181   am
    41    19    17   ar
    42   148   146   ar
    43   148   150   ar
    44   130   131    1
    45   146   145   ar
    46    17    16    1
    47    17    18   ar
    48    16    13    1
    49   151   150    1
    50   136   138   ar
    51   136   135   ar
    52   132   131    1
    53   132   133    2
    54   134   131    1
    55   134   135    1
    56   181   182    2
    57   181   180    1
    58   150   149   ar
    59    24    26    1
    60    24    21    1
    61   186   188   ar
    62   186   184   ar
    63   140   141    1
    64    22    23    2
    65    22    21    1
    66   138   139   ar
    67    20    21    1
    68    20    14   am
    69   135   137   ar
    70   188   187   ar
    71   145   144    1
    72   145   147   ar
    73   102   103    1
    74   102    99    1
    75   183   184    1
    76   183   180    1
    77   184   185   ar
    78    13    12    1
    79    13    14    1
    80   144   141    1
    81   179   180    1
    82    14    15    2
    83   105   103   ar
    84   105   107   ar
    85   149   147   ar
    86   103   104   ar
    87   141   142    1
    88   101   100    2
    89   139   137   ar
    90    99   100    1
    91    99    98    1
    92   187   185   ar
    93   107   106   ar
    94   104   106   ar
    95   142   143    2
    96   100   108   am
    97    40    38   ar
    98    40    41   ar
    99    38    35   ar
   100    30    31    2
   101    30    29    1
   102   153   154    1
   103   153   152    1
   104    32    33    1
   105    32    29    1
   106   108   109    1
   107   111   110    2
   108    41    39   ar
   109    28    29    1
   110    35    33   ar
   111    35    37   ar
   112   155   154    2
   113    86    85    2
   114   154   156   am
   115    33    34   ar
   116   110   109    1
   117   109   112    1
   118    39    37   ar
   119    37    36   ar
   120    90    88    1
   121    46    43    1
   122   114   116   ar
   123   114   113   ar
   124   116   118   ar
   125   156   157    1
   126    34    36   ar
   127    85    84    1
   128    85    91   am
   129   157   158    1
   130    84    87    1
   131    84    83    1
   132    42    43    1
   133    93    92    1
   134    93    94    2
   135   112   113    1
   136    92    91    1
   137    92    95    1
   138    43    44    1
   139   113   115   ar
   140   118   117   ar
   141    88    87    1
   142    88    89    1
   143    96    95    1
   144    95    97    1
   145   158   160   am
   146   158   159    2
   147   115   117   ar
   148    44    45    2
   149    44    47   am
   150   166   165    1
   151   166   167    1
   152   160   161    1
   153   165   164    1
   154    53    47    1
   155    53    52    1
   156    50    49    2
   157    47    48    1
   158   164   161    1
   159   161   162    1
   160    52    51    1
   161    49    48    1
   162    48    51    1
   163   162   163    2
   164    79    78    2
   165    72    74   ar
   166    72    70   ar
   167    74    75   ar
   168    78    77    1
   169    69    70    1
   170    69    66    1
   171    70    71   ar
   172    75    73   ar
   173   174   176   ar
   174   174   173   ar
   175   176   178   ar
   176    71    73   ar
   177    81    82    1
   178    81    80    1
   179    68    67    2
   180    77    76    1
   181    77    80    1
   182    76    67   am
   183    76    82    1
   184    67    66    1
   185   172   173    1
   186   172   169    1
   187    66    65    1
   188   173   175   ar
   189   170   169    1
   190   170   171    2
   191   178   177   ar
   192   168   169    1
   193    65    56   am
   194   175   177   ar
   195    56    57    2
   196    56    55    1
   197    54    55    1
   198    55    58    1
   199    58    59    1
   200    59    60    1
   201    60    61    1
   202    61    62    2
   203    62    63    1
   204    62    64    1
