@<TRIPOS>MOLECULE
tmp/5hkbC00.pdb
 172 172 0 0 0
SMALL
GASTEIGER

@<TRIPOS>ATOM
      1  N        -13.3940    4.9310  204.7190 N.3   105  ASP105     -0.1239
      2  CA       -12.4840    5.7140  203.8800 C.3   105  ASP105      0.1674
      3  C        -13.0210    7.1430  203.6730 C.2   105  ASP105      0.2266
      4  O        -13.4640    7.7610  204.6350 O.2   105  ASP105     -0.2867
      5  CB       -12.2220    4.9880  202.5560 C.3   105  ASP105      0.1410
      6  CG       -11.0600    5.5680  201.8030 C.2   105  ASP105      0.3668
      7  OD1       -9.9160    5.3410  202.2530 O.co2 105  ASP105     -0.2456
      8  OD2      -11.2890    6.2280  200.7700 O.co2 105  ASP105     -0.2456
      9  N        -14.8750   11.3840  205.4220 N.3   109  TRP109     -0.1241
     10  CA       -14.6640   12.7960  205.1010 C.3   109  TRP109      0.1605
     11  C        -16.0040   13.4310  204.7020 C.2   109  TRP109      0.2264
     12  O        -16.3070   14.5840  205.0460 O.2   109  TRP109     -0.2867
     13  CB       -13.6910   12.9430  203.9260 C.3   109  TRP109      0.0550
     14  CG       -12.2970   12.3630  204.1060 C.ar  109  TRP109      0.0003
     15  CD1      -11.7990   11.7010  205.1920 C.ar  109  TRP109      0.0946
     16  CD2      -11.2500   12.4030  203.1440 C.ar  109  TRP109      0.0152
     17  NE1      -10.4870   11.3410  204.9680 N.ar  109  TRP109     -0.2442
     18  CE2      -10.1280   11.7610  203.7140 C.ar  109  TRP109      0.0810
     19  CE3      -11.1470   12.9190  201.8480 C.ar  109  TRP109      0.0012
     20  CZ2       -8.9230   11.6120  203.0280 C.ar  109  TRP109      0.0191
     21  CZ3       -9.9390   12.7740  201.1660 C.ar  109  TRP109      0.0001
     22  CH2       -8.8480   12.1280  201.7600 C.ar  109  TRP109      0.0015
     23  N        -11.3260    3.0110  208.7800 N.3   129  GLU129     -0.1231
     24  CA       -10.2680    3.0820  207.7770 C.3   129  GLU129      0.1699
     25  C        -10.1770    4.3960  206.9910 C.2   129  GLU129      0.2592
     26  O        -10.1600    4.3930  205.7670 O.2   129  GLU129     -0.2718
     27  CB       -10.3190    1.8530  206.8400 C.3   129  GLU129      0.0402
     28  CG        -9.5680    0.6260  207.3910 C.3   129  GLU129      0.1161
     29  CD        -8.0730    0.8720  207.5190 C.2   129  GLU129      0.3649
     30  OE1       -7.4910    1.5220  206.6190 O.co2 129  GLU129     -0.2457
     31  OE2       -7.4830    0.4300  208.5340 O.co2 129  GLU129     -0.2457
     32  N        -10.1020    5.5090  207.7220 N.am  130  ALA130     -0.1966
     33  CA        -9.6140    6.7910  207.1880 C.3   130  ALA130      0.1713
     34  C         -9.5310    7.8200  208.2850 C.2   130  ALA130      0.2458
     35  O        -10.3470    7.8250  209.1890 O.2   130  ALA130     -0.2730
     36  CB       -10.4810    7.3140  206.1040 C.3   130  ALA130      0.0333
     37  N         -8.5520    8.7290  208.1840 N.am  131  PRO131     -0.2727
     38  CA        -8.5540    9.8010  209.1780 C.3   131  PRO131      0.1402
     39  C         -9.6890   10.7750  208.8830 C.2   131  PRO131      0.2269
     40  O         -9.9880   11.0350  207.7190 O.2   131  PRO131     -0.2865
     41  CB        -7.1960   10.4780  208.9550 C.3   131  PRO131      0.0296
     42  CG        -6.8800   10.2040  207.4980 C.3   131  PRO131      0.0237
     43  CD        -7.4170    8.8180  207.2500 C.3   131  PRO131      0.0939
     44  N          1.1000   14.9800  209.2510 N.3   139  ARG139     -0.1231
     45  CA         2.2060   14.3130  209.9400 C.3   139  ARG139      0.1694
     46  C          2.5430   12.9410  209.3570 C.2   139  ARG139      0.2592
     47  O          3.5760   12.3640  209.7060 O.2   139  ARG139     -0.2718
     48  CB         1.9090   14.1730  211.4380 C.3   139  ARG139      0.0321
     49  CG         1.7270   15.4930  212.1740 C.3   139  ARG139      0.0489
     50  CD         3.0100   16.3080  212.1900 C.3   139  ARG139      0.2205
     51  NE         4.1330   15.5580  212.7510 N.pl3 139  ARG139     -0.0865
     52  CZ         4.3920   15.4530  214.0520 C.cat 139  ARG139      0.5346
     53  NH1        5.4380   14.7490  214.4670 N.pl3 139  ARG139      0.1354
     54  NH2        3.6050   16.0480  214.9390 N.pl3 139  ARG139      0.1354
     55  N          1.6780   12.4200  208.4890 N.am  140  PHE140     -0.1963
     56  CA         1.9220   11.1200  207.8580 C.3   140  PHE140      0.1756
     57  C          3.1560   11.2420  206.9830 C.2   140  PHE140      0.2461
     58  O          3.3540   12.2720  206.3510 O.2   140  PHE140     -0.2730
     59  CB         0.7500   10.7110  206.9770 C.3   140  PHE140      0.0574
     60  CG        -0.5490   10.6030  207.7060 C.ar  140  PHE140     -0.0200
     61  CD1       -0.5860   10.1770  209.0140 C.ar  140  PHE140     -0.0042
     62  CD2       -1.7330   10.9480  207.0820 C.ar  140  PHE140     -0.0042
     63  CE1       -1.7880   10.0820  209.6930 C.ar  140  PHE140     -0.0003
     64  CE2       -2.9300   10.8650  207.7590 C.ar  140  PHE140     -0.0003
     65  CZ        -2.9550   10.4180  209.0610 C.ar  140  PHE140     -0.0000
     66  N          3.9820   10.1870  206.9320 N.am  141  PRO141     -0.2727
     67  CA         5.2400   10.2650  206.1720 C.3   141  PRO141      0.1402
     68  C          5.0780   10.0120  204.6710 C.2   141  PRO141      0.2269
     69  O          4.2260    9.2160  204.2510 O.2   141  PRO141     -0.2865
     70  CB         6.0850    9.1510  206.7950 C.3   141  PRO141      0.0296
     71  CG         5.0520    8.1190  207.1940 C.3   141  PRO141      0.0237
     72  CD         3.8510    8.9110  207.6610 C.3   141  PRO141      0.0939
     73  N          4.8370    4.7360  200.9340 N.3   149  SER149     -0.1202
     74  CA         3.9290    5.2550  201.9510 C.3   149  SER149      0.2020
     75  C          2.5000    4.8990  201.5940 C.2   149  SER149      0.2619
     76  O          2.1630    4.7490  200.4290 O.2   149  SER149     -0.2717
     77  CB         4.0590    6.7730  202.0490 C.3   149  SER149      0.2103
     78  OG         2.9730    7.3520  202.7330 O.3   149  SER149     -0.2182
     79  N          1.6520    4.7660  202.5910 N.am  150  LEU150     -0.1965
     80  CA         0.2730    4.4420  202.2740 C.3   150  LEU150      0.1728
     81  C         -0.6040    5.6700  201.9710 C.2   150  LEU150      0.2616
     82  O         -1.7350    5.5000  201.5460 O.2   150  LEU150     -0.2715
     83  CB        -0.3520    3.5590  203.3620 C.3   150  LEU150      0.0311
     84  CG         0.1970    2.1480  203.5730 C.3   150  LEU150      0.0022
     85  CD1       -0.3310    1.6200  204.8920 C.3   150  LEU150      0.0001
     86  CD2       -0.2090    1.2260  202.4280 C.3   150  LEU150      0.0001
     87  N         -0.1260    6.8930  202.2280 N.am  151  VAL151     -0.1977
     88  CA        -0.9030    8.0820  201.8360 C.3   151  VAL151      0.1596
     89  C         -0.2000    9.0280  200.8890 C.2   151  VAL151      0.2287
     90  O         -0.6020   10.1900  200.7840 O.2   151  VAL151     -0.2864
     91  CB        -1.3560    8.9860  203.0090 C.3   151  VAL151      0.0276
     92  CG1       -2.6280    8.4630  203.6690 C.3   151  VAL151      0.0022
     93  CG2       -0.2200    9.2350  203.9740 C.3   151  VAL151      0.0022
     94  N         -0.4870    9.1380  197.9190 N.3   153  HIS153     -0.1226
     95  CA        -1.4390    9.5080  196.8960 C.3   153  HIS153      0.1752
     96  C         -2.2440   10.7700  197.2390 C.2   153  HIS153      0.2596
     97  O         -2.8650   11.3540  196.3550 O.2   153  HIS153     -0.2718
     98  CB        -2.3750    8.3330  196.6150 C.3   153  HIS153      0.0759
     99  CG        -3.2120    7.9430  197.7890 C.ar  153  HIS153      0.0818
    100  ND1       -2.7130    7.2650  198.8810 N.ar  153  HIS153     -0.2268
    101  CD2       -4.5220    8.1450  198.0360 C.ar  153  HIS153      0.1154
    102  CE1       -3.6840    7.0640  199.7540 C.ar  153  HIS153      0.1986
    103  NE2       -4.7920    7.5890  199.2650 N.ar  153  HIS153     -0.2212
    104  N         -2.2540   11.1740  198.5120 N.am  154  PHE154     -0.1976
    105  CA        -2.9090   12.4300  198.8780 C.3   154  PHE154      0.1639
    106  C         -2.3350   13.5400  198.0000 C.2   154  PHE154      0.2290
    107  O         -3.0830   14.3120  197.4040 O.2   154  PHE154     -0.2864
    108  CB        -2.6660   12.8200  200.3440 C.3   154  PHE154      0.0560
    109  CG        -3.5180   12.0850  201.3580 C.ar  154  PHE154     -0.0200
    110  CD1       -4.2890   10.9920  201.0180 C.ar  154  PHE154     -0.0042
    111  CD2       -3.5130   12.4980  202.6790 C.ar  154  PHE154     -0.0042
    112  CE1       -5.0490   10.3330  202.0000 C.ar  154  PHE154     -0.0003
    113  CE2       -4.2760   11.8570  203.6430 C.ar  154  PHE154     -0.0003
    114  CZ        -5.0430   10.7710  203.3000 C.ar  154  PHE154     -0.0000
    115  N         -3.2450    0.0540  193.5940 N.3   179  PHE179     -0.1241
    116  CA        -3.6770    0.8260  194.7530 C.3   179  PHE179      0.1605
    117  C         -4.3920   -0.0670  195.7690 C.2   179  PHE179      0.2264
    118  O         -4.1260    0.0050  196.9550 O.2   179  PHE179     -0.2867
    119  CB        -4.5890    1.9980  194.3550 C.3   179  PHE179      0.0534
    120  CG        -5.0080    2.8430  195.5290 C.ar  179  PHE179     -0.0203
    121  CD1       -4.2420    3.9160  195.9310 C.ar  179  PHE179     -0.0042
    122  CD2       -6.1500    2.5320  196.2490 C.ar  179  PHE179     -0.0042
    123  CE1       -4.6090    4.6710  197.0280 C.ar  179  PHE179     -0.0003
    124  CE2       -6.5200    3.2840  197.3510 C.ar  179  PHE179     -0.0003
    125  CZ        -5.7450    4.3640  197.7330 C.ar  179  PHE179     -0.0000
    126  N         -2.6960   -1.5980  199.5360 N.3   183  HIS183     -0.1241
    127  CA        -3.3220   -1.2540  200.8040 C.3   183  HIS183      0.1621
    128  C         -4.0170   -2.4440  201.4680 C.2   183  HIS183      0.2264
    129  O         -4.7910   -2.2700  202.4040 O.2   183  HIS183     -0.2867
    130  CB        -4.3190   -0.1080  200.6100 C.3   183  HIS183      0.0745
    131  CG        -3.6640    1.2120  200.3610 C.ar  183  HIS183      0.0817
    132  ND1       -3.2200    1.5940  199.1160 N.ar  183  HIS183     -0.2268
    133  CD2       -3.3390    2.2210  201.2040 C.ar  183  HIS183      0.1154
    134  CE1       -2.6750    2.7950  199.1960 C.ar  183  HIS183      0.1986
    135  NE2       -2.7460    3.2020  200.4500 N.ar  183  HIS183     -0.2212
    136  N         -1.3250   -2.1730  205.1430 N.3   246  GLY246     -0.1210
    137  CA        -2.2820   -1.2940  204.4900 C.3   246  GLY246      0.1956
    138  C         -3.3180   -0.6800  205.4200 C.2   246  GLY246      0.2612
    139  O         -4.0230    0.2400  205.0350 O.2   246  GLY246     -0.2717
    140  N         -3.4120   -1.1880  206.6420 N.am  247  GLY247     -0.1942
    141  CA        -4.4100   -0.7070  207.5840 C.3   247  GLY247      0.2014
    142  C         -3.9280    0.4630  208.4200 C.2   247  GLY247      0.2638
    143  O         -2.7330    0.7650  208.4630 O.2   247  GLY247     -0.2714
    144  N         -4.8640    1.1130  209.1070 N.am  248  MET248     -0.1976
    145  CA        -4.5110    2.2840  209.9010 C.3   248  MET248      0.1605
    146  C         -4.1530    1.9650  211.3400 C.2   248  MET248      0.2287
    147  O         -3.6480    2.8260  212.0600 O.2   248  MET248     -0.2864
    148  CB        -5.6350    3.3030  209.8560 C.3   248  MET248      0.0413
    149  CG        -5.7480    3.9340  208.5050 C.3   248  MET248      0.0598
    150  SD        -7.2150    4.9300  208.4260 S.3   248  MET248     -0.1393
    151  CE        -6.9870    6.0000  209.8390 C.3   248  MET248      0.0692
    152  N         -4.3800    4.2060  214.8960 N.3   251  PHE251     -0.1241
    153  CA        -4.6690    5.6160  214.6130 C.3   251  PHE251      0.1605
    154  C         -6.1630    5.9210  214.6600 C.2   251  PHE251      0.2264
    155  O         -6.5630    6.9680  215.1610 O.2   251  PHE251     -0.2867
    156  CB        -4.0990    6.0630  213.2550 C.3   251  PHE251      0.0534
    157  CG        -4.3990    7.5160  212.9120 C.ar  251  PHE251     -0.0203
    158  CD1       -5.6240    7.8860  212.3670 C.ar  251  PHE251     -0.0042
    159  CD2       -3.4610    8.5060  213.1460 C.ar  251  PHE251     -0.0042
    160  CE1       -5.9090    9.2170  212.0650 C.ar  251  PHE251     -0.0003
    161  CE2       -3.7310    9.8310  212.8430 C.ar  251  PHE251     -0.0003
    162  CZ        -4.9570   10.1910  212.3020 C.ar  251  PHE251     -0.0000
    163  N         -6.7110   -2.2880  204.6110 N.3   273  HIS273     -0.1241
    164  CA        -7.6340   -1.1710  204.4530 C.3   273  HIS273      0.1621
    165  C         -9.0550   -1.6040  204.0890 C.2   273  HIS273      0.2264
    166  O        -10.0300   -0.9430  204.4520 O.2   273  HIS273     -0.2867
    167  CB        -7.0880   -0.2470  203.3620 C.3   273  HIS273      0.0745
    168  CG        -7.9680    0.9250  203.0590 C.ar  273  HIS273      0.0817
    169  ND1       -8.2270    1.9150  203.9810 N.ar  273  HIS273     -0.2268
    170  CD2       -8.6380    1.2690  201.9320 C.ar  273  HIS273      0.1154
    171  CE1       -9.0150    2.8240  203.4320 C.ar  273  HIS273      0.1986
    172  NE2       -9.2850    2.4540  202.1910 N.ar  273  HIS273     -0.2212
@<TRIPOS>BOND
     1   115   116    1
     2   119   116    1
     3   119   120    1
     4   116   117    1
     5   120   121   ar
     6   120   122   ar
     7   117   118    2
     8   121   123   ar
     9   122   124   ar
    10    97    96    2
    11    98    95    1
    12    98    99    1
    13    95    96    1
    14    95    94    1
    15   123   125   ar
    16    96   104   am
    17   124   125   ar
    18   107   106    2
    19    99   101   ar
    20    99   100   ar
    21   106   105    1
    22   101   103   ar
    23   104   105    1
    24   105   108    1
    25   100   102   ar
    26   132   134   ar
    27   132   131   ar
    28   134   135   ar
    29   103   102   ar
    30   126   127    1
    31   108   109    1
    32   131   130    1
    33   131   133   ar
    34    76    75    2
    35   135   133   ar
    36   130   127    1
    37     8     6   ar
    38    90    89    2
    39   127   128    1
    40    89    88    1
    41    73    74    1
    42   110   109   ar
    43   110   112   ar
    44    21    22   ar
    45    21    19   ar
    46   109   111   ar
    47   128   129    2
    48    82    81    2
    49    75    74    1
    50    75    79   am
    51    22    20   ar
    52     6     7   ar
    53     6     5    1
    54    88    87    1
    55    88    91    1
    56    19    16   ar
    57   170   172   ar
    58   170   168   ar
    59    74    77    1
    60    81    87   am
    61    81    80    1
    62   112   114   ar
    63    77    78    1
    64   172   171   ar
    65    80    79    1
    66    80    83    1
    67    86    84    1
    68     5     2    1
    69   111   113   ar
    70    91    92    1
    71    91    93    1
    72    20    18   ar
    73   168   167    1
    74   168   169   ar
    75    16    18   ar
    76    16    14   ar
    77   114   113   ar
    78    83    84    1
    79   167   164    1
    80   171   169   ar
    81    84    85    1
    82     3     2    1
    83     3     4    2
    84    18    17   ar
    85     2     1    1
    86    13    14    1
    87    13    10    1
    88   165   166    2
    89   165   164    1
    90    14    15   ar
    91    69    68    2
    92   164   163    1
    93   137   136    1
    94   137   138    1
    95    68    67    1
    96    11    12    2
    97    11    10    1
    98    17    15   ar
    99   139   138    2
   100    10     9    1
   101   138   140   am
   102    26    25    2
   103    36    33    1
   104    67    70    1
   105    67    66    1
   106    58    57    2
   107    30    29   ar
   108   140   141    1
   109    70    71    1
   110    27    28    1
   111    27    24    1
   112    66    57   am
   113    66    72    1
   114    59    60    1
   115    59    56    1
   116    57    56    1
   117    25    32   am
   118    25    24    1
   119    62    60   ar
   120    62    64   ar
   121    33    32    1
   122    33    34    1
   123    71    72    1
   124    43    42    1
   125    43    37    1
   126    28    29    1
   127    42    41    1
   128    29    31   ar
   129   141   142    1
   130    60    61   ar
   131    40    39    2
   132    64    65   ar
   133    24    23    1
   134    56    55    1
   135    37    34   am
   136    37    38    1
   137    34    35    2
   138   142   143    2
   139   142   144   am
   140   150   149    1
   141   150   151    1
   142    55    46   am
   143   149   148    1
   144    39    38    1
   145    41    38    1
   146    61    63   ar
   147    65    63   ar
   148   144   145    1
   149    44    45    1
   150    46    47    2
   151    46    45    1
   152   148   145    1
   153   145   146    1
   154    45    48    1
   155   146   147    2
   156    48    49    1
   157   160   162   ar
   158   160   158   ar
   159    49    50    1
   160    50    51    1
   161   162   161   ar
   162   158   157   ar
   163    51    52    2
   164   161   159   ar
   165   157   159   ar
   166   157   156    1
   167   156   153    1
   168    52    53    1
   169    52    54    1
   170   153   154    1
   171   153   152    1
   172   154   155    2
