@<TRIPOS>MOLECULE
tmp/5hkfA00.pdb
 120 115 0 0 0
SMALL
GASTEIGER

@<TRIPOS>ATOM
      1  N         48.8490   -3.3610   64.9750 N.3    31  ARG31      -0.1245
      2  CA        49.2070   -3.2570   63.5800 C.3    31  ARG31       0.1563
      3  C         50.0050   -4.4540   63.1730 C.2    31  ARG31       0.2260
      4  O         50.1000   -4.7130   61.9970 O.2    31  ARG31      -0.2867
      5  CB        50.0340   -2.0170   63.2510 C.3    31  ARG31       0.0307
      6  CG        49.2710   -0.7230   63.3830 C.3    31  ARG31       0.0489
      7  CD        49.5980   -0.1050   64.6990 C.3    31  ARG31       0.2205
      8  NE        48.5430    0.8030   65.0640 N.pl3  31  ARG31      -0.0865
      9  CZ        48.5250    2.1010   64.7880 C.cat  31  ARG31       0.5346
     10  NH1       49.5230    2.6790   64.1220 N.pl3  31  ARG31       0.1354
     11  NH2       47.4790    2.8180   65.1860 N.pl3  31  ARG31       0.1354
     12  N         40.0870    6.4970   60.8430 N.3    62  LEU62      -0.1231
     13  CA        41.1570    7.4580   61.0160 C.3    62  LEU62       0.1693
     14  C         42.4960    6.8060   60.7530 C.2    62  LEU62       0.2593
     15  O         42.8250    5.7810   61.3760 O.2    62  LEU62      -0.2718
     16  CB        41.1640    8.0810   62.4340 C.3    62  LEU62       0.0284
     17  CG        42.0580    9.3150   62.5390 C.3    62  LEU62       0.0019
     18  CD1       41.4430   10.4470   61.7160 C.3    62  LEU62       0.0001
     19  CD2       42.3120    9.7700   63.9790 C.3    62  LEU62       0.0001
     20  N         43.2860    7.4220   59.8760 N.am   63  THR63      -0.1939
     21  CA        44.5810    6.9270   59.5680 C.3    63  THR63       0.2028
     22  C         45.3450    7.0640   60.8790 C.2    63  THR63       0.2642
     23  O         45.2010    8.0690   61.5530 O.2    63  THR63      -0.2714
     24  CB        45.2710    7.6920   58.4250 C.3    63  THR63       0.1808
     25  OG1       46.3730    6.9040   57.9340 O.3    63  THR63      -0.2208
     26  CG2       45.8210    9.1060   58.8900 C.3    63  THR63       0.0379
     27  N         46.1400    6.0730   61.2800 N.am   64  LEU64      -0.1963
     28  CA        46.5850    4.9350   60.4810 C.3    64  LEU64       0.1728
     29  C         45.9610    3.5840   60.8530 C.2    64  LEU64       0.2616
     30  O         45.8120    2.6890   60.0050 O.2    64  LEU64      -0.2715
     31  CB        48.0920    4.8750   60.7130 C.3    64  LEU64       0.0311
     32  CG        48.9970    4.0190   59.8680 C.3    64  LEU64       0.0022
     33  CD1       48.7420    4.2610   58.3930 C.3    64  LEU64       0.0001
     34  CD2       50.4280    4.3830   60.2180 C.3    64  LEU64       0.0001
     35  N         45.6280    3.4060   62.1260 N.am   65  GLY65      -0.1955
     36  CA        45.1360    2.1200   62.6300 C.3    65  GLY65       0.1869
     37  C         43.9690    1.4930   61.9050 C.2    65  GLY65       0.2309
     38  O         43.9020    0.2380   61.7240 O.2    65  GLY65      -0.2863
     39  N         44.4660   13.6630   58.9640 N.3    88  LYS88      -0.1245
     40  CA        44.4100   14.4590   60.2010 C.3    88  LYS88       0.1561
     41  C         44.5660   15.9810   59.9850 C.2    88  LYS88       0.2260
     42  O         45.1860   16.4480   59.0170 O.2    88  LYS88      -0.2867
     43  CB        45.4680   13.9280   61.1830 C.3    88  LYS88       0.0271
     44  CG        45.2230   12.4850   61.6260 C.3    88  LYS88       0.0035
     45  CD        46.4160   11.8450   62.3470 C.3    88  LYS88       0.0206
     46  CE        45.9790   10.7290   63.3050 C.3    88  LYS88       0.1093
     47  NZ        46.9500    9.5970   63.4040 N.3    88  LYS88      -0.1314
     48  N         37.9110    0.8920   63.5620 N.3   104  GLU104     -0.1231
     49  CA        39.1550    1.1590   64.2770 C.3   104  GLU104      0.1699
     50  C         39.7930   -0.2020   64.5540 C.2   104  GLU104      0.2592
     51  O         39.1090   -1.2270   64.5930 O.2   104  GLU104     -0.2718
     52  CB        38.8480    1.9250   65.5680 C.3   104  GLU104      0.0402
     53  CG        40.0420    2.4410   66.3630 C.3   104  GLU104      0.1161
     54  CD        40.8860    3.4870   65.6400 C.2   104  GLU104      0.3649
     55  OE1       41.6210    3.1180   64.6980 O.co2 104  GLU104     -0.2457
     56  OE2       40.8400    4.6720   66.0470 O.co2 104  GLU104     -0.2457
     57  N         41.1080   -0.2410   64.7080 N.am  105  ASP105     -0.1960
     58  CA        41.7460   -1.4790   65.0870 C.3   105  ASP105      0.1840
     59  C         41.4640   -1.7450   66.5900 C.2   105  ASP105      0.2623
     60  O         40.8720   -2.7800   66.9240 O.2   105  ASP105     -0.2715
     61  CB        43.2290   -1.5030   64.6880 C.3   105  ASP105      0.1450
     62  CG        44.0810   -0.3710   65.3160 C.2   105  ASP105      0.3671
     63  OD1       43.6060    0.5300   66.0530 O.co2 105  ASP105     -0.2456
     64  OD2       45.2800   -0.4340   65.0450 O.co2 105  ASP105     -0.2456
     65  N         41.8330   -0.8050   67.4670 N.am  106  THR106     -0.1937
     66  CA        41.3720   -0.8260   68.8900 C.3   106  THR106      0.2028
     67  C         41.2340    0.5890   69.4410 C.2   106  THR106      0.2643
     68  O         42.1130    1.3930   69.2360 O.2   106  THR106     -0.2714
     69  CB        42.3020   -1.6270   69.7980 C.3   106  THR106      0.1808
     70  OG1       41.7530   -1.6480   71.1120 O.3   106  THR106     -0.2208
     71  CG2       43.7150   -1.0170   69.8190 C.3   106  THR106      0.0379
     72  N         40.1140    0.8950   70.0810 N.am  107  SER107     -0.1935
     73  CA        39.8810    2.2350   70.6480 C.3   107  SER107      0.2055
     74  C         40.2520    2.2240   72.1240 C.2   107  SER107      0.2644
     75  O         40.0140    1.2140   72.8030 O.2   107  SER107     -0.2714
     76  CB        38.4050    2.6490   70.5400 C.3   107  SER107      0.2130
     77  OG        38.0030    3.0260   69.2300 O.3   107  SER107     -0.2179
     78  N         40.8230    3.3420   72.6070 N.am  108  THR108     -0.1936
     79  CA        40.9680    3.6130   74.0520 C.3   108  THR108      0.2028
     80  C         39.8470    4.5480   74.5300 C.2   108  THR108      0.2643
     81  O         38.9670    4.1160   75.2420 O.2   108  THR108     -0.2714
     82  CB        42.3570    4.1970   74.3960 C.3   108  THR108      0.1808
     83  OG1       43.3830    3.3180   73.9190 O.3   108  THR108     -0.2208
     84  CG2       42.5400    4.3690   75.9280 C.3   108  THR108      0.0379
     85  N         39.8590    5.8060   74.0890 N.am  109  THR109     -0.1936
     86  CA        38.8510    6.7960   74.4510 C.3   109  THR109      0.2028
     87  C         37.6530    6.7990   73.4930 C.2   109  THR109      0.2643
     88  O         36.5200    7.0900   73.8820 O.2   109  THR109     -0.2714
     89  CB        39.4610    8.2290   74.4760 C.3   109  THR109      0.1808
     90  OG1       39.9670    8.5770   73.1740 O.3   109  THR109     -0.2208
     91  CG2       40.5890    8.3100   75.4770 C.3   109  THR109      0.0379
     92  N         37.9240    6.4930   72.2300 N.am  110  GLY110     -0.1939
     93  CA        36.9320    6.5540   71.2030 C.3   110  GLY110      0.2014
     94  C         37.1160    7.8250   70.4320 C.2   110  GLY110      0.2639
     95  O         36.4760    7.9960   69.4060 O.2   110  GLY110     -0.2714
     96  N         37.9930    8.7130   70.9050 N.am  111  ASN111     -0.1958
     97  CA        38.2400    9.9770   70.2360 C.3   111  ASN111      0.1819
     98  C         38.5600    9.7390   68.7490 C.2   111  ASN111      0.2622
     99  O         37.9700   10.3630   67.8660 O.2   111  ASN111     -0.2715
    100  CB        39.4190   10.7450   70.8900 C.3   111  ASN111      0.1195
    101  CG        39.0610   11.4160   72.2310 C.2   111  ASN111      0.2630
    102  OD1       37.9050   11.4060   72.6970 O.2   111  ASN111     -0.2716
    103  ND2       40.0780   11.9950   72.8670 N.am  111  ASN111     -0.0877
    104  N         39.5030    8.8480   68.4670 N.am  112  SER112     -0.1950
    105  CA        39.9240    8.6390   67.0750 C.3   112  SER112      0.1924
    106  C         38.7590    8.2330   66.2180 C.2   112  SER112      0.2314
    107  O         38.4820    8.8860   65.2120 O.2   112  SER112     -0.2863
    108  CB        41.0400    7.6070   66.9630 C.3   112  SER112      0.2116
    109  OG        42.2670    8.2100   67.3400 O.3   112  SER112     -0.2180
    110  N         38.8390   -3.1190   74.5980 N.3   136  ARG136     -0.1245
    111  CA        39.6970   -3.2570   75.7280 C.3   136  ARG136      0.1563
    112  C         39.0140   -2.7710   77.0180 C.2   136  ARG136      0.2260
    113  O         39.6550   -2.5870   78.0310 O.2   136  ARG136     -0.2867
    114  CB        41.0200   -2.5470   75.4400 C.3   136  ARG136      0.0307
    115  CG        41.8030   -3.2440   74.3360 C.3   136  ARG136      0.0489
    116  CD        43.2470   -2.7550   74.2250 C.3   136  ARG136      0.2205
    117  NE        43.3070   -1.3840   73.7140 N.pl3 136  ARG136     -0.0865
    118  CZ        43.4790   -0.2940   74.4650 C.cat 136  ARG136      0.5346
    119  NH1       43.6440   -0.3760   75.7850 N.pl3 136  ARG136      0.1354
    120  NH2       43.5040    0.8970   73.8900 N.pl3 136  ARG136      0.1354
@<TRIPOS>BOND
     1    25    24    1
     2    33    32    1
     3    24    26    1
     4    24    21    1
     5    39    40    1
     6    42    41    2
     7    21    20    1
     8    21    22    1
     9    32    34    1
    10    32    31    1
    11    20    14   am
    12    41    40    1
    13    30    29    2
    14    40    43    1
    15    28    31    1
    16    28    29    1
    17    28    27    1
    18    14    13    1
    19    14    15    2
    20    12    13    1
    21    29    35   am
    22    22    27   am
    23    22    23    2
    24    13    16    1
    25    43    44    1
    26    44    45    1
    27    18    17    1
    28    38    37    2
    29    37    36    1
    30     4     3    2
    31    35    36    1
    32    45    46    1
    33    16    17    1
    34    17    19    1
    35     3     2    1
    36     5     6    1
    37     5     2    1
    38    46    47    1
    39     6     7    1
    40    48    49    1
    41     2     1    1
    42    10     9    1
    43    49    50    1
    44    49    52    1
    45    50    51    2
    46    50    57   am
    47    61    58    1
    48    61    62    1
    49    55    54   ar
    50     7     8    1
    51    57    58    1
    52     9     8    2
    53     9    11    1
    54    64    62   ar
    55    58    59    1
    56   107   106    2
    57    62    63   ar
    58    52    53    1
    59    54    56   ar
    60    54    53    1
    61   106   105    1
    62    59    60    2
    63    59    65   am
    64   108   105    1
    65   108   109    1
    66   105   104    1
    67    65    66    1
    68    99    98    2
    69   104    98   am
    70    98    97    1
    71    66    67    1
    72    66    69    1
    73    77    76    1
    74    68    67    2
    75    95    94    2
    76    67    72   am
    77    69    71    1
    78    69    70    1
    79    72    73    1
    80    97   100    1
    81    97    96    1
    82    94    96   am
    83    94    93    1
    84    76    73    1
    85    73    74    1
    86   100   101    1
    87    93    92    1
    88    74    78   am
    89    74    75    2
    90    92    87   am
    91   101   102    2
    92   101   103   am
    93    78    79    1
    94    90    89    1
    95    87    88    2
    96    87    86    1
    97   117   116    1
    98   117   118    2
    99   120   118    1
   100    83    82    1
   101    79    82    1
   102    79    80    1
   103    85    86    1
   104    85    80   am
   105   116   115    1
   106   115   114    1
   107    82    84    1
   108    86    89    1
   109   118   119    1
   110    89    91    1
   111    80    81    2
   112   110   111    1
   113   114   111    1
   114   111   112    1
   115   112   113    2
