@<TRIPOS>MOLECULE
tmp/5hkhA00.pdb
 126 121 0 0 0
SMALL
GASTEIGER

@<TRIPOS>ATOM
      1  N         19.5610   -5.4960    8.0070 N.3     3  MET3       -0.1245
      2  CA        20.6440   -5.2520    7.0880 C.3     3  MET3        0.1570
      3  C         21.5070   -4.1150    7.6040 C.2     3  MET3        0.2261
      4  O         20.9920   -3.1190    8.0920 O.2     3  MET3       -0.2867
      5  CB        20.0810   -4.9180    5.7140 C.3     3  MET3        0.0387
      6  CG        21.1040   -4.3770    4.7620 C.3     3  MET3        0.0595
      7  SD        20.3640   -4.2230    3.1380 S.3     3  MET3       -0.1393
      8  CE        19.8540   -5.9160    2.9040 C.3     3  MET3        0.0692
      9  N         24.5070    1.6320    5.7020 N.3     6  LYS6       -0.1245
     10  CA        25.2730    1.9410    4.5090 C.3     6  LYS6        0.1561
     11  C         25.9840    3.2560    4.6820 C.2     6  LYS6        0.2260
     12  O         25.5110    4.1330    5.4140 O.2     6  LYS6       -0.2867
     13  CB        24.3570    2.0460    3.2790 C.3     6  LYS6        0.0271
     14  CG        23.7640    0.7290    2.8590 C.3     6  LYS6        0.0035
     15  CD        22.6170    0.9240    1.8800 C.3     6  LYS6        0.0206
     16  CE        21.9720   -0.4180    1.5350 C.3     6  LYS6        0.1093
     17  NZ        23.0130   -1.3850    1.1090 N.3     6  LYS6       -0.1314
     18  N         27.7470    6.2900    2.0600 N.3     8  SER8       -0.1217
     19  CA        27.6710    6.7000    0.6710 C.3     8  SER8        0.1889
     20  C         28.9010    7.5140    0.2740 C.2     8  SER8        0.2288
     21  O         29.4340    8.2630    1.0720 O.2     8  SER8       -0.2866
     22  CB        26.3990    7.5120    0.4520 C.3     8  SER8        0.2089
     23  OG        26.3340    8.5930    1.3820 O.3     8  SER8       -0.2183
     24  N         29.5410    9.3820   -9.6540 N.3    22  LYS22      -0.1231
     25  CA        28.5610    8.3760   -9.2990 C.3    22  LYS22       0.1693
     26  C         28.4870    8.2930   -7.7690 C.2    22  LYS22       0.2592
     27  O         29.5170    8.3230   -7.0760 O.2    22  LYS22      -0.2718
     28  CB        28.9390    7.0300   -9.9280 C.3    22  LYS22       0.0285
     29  CG        29.1950    7.1030  -11.4510 C.3    22  LYS22       0.0035
     30  CD        27.9070    7.0180  -12.2620 C.3    22  LYS22       0.0206
     31  CE        28.1520    7.1740  -13.7650 C.3    22  LYS22       0.1093
     32  NZ        28.1650    8.6180  -14.2040 N.3    22  LYS22      -0.1314
     33  N         27.2730    8.2400   -7.2350 N.am   23  VAL23      -0.1966
     34  CA        27.1220    8.0560   -5.8110 C.3    23  VAL23       0.1727
     35  C         26.8630    6.5930   -5.5280 C.2    23  VAL23       0.2616
     36  O         25.9690    5.9820   -6.0970 O.2    23  VAL23      -0.2715
     37  CB        26.0060    8.9190   -5.2230 C.3    23  VAL23       0.0290
     38  CG1       26.0310    8.8220   -3.7120 C.3    23  VAL23       0.0023
     39  CG2       26.1900   10.3610   -5.6390 C.3    23  VAL23       0.0023
     40  N         27.6700    6.0290   -4.6470 N.am   24  LEU24      -0.1963
     41  CA        27.5590    4.6250   -4.3060 C.3    24  LEU24       0.1728
     42  C         27.1550    4.5020   -2.8570 C.2    24  LEU24       0.2617
     43  O         27.7480    5.1220   -1.9970 O.2    24  LEU24      -0.2715
     44  CB        28.9040    3.9230   -4.5040 C.3    24  LEU24       0.0311
     45  CG        29.3540    3.4890   -5.9040 C.3    24  LEU24       0.0022
     46  CD1       29.2170    4.5990   -6.9360 C.3    24  LEU24       0.0001
     47  CD2       30.7820    2.9590   -5.8620 C.3    24  LEU24       0.0001
     48  N         26.1430    3.7070   -2.5740 N.am   25  SER25      -0.1936
     49  CA        25.8160    3.4260   -1.1990 C.3    25  SER25       0.2055
     50  C         26.3020    2.0150   -0.9430 C.2    25  SER25       0.2643
     51  O         26.0130    1.1010   -1.7110 O.2    25  SER25      -0.2714
     52  CB        24.3140    3.5400   -0.9830 C.3    25  SER25       0.2130
     53  OG        23.9820    3.4160    0.3840 O.3    25  SER25      -0.2179
     54  N         27.0620    1.8370    0.1270 N.am   26  VAL26      -0.1963
     55  CA        27.7370    0.5720    0.3540 C.3    26  VAL26       0.1712
     56  C         27.6790    0.1340    1.8300 C.2    26  VAL26       0.2458
     57  O         27.7990    0.9600    2.7280 O.2    26  VAL26      -0.2730
     58  CB        29.2060    0.6080   -0.2150 C.3    26  VAL26       0.0289
     59  CG1       29.6130    2.0010   -0.6560 C.3    26  VAL26       0.0023
     60  CG2       30.1930    0.0530    0.7540 C.3    26  VAL26       0.0023
     61  N         27.4400   -1.1650    2.0830 N.am   27  PRO27      -0.2727
     62  CA        27.4540   -1.6400    3.4750 C.3    27  PRO27       0.1402
     63  C         28.7900   -1.3340    4.1630 C.2    27  PRO27       0.2269
     64  O         29.8550   -1.5750    3.5790 O.2    27  PRO27      -0.2865
     65  CB        27.2690   -3.1670    3.3350 C.3    27  PRO27       0.0296
     66  CG        26.6240   -3.3690    1.9990 C.3    27  PRO27       0.0237
     67  CD        27.0500   -2.2180    1.1230 C.3    27  PRO27       0.0939
     68  N         30.6850   -2.7230    6.2180 N.3    29  SER29      -0.1202
     69  CA        31.6650   -3.7950    6.3520 C.3    29  SER29       0.2020
     70  C         32.2710   -4.2520    5.0320 C.2    29  SER29       0.2619
     71  O         33.0120   -5.2310    4.9860 O.2    29  SER29      -0.2717
     72  CB        31.0270   -5.0030    7.0320 C.3    29  SER29       0.2103
     73  OG        30.8880   -4.7960    8.4240 O.3    29  SER29      -0.2182
     74  N         31.9670   -3.5430    3.9560 N.am   30  THR30      -0.1939
     75  CA        32.4510   -3.9330    2.6560 C.3    30  THR30       0.2013
     76  C         33.8960   -3.4970    2.4040 C.2    30  THR30       0.2484
     77  O         34.2420   -2.3200    2.5580 O.2    30  THR30      -0.2729
     78  CB        31.5140   -3.4020    1.5620 C.3    30  THR30       0.1807
     79  OG1       30.3120   -4.1830    1.5770 O.3    30  THR30      -0.2208
     80  CG2       32.1760   -3.4800    0.1830 C.3    30  THR30       0.0379
     81  N         34.7450   -4.4610    2.0180 N.am   31  PRO31      -0.2726
     82  CA        36.1530   -4.2190    1.6860 C.3    31  PRO31       0.1402
     83  C         36.1900   -3.1690    0.6090 C.2    31  PRO31       0.2269
     84  O         35.3820   -3.2320   -0.3180 O.2    31  PRO31      -0.2865
     85  CB        36.6100   -5.5520    1.0890 C.3    31  PRO31       0.0296
     86  CG        35.6790   -6.5620    1.6500 C.3    31  PRO31       0.0237
     87  CD        34.3550   -5.8650    1.8080 C.3    31  PRO31       0.0939
     88  N         38.0010   -2.6990   -1.8560 N.3    33  THR33      -0.1203
     89  CA        38.2670   -3.2710   -3.1830 C.3    33  THR33       0.1994
     90  C         36.9870   -3.4610   -3.9890 C.2    33  THR33       0.2618
     91  O         36.9810   -3.3040   -5.2070 O.2    33  THR33      -0.2717
     92  CB        38.9120   -4.6610   -3.0910 C.3    33  THR33       0.1784
     93  OG1       37.9470   -5.5990   -2.6080 O.3    33  THR33      -0.2211
     94  CG2       40.0830   -4.6550   -2.1650 C.3    33  THR33       0.0376
     95  N         35.9020   -3.8070   -3.3030 N.am   34  ALA34      -0.1965
     96  CA        34.6110   -3.9850   -3.9570 C.3    34  ALA34       0.1728
     97  C         34.0790   -2.6560   -4.4610 C.2    34  ALA34       0.2616
     98  O         33.5080   -2.5730   -5.5430 O.2    34  ALA34      -0.2715
     99  CB        33.6340   -4.6140   -3.0140 C.3    34  ALA34       0.0334
    100  N         34.2810   -1.6110   -3.6730 N.am   35  VAL35      -0.1977
    101  CA        33.8240   -0.2780   -4.0400 C.3    35  VAL35       0.1596
    102  C         34.5840    0.2190   -5.2490 C.2    35  VAL35       0.2287
    103  O         33.9980    0.7700   -6.1620 O.2    35  VAL35      -0.2864
    104  CB        34.0150    0.7230   -2.8840 C.3    35  VAL35       0.0276
    105  CG1       33.4270    2.0810   -3.2570 C.3    35  VAL35       0.0022
    106  CG2       33.3810    0.1720   -1.6070 C.3    35  VAL35       0.0022
    107  N         33.4190   -1.7630   -8.3580 N.3    38  PHE38      -0.1241
    108  CA        32.1200   -1.2400   -8.7240 C.3    38  PHE38       0.1605
    109  C         32.2070    0.1410   -9.3890 C.2    38  PHE38       0.2264
    110  O         31.5440    0.3990  -10.3980 O.2    38  PHE38      -0.2867
    111  CB        31.2260   -1.1730   -7.4960 C.3    38  PHE38       0.0534
    112  CG        29.7980   -0.9160   -7.8180 C.ar   38  PHE38      -0.0203
    113  CD1       29.3580    0.3700   -8.1180 C.ar   38  PHE38      -0.0042
    114  CD2       28.8830   -1.9610   -7.8450 C.ar   38  PHE38      -0.0042
    115  CE1       28.0220    0.6140   -8.4430 C.ar   38  PHE38      -0.0003
    116  CE2       27.5360   -1.7230   -8.1580 C.ar   38  PHE38      -0.0003
    117  CZ        27.1070   -0.4320   -8.4540 C.ar   38  PHE38      -0.0000
    118  N         31.3480    1.3590  -13.3120 N.3    42  GLU42      -0.1245
    119  CA        30.3610    2.3820  -13.6140 C.3    42  GLU42       0.1567
    120  C         30.9870    3.3980  -14.5440 C.2    42  GLU42       0.2260
    121  O         30.2950    4.0660  -15.3110 O.2    42  GLU42      -0.2867
    122  CB        29.8640    3.0820  -12.3490 C.3    42  GLU42       0.0388
    123  CG        28.8800    2.2720  -11.5470 C.3    42  GLU42       0.1160
    124  CD        27.5960    2.0250  -12.3100 C.2    42  GLU42       0.3649
    125  OE1       27.1450    2.9430  -13.0310 O.co2  42  GLU42      -0.2457
    126  OE2       27.0490    0.9060  -12.1990 O.co2  42  GLU42      -0.2457
@<TRIPOS>BOND
     1   121   120    2
     2   120   119    1
     3    32    31    1
     4    31    30    1
     5   119   118    1
     6   119   122    1
     7   125   124   ar
     8   122   123    1
     9   124   126   ar
    10   124   123    1
    11    30    29    1
    12    29    28    1
    13   110   109    2
    14    28    25    1
    15    24    25    1
    16   109   108    1
    17    25    26    1
    18   108   107    1
    19   108   111    1
    20   117   115   ar
    21   117   116   ar
    22   115   113   ar
    23   116   114   ar
    24   113   112   ar
    25   114   112   ar
    26   112   111    1
    27    26    33   am
    28    26    27    2
    29    33    34    1
    30    46    45    1
    31   103   102    2
    32    36    35    2
    33    45    47    1
    34    45    44    1
    35    34    35    1
    36    34    37    1
    37    39    37    1
    38    98    97    2
    39    35    40   am
    40   102   101    1
    41    37    38    1
    42    91    90    2
    43    40    41    1
    44    44    41    1
    45    97    96    1
    46    97   100   am
    47    41    42    1
    48   101   100    1
    49   101   104    1
    50    90    95   am
    51    90    89    1
    52    96    95    1
    53    96    99    1
    54   105   104    1
    55    89    92    1
    56    89    88    1
    57    92    93    1
    58    92    94    1
    59   104   106    1
    60    42    48   am
    61    42    43    2
    62    48    49    1
    63    51    50    2
    64    49    52    1
    65    49    50    1
    66    52    53    1
    67    50    54   am
    68    59    58    1
    69    84    83    2
    70    58    55    1
    71    58    60    1
    72    54    55    1
    73    80    78    1
    74    20    19    1
    75    20    21    2
    76    55    56    1
    77    22    19    1
    78    22    23    1
    79    83    82    1
    80    19    18    1
    81    85    86    1
    82    85    82    1
    83    17    16    1
    84    67    66    1
    85    67    61    1
    86    16    15    1
    87    78    79    1
    88    78    75    1
    89    86    87    1
    90    82    81    1
    91    87    81    1
    92    56    61   am
    93    56    57    2
    94    15    14    1
    95    66    65    1
    96    81    76   am
    97    61    62    1
    98    76    77    2
    99    76    75    1
   100    75    74    1
   101    14    13    1
   102     8     7    1
   103     7     6    1
   104    13    10    1
   105    65    62    1
   106    62    63    1
   107    64    63    2
   108    74    70   am
   109    10    11    1
   110    10     9    1
   111    11    12    2
   112     6     5    1
   113    71    70    2
   114    70    69    1
   115     5     2    1
   116    68    69    1
   117    69    72    1
   118    72    73    1
   119     2     3    1
   120     2     1    1
   121     3     4    2
