@<TRIPOS>MOLECULE
tmp/5hkiB00.pdb
 87 82 0 0 0
SMALL
GASTEIGER

@<TRIPOS>ATOM
      1  N          8.7060   11.4200   31.7860 N.3    22  LEU22      -0.1231
      2  CA        10.0720   11.7430   31.4750 C.3    22  LEU22       0.1693
      3  C         11.0030   11.0900   32.5020 C.2    22  LEU22       0.2592
      4  O         10.5660   10.5150   33.5020 O.2    22  LEU22      -0.2718
      5  CB        10.2120   13.2650   31.3150 C.3    22  LEU22       0.0284
      6  CG         9.2140   13.7440   30.2130 C.3    22  LEU22       0.0019
      7  CD1        9.4190   15.2070   29.8640 C.3    22  LEU22       0.0001
      8  CD2        9.2490   12.9020   28.9390 C.3    22  LEU22       0.0001
      9  N         12.2900   11.1160   32.2090 N.am   23  SER23      -0.1952
     10  CA        13.2950   10.5950   33.1480 C.3    23  SER23       0.1924
     11  C         13.3160   11.3150   34.5380 C.2    23  SER23       0.2314
     12  O         13.6960   10.7110   35.5280 O.2    23  SER23      -0.2863
     13  CB        14.6770   10.6740   32.4880 C.3    23  SER23       0.2116
     14  OG        14.9290   12.0230   32.1890 O.3    23  SER23      -0.2180
     15  N          8.5400   14.0130   35.4460 N.3    26  ARG26      -0.1245
     16  CA         7.5330   14.9210   34.8940 C.3    26  ARG26       0.1563
     17  C          6.7660   14.1760   33.8550 C.2    26  ARG26       0.2260
     18  O          7.3160   13.3060   33.2050 O.2    26  ARG26      -0.2867
     19  CB         8.1790   16.1430   34.2620 C.3    26  ARG26       0.0307
     20  CG         7.2260   17.1090   33.5320 C.3    26  ARG26       0.0489
     21  CD         7.8810   18.4690   33.2410 C.3    26  ARG26       0.2205
     22  NE         9.3000   18.3210   32.8880 N.pl3  26  ARG26      -0.0865
     23  CZ         9.8180   18.3360   31.6540 C.cat  26  ARG26       0.5346
     24  NH1        9.0520   18.5200   30.5720 N.pl3  26  ARG26       0.1354
     25  NH2       11.1420   18.1470   31.5040 N.pl3  26  ARG26       0.1354
     26  N          6.7840   13.5330   23.2930 N.3    31  TYR31      -0.1227
     27  CA         8.2250   13.6500   23.2860 C.3    31  TYR31       0.1736
     28  C          8.6470   13.6060   21.8360 C.2    31  TYR31       0.2595
     29  O          7.8810   13.2200   20.9760 O.2    31  TYR31      -0.2718
     30  CB         8.9040   12.5490   24.1370 C.3    31  TYR31       0.0548
     31  CG         9.0770   11.1580   23.5050 C.ar   31  TYR31      -0.0200
     32  CD1        8.0560   10.1690   23.6010 C.ar   31  TYR31      -0.0009
     33  CD2       10.2760   10.7980   22.8820 C.ar   31  TYR31      -0.0009
     34  CE1        8.2140    8.8860   23.0490 C.ar   31  TYR31       0.0417
     35  CE2       10.4510    9.4950   22.3270 C.ar   31  TYR31       0.0417
     36  CZ         9.4180    8.5400   22.4020 C.ar   31  TYR31       0.1957
     37  OH         9.6010    7.2780   21.8500 O.3    31  TYR31      -0.2866
     38  N          9.8710   14.0370   21.5860 N.am   32  VAL32      -0.1966
     39  CA        10.4410   14.1500   20.2500 C.3    32  VAL32       0.1727
     40  C         11.6040   13.1750   20.1370 C.2    32  VAL32       0.2616
     41  O         12.5120   13.2130   20.9530 O.2    32  VAL32      -0.2715
     42  CB        10.9350   15.6000   19.9840 C.3    32  VAL32       0.0290
     43  CG1       11.4830   15.7110   18.5500 C.3    32  VAL32       0.0023
     44  CG2        9.7980   16.5990   20.2280 C.3    32  VAL32       0.0023
     45  N         11.5650   12.3080   19.1260 N.am   33  ASP33      -0.1971
     46  CA        12.6370   11.3670   18.8240 C.3    33  ASP33       0.1709
     47  C         13.1610   11.8200   17.4710 C.2    33  ASP33       0.2293
     48  O         12.7980   11.2600   16.4320 O.2    33  ASP33      -0.2864
     49  CB        12.0910    9.9070   18.7830 C.3    33  ASP33       0.1436
     50  CG        13.1540    8.8630   18.3080 C.2    33  ASP33       0.3671
     51  OD1       14.3590    9.1550   18.4570 O.co2  33  ASP33      -0.2456
     52  OD2       12.7940    7.7860   17.7840 O.co2  33  ASP33      -0.2456
     53  N         16.0300   11.5960   15.9730 N.3    35  ARG35      -0.1245
     54  CA        16.9060   10.6750   15.2230 C.3    35  ARG35       0.1563
     55  C         16.2390    9.7390   14.2430 C.2    35  ARG35       0.2260
     56  O         16.9040    9.3140   13.3150 O.2    35  ARG35      -0.2867
     57  CB        17.8410    9.8860   16.1460 C.3    35  ARG35       0.0307
     58  CG        18.9080   10.8060   16.8040 C.3    35  ARG35       0.0489
     59  CD        18.9090   10.5990   18.3130 C.3    35  ARG35       0.2205
     60  NE        19.6780   11.5600   19.0830 N.pl3  35  ARG35      -0.0865
     61  CZ        19.2310   12.7370   19.5170 C.cat  35  ARG35       0.5346
     62  NH1       17.9650   13.1430   19.2440 N.pl3  35  ARG35       0.1354
     63  NH2       20.0720   13.5290   20.2190 N.pl3  35  ARG35       0.1354
     64  N         17.2290   20.1750   20.7330 N.3   113  SER113     -0.1202
     65  CA        17.6900   20.4320   22.0800 C.3   113  SER113      0.2020
     66  C         16.7260   21.4140   22.7200 C.2   113  SER113      0.2619
     67  O         16.1930   22.2610   22.0220 O.2   113  SER113     -0.2717
     68  CB        19.0530   21.1010   21.9610 C.3   113  SER113      0.2103
     69  OG        19.6050   21.4660   23.1820 O.3   113  SER113     -0.2182
     70  N         16.5350   21.3140   24.0310 N.am  114  THR114     -0.1952
     71  CA        15.7620   22.2960   24.7720 C.3   114  THR114      0.1897
     72  C         16.6180   23.3870   25.3310 C.2   114  THR114      0.2313
     73  O         16.1150   24.4810   25.4580 O.2   114  THR114     -0.2863
     74  CB        14.9710   21.6870   25.9420 C.3   114  THR114      0.1794
     75  OG1       15.8170   20.7930   26.6580 O.3   114  THR114     -0.2208
     76  CG2       13.7360   20.9450   25.4420 C.3   114  THR114      0.0378
     77  N         13.3270   24.6200   19.4280 N.3   142  ARG142     -0.1245
     78  CA        12.2010   24.3450   20.3460 C.3   142  ARG142      0.1563
     79  C         11.7500   25.6000   21.0670 C.2   142  ARG142      0.2260
     80  O         10.8780   25.5120   21.9310 O.2   142  ARG142     -0.2867
     81  CB        12.5400   23.2600   21.3850 C.3   142  ARG142      0.0307
     82  CG        13.1420   21.9620   20.8620 C.3   142  ARG142      0.0489
     83  CD        12.1640   20.8420   20.5890 C.3   142  ARG142      0.2205
     84  NE        11.4830   20.3300   21.7940 N.pl3 142  ARG142     -0.0865
     85  CZ        11.7100   19.1740   22.4370 C.cat 142  ARG142      0.5346
     86  NH1       12.6490   18.3270   22.0570 N.pl3 142  ARG142      0.1354
     87  NH2       10.9380   18.8490   23.4690 N.pl3 142  ARG142      0.1354
@<TRIPOS>BOND
     1    56    55    2
     2    55    54    1
     3    54    53    1
     4    54    57    1
     5    57    58    1
     6    48    47    2
     7    58    59    1
     8    47    46    1
     9    52    50   ar
    10    50    51   ar
    11    50    49    1
    12    59    60    1
    13    43    42    1
    14    49    46    1
    15    46    45    1
    16    60    61    2
    17    45    40   am
    18    62    61    1
    19    77    78    1
    20    61    63    1
    21    42    44    1
    22    42    39    1
    23    40    39    1
    24    40    41    2
    25    39    38    1
    26    78    79    1
    27    78    81    1
    28    83    82    1
    29    83    84    1
    30    64    65    1
    31    82    81    1
    32    29    28    2
    33    79    80    2
    34    38    28   am
    35    84    85    2
    36    28    27    1
    37    37    36    1
    38    68    65    1
    39    68    69    1
    40    67    66    2
    41    86    85    1
    42    65    66    1
    43    35    36   ar
    44    35    33   ar
    45    36    34   ar
    46    85    87    1
    47    66    70   am
    48    33    31   ar
    49    34    32   ar
    50    27    26    1
    51    27    30    1
    52    31    32   ar
    53    31    30    1
    54    70    71    1
    55    71    72    1
    56    71    74    1
    57    72    73    2
    58    76    74    1
    59    74    75    1
    60     8     6    1
    61     7     6    1
    62     6     5    1
    63    24    23    1
    64     5     2    1
    65     2     1    1
    66     2     3    1
    67    25    23    1
    68    23    22    2
    69    14    13    1
    70     9     3   am
    71     9    10    1
    72    13    10    1
    73     3     4    2
    74    22    21    1
    75    10    11    1
    76    18    17    2
    77    21    20    1
    78    20    19    1
    79    17    16    1
    80    19    16    1
    81    11    12    2
    82    16    15    1
