@<TRIPOS>MOLECULE
tmp/5hkkH00.pdb
 148 140 0 0 0
SMALL
GASTEIGER

@<TRIPOS>ATOM
      1  N         43.5530   85.6420   42.8230 N.3    10  GLU10      -0.1231
      2  CA        43.1070   84.2580   42.8690 C.3    10  GLU10       0.1699
      3  C         41.7170   84.0630   43.4980 C.2    10  GLU10       0.2592
      4  O         40.9630   83.2120   43.0400 O.2    10  GLU10      -0.2718
      5  CB        44.1790   83.3610   43.5460 C.3    10  GLU10       0.0402
      6  CG        44.7080   83.7790   44.9300 C.3    10  GLU10       0.1161
      7  CD        45.9210   84.7260   44.9120 C.2    10  GLU10       0.3649
      8  OE1       46.4570   85.0580   43.8250 O.co2  10  GLU10      -0.2457
      9  OE2       46.3360   85.1540   46.0180 O.co2  10  GLU10      -0.2457
     10  N         41.3630   84.8350   44.5170 N.am   11  ARG11      -0.1980
     11  CA        40.0680   84.6520   45.1880 C.3    11  ARG11       0.1597
     12  C         39.4860   85.9610   45.7230 C.2    11  ARG11       0.2287
     13  O         40.2180   86.9390   45.8570 O.2    11  ARG11      -0.2864
     14  CB        40.2380   83.6350   46.3340 C.3    11  ARG11       0.0334
     15  CG        40.8310   84.2040   47.5990 C.3    11  ARG11       0.0492
     16  CD        41.6840   83.2050   48.3470 C.3    11  ARG11       0.2205
     17  NE        42.3340   83.8640   49.4850 N.pl3  11  ARG11      -0.0865
     18  CZ        41.8470   83.9340   50.7270 C.cat  11  ARG11       0.5346
     19  NH1       40.6920   83.3590   51.0600 N.pl3  11  ARG11       0.1354
     20  NH2       42.5360   84.5720   51.6580 N.pl3  11  ARG11       0.1354
     21  N         47.6440   92.2580   45.9930 N.3    78  ASP78      -0.1225
     22  CA        48.4620   91.0500   45.7800 C.3    78  ASP78       0.1805
     23  C         48.1810   90.0140   46.8700 C.2    78  ASP78       0.2598
     24  O         48.1590   88.8090   46.6300 O.2    78  ASP78      -0.2718
     25  CB        49.9650   91.3820   45.8360 C.3    78  ASP78       0.1424
     26  CG        50.4310   92.3310   44.7220 C.2    78  ASP78       0.3668
     27  OD1       49.6530   92.6850   43.7990 O.co2  78  ASP78      -0.2456
     28  OD2       51.6100   92.7160   44.7780 O.co2  78  ASP78      -0.2456
     29  N         47.9700   90.5170   48.0760 N.am   79  THR79      -0.1939
     30  CA        47.7750   89.7150   49.2580 C.3    79  THR79       0.2028
     31  C         46.6310   90.3360   50.0750 C.2    79  THR79       0.2642
     32  O         46.4840   91.5550   50.1050 O.2    79  THR79      -0.2714
     33  CB        49.1180   89.6780   50.0250 C.3    79  THR79       0.1808
     34  OG1       49.7980   88.4490   49.7150 O.3    79  THR79      -0.2208
     35  CG2       48.9510   89.8640   51.5640 C.3    79  THR79       0.0379
     36  N         45.8330   89.4910   50.7240 N.am   80  ALA80      -0.1963
     37  CA        44.7730   89.9430   51.6290 C.3    80  ALA80       0.1728
     38  C         44.3780   88.7850   52.5070 C.2    80  ALA80       0.2616
     39  O         43.9590   87.7840   51.9860 O.2    80  ALA80      -0.2715
     40  CB        43.5710   90.4270   50.8360 C.3    80  ALA80       0.0334
     41  N         44.5290   88.8950   53.8210 N.am   81  GLU81      -0.1977
     42  CA        44.2060   87.7710   54.7200 C.3    81  GLU81       0.1602
     43  C         43.3680   88.2030   55.9090 C.2    81  GLU81       0.2287
     44  O         43.6170   89.2490   56.4980 O.2    81  GLU81      -0.2864
     45  CB        45.4710   87.0920   55.2450 C.3    81  GLU81       0.0415
     46  CG        46.3820   86.5350   54.1600 C.3    81  GLU81       0.1163
     47  CD        47.6300   87.3680   53.8800 C.2    81  GLU81       0.3649
     48  OE1       47.7930   88.5200   54.3910 O.co2  81  GLU81      -0.2457
     49  OE2       48.4770   86.8430   53.1170 O.co2  81  GLU81      -0.2457
     50  N         42.4640   83.2960   59.4200 N.3    85  GLU85      -0.1231
     51  CA        43.2390   82.5260   58.4110 C.3    85  GLU85       0.1699
     52  C         44.7370   82.9030   58.2890 C.2    85  GLU85       0.2592
     53  O         45.4100   82.4360   57.3720 O.2    85  GLU85      -0.2718
     54  CB        42.5480   82.5730   57.0330 C.3    85  GLU85       0.0402
     55  CG        42.7040   83.8730   56.2630 C.3    85  GLU85       0.1161
     56  CD        41.7600   84.0170   55.0780 C.2    85  GLU85       0.3649
     57  OE1       40.8340   83.1990   54.9260 O.co2  85  GLU85      -0.2457
     58  OE2       41.9390   84.9880   54.2940 O.co2  85  GLU85      -0.2457
     59  N         45.2510   83.7190   59.2110 N.am   86  ILE86      -0.1966
     60  CA        46.6660   84.1100   59.2160 C.3    86  ILE86       0.1727
     61  C         47.4320   83.1400   60.1130 C.2    86  ILE86       0.2616
     62  O         47.0660   82.9390   61.2750 O.2    86  ILE86      -0.2715
     63  CB        46.8560   85.5910   59.6760 C.3    86  ILE86       0.0290
     64  CG1       46.4740   86.5420   58.5380 C.3    86  ILE86       0.0022
     65  CG2       48.2870   85.8890   60.1180 C.3    86  ILE86       0.0023
     66  CD1       46.2080   87.9640   58.9840 C.3    86  ILE86       0.0001
     67  N         48.4950   82.5620   59.5560 N.am   87  ASP87      -0.1971
     68  CA        49.4100   81.6780   60.2670 C.3    87  ASP87       0.1709
     69  C         50.3850   82.5210   61.0900 C.2    87  ASP87       0.2293
     70  O         51.2790   83.1700   60.5430 O.2    87  ASP87      -0.2864
     71  CB        50.1690   80.8060   59.2560 C.3    87  ASP87       0.1436
     72  CG        51.0360   79.7350   59.9230 C.2    87  ASP87       0.3671
     73  OD1       51.4640   79.9190   61.1010 O.co2  87  ASP87      -0.2456
     74  OD2       51.2900   78.7090   59.2440 O.co2  87  ASP87      -0.2456
     75  N         54.3660   81.4270   61.2000 N.3    90  ARG90      -0.1231
     76  CA        54.9560   81.7870   59.9010 C.3    90  ARG90       0.1694
     77  C         55.1990   83.2870   59.7400 C.2    90  ARG90       0.2591
     78  O         56.1820   83.6890   59.1200 O.2    90  ARG90      -0.2718
     79  CB        54.0460   81.3240   58.7610 C.3    90  ARG90       0.0321
     80  CG        54.5350   81.6660   57.3570 C.3    90  ARG90       0.0489
     81  CD        53.5490   81.1730   56.3380 C.3    90  ARG90       0.2205
     82  NE        53.8290   81.6900   55.0090 N.pl3  90  ARG90      -0.0865
     83  CZ        52.9920   81.6130   53.9760 C.cat  90  ARG90       0.5346
     84  NH1       51.7960   81.0420   54.0850 N.pl3  90  ARG90       0.1354
     85  NH2       53.3530   82.1140   52.8040 N.pl3  90  ARG90       0.1354
     86  N         54.2850   84.1090   60.2490 N.am   91  ALA91      -0.1980
     87  CA        54.4610   85.5460   60.2250 C.3    91  ALA91       0.1597
     88  C         55.6390   85.9950   61.0930 C.2    91  ALA91       0.2287
     89  O         56.2290   87.0350   60.8150 O.2    91  ALA91      -0.2864
     90  CB        53.1890   86.2400   60.6560 C.3    91  ALA91       0.0319
     91  N         58.7460   84.9720   58.9300 N.3    94  ALA94      -0.1245
     92  CA        58.8410   86.0280   57.9290 C.3    94  ALA94       0.1562
     93  C         59.4280   87.3010   58.5410 C.2    94  ALA94       0.2260
     94  O         60.2850   87.9400   57.9450 O.2    94  ALA94      -0.2867
     95  CB        57.4750   86.3070   57.3060 C.3    94  ALA94       0.0290
     96  N         63.3450   86.6800   59.7230 N.3    97  ARG97      -0.1231
     97  CA        64.1760   86.6260   58.5120 C.3    97  ARG97       0.1694
     98  C         64.4740   88.0340   57.9950 C.2    97  ARG97       0.2592
     99  O         65.6240   88.4650   57.9800 O.2    97  ARG97      -0.2718
    100  CB        63.5340   85.7760   57.3920 C.3    97  ARG97       0.0321
    101  CG        64.1490   86.0150   56.0030 C.3    97  ARG97       0.0489
    102  CD        63.8620   84.9770   54.9280 C.3    97  ARG97       0.2205
    103  NE        62.4520   84.9290   54.5290 N.pl3  97  ARG97      -0.0865
    104  CZ        61.5260   84.1110   55.0480 C.cat  97  ARG97       0.5346
    105  NH1       61.8170   83.2230   56.0060 N.pl3  97  ARG97       0.1354
    106  NH2       60.2780   84.1730   54.5990 N.pl3  97  ARG97       0.1354
    107  N         63.4360   88.7530   57.5920 N.am   98  HIS98      -0.1976
    108  CA        63.6150   90.0330   56.9120 C.3    98  HIS98       0.1656
    109  C         64.1030   91.1460   57.8360 C.2    98  HIS98       0.2291
    110  O         64.6670   92.1290   57.3690 O.2    98  HIS98      -0.2864
    111  CB        62.3200   90.4320   56.1890 C.3    98  HIS98       0.0771
    112  CG        61.9020   89.4600   55.1300 C.ar   98  HIS98       0.0820
    113  ND1       62.6960   89.1600   54.0440 N.ar   98  HIS98      -0.2267
    114  CD2       60.7800   88.7150   54.9950 C.ar   98  HIS98       0.1154
    115  CE1       62.0840   88.2660   53.2890 C.ar   98  HIS98       0.1986
    116  NE2       60.9180   87.9810   53.8420 N.ar   98  HIS98      -0.2212
    117  N         58.7910   93.0290   52.4280 N.3   118  ALA118     -0.1245
    118  CA        58.4450   91.7330   53.0220 C.3   118  ALA118      0.1562
    119  C         58.3400   91.7410   54.5490 C.2   118  ALA118      0.2260
    120  O         57.6550   90.8990   55.1380 O.2   118  ALA118     -0.2867
    121  CB        59.4470   90.6780   52.5880 C.3   118  ALA118      0.0290
    122  N         54.8310   93.3660   55.2330 N.3   121  ARG121     -0.1231
    123  CA        53.7790   92.3600   54.9880 C.3   121  ARG121      0.1694
    124  C         53.5810   91.4470   56.1860 C.2   121  ARG121      0.2591
    125  O         52.4550   91.0940   56.4900 O.2   121  ARG121     -0.2718
    126  CB        54.0820   91.4840   53.7750 C.3   121  ARG121      0.0321
    127  CG        53.9630   92.2040   52.4500 C.3   121  ARG121      0.0489
    128  CD        53.7770   91.2350   51.2890 C.3   121  ARG121      0.2205
    129  NE        54.8630   90.2500   51.2000 N.pl3 121  ARG121     -0.0865
    130  CZ        56.0820   90.4760   50.7050 C.cat 121  ARG121      0.5346
    131  NH1       56.4410   91.6700   50.2440 N.pl3 121  ARG121      0.1354
    132  NH2       56.9670   89.4860   50.6860 N.pl3 121  ARG121      0.1354
    133  N         54.6720   91.0650   56.8430 N.am  122  ALA122     -0.1980
    134  CA        54.6290   90.2170   58.0360 C.3   122  ALA122      0.1597
    135  C         54.2570   90.9940   59.3120 C.2   122  ALA122      0.2287
    136  O         53.6400   90.4510   60.2170 O.2   122  ALA122     -0.2864
    137  CB        55.9600   89.4930   58.2190 C.3   122  ALA122      0.0319
    138  N         50.4380   91.3550   59.1180 N.3   125  ARG125     -0.1245
    139  CA        49.8060   90.0670   59.4380 C.3   125  ARG125      0.1563
    140  C         49.7510   89.7600   60.9410 C.2   125  ARG125      0.2260
    141  O         48.7990   89.1370   61.4120 O.2   125  ARG125     -0.2867
    142  CB        50.5020   88.9240   58.6900 C.3   125  ARG125      0.0307
    143  CG        50.1000   88.8510   57.2330 C.3   125  ARG125      0.0489
    144  CD        51.1430   88.1470   56.4220 C.3   125  ARG125      0.2205
    145  NE        50.7740   88.0060   55.0120 N.pl3 125  ARG125     -0.0865
    146  CZ        51.6390   87.9560   53.9910 C.cat 125  ARG125      0.5346
    147  NH1       52.9460   88.1010   54.1710 N.pl3 125  ARG125      0.1354
    148  NH2       51.1880   87.7890   52.7570 N.pl3 125  ARG125      0.1354
@<TRIPOS>BOND
     1     1     2    1
     2     2     3    1
     3     2     5    1
     4     4     3    2
     5     3    10   am
     6     5     6    1
     7    27    26   ar
     8     8     7   ar
     9    10    11    1
    10    26    28   ar
    11    26    25    1
    12     7     6    1
    13     7     9   ar
    14    11    12    1
    15    11    14    1
    16    12    13    2
    17    22    25    1
    18    22    21    1
    19    22    23    1
    20    14    15    1
    21    24    23    2
    22    23    29   am
    23    15    16    1
    24    29    30    1
    25    16    17    1
    26    30    33    1
    27    30    31    1
    28    17    18    2
    29    34    33    1
    30    33    35    1
    31    31    32    2
    32    31    36   am
    33   131   130    1
    34   132   130    1
    35   130   129    2
    36    36    37    1
    37    18    19    1
    38    18    20    1
    39    40    37    1
    40   129   128    1
    41   128   127    1
    42    37    38    1
    43    39    38    2
    44   117   118    1
    45   127   126    1
    46    38    41   am
    47   121   118    1
    48   148   146    1
    49    85    83    1
    50   118   119    1
    51    49    47   ar
    52   115   116   ar
    53   115   113   ar
    54   126   123    1
    55    41    42    1
    56   116   114   ar
    57    47    46    1
    58    47    48   ar
    59    83    84    1
    60    83    82    2
    61   146   147    1
    62   146   145    2
    63   113   112   ar
    64    46    45    1
    65    58    56   ar
    66   103   102    1
    67   103   104    2
    68   119   120    2
    69   106   104    1
    70    42    45    1
    71    42    43    1
    72    57    56   ar
    73   102   101    1
    74   123   122    1
    75   123   124    1
    76   114   112   ar
    77    82    81    1
    78   145   144    1
    79   104   105    1
    80    56    55    1
    81   112   111    1
    82    43    44    2
    83   101   100    1
    84   124   125    2
    85   124   133   am
    86   111   108    1
    87    55    54    1
    88    81    80    1
    89   144   143    1
    90   133   134    1
    91   108   107    1
    92   108   109    1
    93    54    51    1
    94   143   142    1
    95    95    92    1
    96    80    79    1
    97   110   109    2
    98    53    52    2
    99   100    97    1
   100   107    98   am
   101    92    93    1
   102    92    91    1
   103    94    93    2
   104    99    98    2
   105    98    97    1
   106   134   137    1
   107   134   135    1
   108    52    51    1
   109    52    59   am
   110    51    50    1
   111    97    96    1
   112    64    66    1
   113    64    63    1
   114   142   139    1
   115    79    76    1
   116   138   139    1
   117    78    77    2
   118    59    60    1
   119    60    63    1
   120    60    61    1
   121    74    72   ar
   122    71    72    1
   123    71    68    1
   124   135   136    2
   125   139   140    1
   126    67    61   am
   127    67    68    1
   128    63    65    1
   129    77    76    1
   130    77    86   am
   131    76    75    1
   132    72    73   ar
   133    61    62    2
   134    87    86    1
   135    87    90    1
   136    87    88    1
   137    68    69    1
   138    70    69    2
   139    89    88    2
   140   140   141    2
