@<TRIPOS>MOLECULE
tmp/5hkmA00.pdb
 176 165 0 0 0
SMALL
GASTEIGER

@<TRIPOS>ATOM
      1  N         35.2910  -26.2230  -18.9770 N.3    13  LEU13      -0.1231
      2  CA        34.9520  -25.6830  -17.6490 C.3    13  LEU13       0.1693
      3  C         36.1630  -25.5340  -16.7050 C.2    13  LEU13       0.2593
      4  O         35.9920  -25.2550  -15.5040 O.2    13  LEU13      -0.2718
      5  CB        33.9120  -26.5690  -16.9830 C.3    13  LEU13       0.0284
      6  CG        32.5830  -26.7380  -17.7070 C.3    13  LEU13       0.0019
      7  CD1       31.7620  -27.7910  -17.0290 C.3    13  LEU13       0.0001
      8  CD2       31.7800  -25.3960  -17.7600 C.3    13  LEU13       0.0001
      9  N         37.3600  -25.7090  -17.2520 N.am   14  GLY14      -0.1942
     10  CA        38.5920  -25.5910  -16.4900 C.3    14  GLY14       0.2014
     11  C         39.6690  -26.5210  -16.9900 C.2    14  GLY14       0.2638
     12  O         39.4000  -27.6960  -17.2510 O.2    14  GLY14      -0.2714
     13  N         40.9000  -25.9970  -17.1190 N.am   15  GLU15      -0.1977
     14  CA        42.0270  -26.8000  -17.5920 C.3    15  GLU15       0.1602
     15  C         42.9610  -27.1680  -16.4340 C.2    15  GLU15       0.2287
     16  O         42.6410  -26.8720  -15.2830 O.2    15  GLU15      -0.2864
     17  CB        42.7460  -26.1240  -18.7820 C.3    15  GLU15       0.0415
     18  CG        41.8350  -25.9870  -19.9920 C.3    15  GLU15       0.1163
     19  CD        42.4170  -25.4210  -21.2750 C.2    15  GLU15       0.3649
     20  OE1       41.9060  -24.3790  -21.7470 O.co2  15  GLU15      -0.2457
     21  OE2       43.3210  -26.0670  -21.8540 O.co2  15  GLU15      -0.2457
     22  N         44.7200  -32.6120  -16.8320 N.3    19  SER19      -0.1217
     23  CA        43.2920  -32.7070  -17.1280 C.3    19  SER19       0.1889
     24  C         42.6560  -31.4730  -17.7620 C.2    19  SER19       0.2288
     25  O         43.2110  -30.3730  -17.7330 O.2    19  SER19      -0.2866
     26  CB        42.5180  -33.0820  -15.8690 C.3    19  SER19       0.2089
     27  OG        42.5640  -32.0340  -14.9170 O.3    19  SER19      -0.2183
     28  N         38.4160  -30.2140  -17.8960 N.3    21  VAL21      -0.1245
     29  CA        37.0330  -30.5160  -17.5520 C.3    21  VAL21       0.1561
     30  C         36.1630  -29.8580  -18.5960 C.2    21  VAL21       0.2260
     31  O         36.2600  -28.6540  -18.7430 O.2    21  VAL21      -0.2867
     32  CB        36.6540  -30.1300  -16.1020 C.3    21  VAL21       0.0252
     33  CG1       35.2310  -30.5880  -15.7870 C.3    21  VAL21       0.0019
     34  CG2       37.6310  -30.7540  -15.1170 C.3    21  VAL21       0.0019
     35  N         29.8740  -32.5210  -15.9180 N.3    34  ALA34      -0.1245
     36  CA        31.1740  -31.8970  -16.1080 C.3    34  ALA34       0.1562
     37  C         32.1330  -33.0550  -16.1620 C.2    34  ALA34       0.2260
     38  O         32.3160  -33.7630  -15.1610 O.2    34  ALA34      -0.2867
     39  CB        31.4900  -31.0000  -14.9330 C.3    34  ALA34       0.0290
     40  N         35.7670  -34.7870  -16.6240 N.3    36  LYS36      -0.1245
     41  CA        37.1980  -34.5750  -16.4880 C.3    36  LYS36       0.1561
     42  C         37.8440  -35.5970  -17.4070 C.2    36  LYS36       0.2260
     43  O         37.6740  -36.8010  -17.2190 O.2    36  LYS36      -0.2867
     44  CB        37.6490  -34.7550  -15.0310 C.3    36  LYS36       0.0271
     45  CG        39.1610  -34.8340  -14.8320 C.3    36  LYS36       0.0035
     46  CD        39.4780  -34.9340  -13.3440 C.3    36  LYS36       0.0206
     47  CE        40.8760  -34.4610  -13.0550 C.3    36  LYS36       0.1093
     48  NZ        40.9710  -33.8080  -11.7270 N.3    36  LYS36      -0.1314
     49  N         42.4270  -40.2590   -6.7120 N.3    55  GLU55      -0.1245
     50  CA        41.2770  -39.3920   -7.0140 C.3    55  GLU55       0.1567
     51  C         40.0050  -40.2100   -7.1560 C.2    55  GLU55       0.2260
     52  O         39.0600  -39.9480   -6.4290 O.2    55  GLU55      -0.2867
     53  CB        41.5180  -38.5620   -8.2970 C.3    55  GLU55       0.0388
     54  CG        40.4920  -37.4550   -8.4920 C.3    55  GLU55       0.1160
     55  CD        40.6610  -36.5160   -9.6740 C.2    55  GLU55       0.3649
     56  OE1       41.4490  -36.8330  -10.5950 O.co2  55  GLU55      -0.2457
     57  OE2       39.9860  -35.4600   -9.6820 O.co2  55  GLU55      -0.2457
     58  N         36.9570  -40.0390   -4.5640 N.3    59  MET59      -0.1245
     59  CA        35.6690  -39.5470   -5.0490 C.3    59  MET59       0.1570
     60  C         34.5920  -40.6050   -4.8860 C.2    59  MET59       0.2261
     61  O         33.4930  -40.2690   -4.4580 O.2    59  MET59      -0.2867
     62  CB        35.7420  -39.0950   -6.5260 C.3    59  MET59       0.0387
     63  CG        36.6800  -37.9550   -6.7650 C.3    59  MET59       0.0595
     64  SD        36.2990  -36.9560   -8.2210 S.3    59  MET59      -0.1393
     65  CE        35.2130  -35.7420   -7.4390 C.3    59  MET59       0.0692
     66  N         31.3020  -32.7010   -4.8710 N.3    68  VAL68      -0.1245
     67  CA        30.9990  -33.0540   -6.2360 C.3    68  VAL68       0.1561
     68  C         30.9850  -34.6010   -6.2530 C.2    68  VAL68       0.2260
     69  O         31.8480  -35.2240   -5.6260 O.2    68  VAL68      -0.2867
     70  CB        32.0660  -32.4520   -7.1790 C.3    68  VAL68       0.0252
     71  CG1       32.2440  -33.2710   -8.4520 C.3    68  VAL68       0.0019
     72  CG2       31.7340  -31.0100   -7.5290 C.3    68  VAL68       0.0019
     73  N         31.6190  -36.0690  -13.6790 N.3    84  LEU84      -0.1231
     74  CA        31.3910  -35.4140  -12.3770 C.3    84  LEU84       0.1693
     75  C         30.2270  -34.4400  -12.4210 C.2    84  LEU84       0.2593
     76  O         29.8750  -33.9730  -13.5020 O.2    84  LEU84      -0.2718
     77  CB        32.6440  -34.5960  -11.9550 C.3    84  LEU84       0.0284
     78  CG        33.9920  -35.2330  -12.0840 C.3    84  LEU84       0.0019
     79  CD1       35.0890  -34.1750  -12.0500 C.3    84  LEU84       0.0001
     80  CD2       34.1990  -36.2200  -10.9990 C.3    84  LEU84       0.0001
     81  N         29.6930  -34.0570  -11.2250 N.am   85  SER85      -0.1938
     82  CA        28.5950  -33.1130  -11.0830 C.3    85  SER85       0.2055
     83  C         28.9550  -31.8070  -11.7280 C.2    85  SER85       0.2643
     84  O         30.0750  -31.3620  -11.5550 O.2    85  SER85      -0.2714
     85  CB        28.3060  -32.8380   -9.6040 C.3    85  SER85       0.2130
     86  OG        28.4930  -33.9960   -8.8160 O.3    85  SER85      -0.2179
     87  N         28.0180  -31.2110  -12.4930 N.am   86  TYR86      -0.1959
     88  CA        28.1550  -29.9080  -13.1410 C.3    86  TYR86       0.1771
     89  C         27.6310  -28.8180  -12.1740 C.2    86  TYR86       0.2619
     90  O         26.4490  -28.8230  -11.8170 O.2    86  TYR86      -0.2715
     91  CB        27.4220  -29.8750  -14.5070 C.3    86  TYR86       0.0574
     92  CG        27.4080  -28.5110  -15.1740 C.ar   86  TYR86      -0.0198
     93  CD1       28.5610  -27.7330  -15.2420 C.ar   86  TYR86      -0.0009
     94  CD2       26.2460  -28.0070  -15.7530 C.ar   86  TYR86      -0.0009
     95  CE1       28.5400  -26.4540  -15.7890 C.ar   86  TYR86       0.0417
     96  CE2       26.2210  -26.7350  -16.3280 C.ar   86  TYR86       0.0417
     97  CZ        27.3770  -25.9660  -16.3550 C.ar   86  TYR86       0.1957
     98  OH        27.4140  -24.7260  -16.9490 O.3    86  TYR86      -0.2866
     99  N         28.5240  -27.9090  -11.7380 N.am   87  ALA87      -0.1963
    100  CA        28.1890  -26.8110  -10.8360 C.3    87  ALA87       0.1728
    101  C         28.0890  -25.5080  -11.6180 C.2    87  ALA87       0.2616
    102  O         29.0750  -24.7690  -11.7800 O.2    87  ALA87      -0.2715
    103  CB        29.2200  -26.7060   -9.7310 C.3    87  ALA87       0.0334
    104  N         26.8550  -25.2200  -12.0750 N.am   88  LYS88      -0.1977
    105  CA        26.4460  -24.0970  -12.9230 C.3    88  LYS88       0.1596
    106  C         26.9240  -22.7460  -12.4950 C.2    88  LYS88       0.2287
    107  O         27.0820  -21.8860  -13.3680 O.2    88  LYS88      -0.2864
    108  CB        24.9110  -24.0420  -13.0850 C.3    88  LYS88       0.0298
    109  CG        24.2840  -25.2830  -13.7020 C.3    88  LYS88       0.0038
    110  CD        22.9240  -25.5900  -13.0840 C.3    88  LYS88       0.0206
    111  CE        22.5310  -27.0430  -13.2540 C.3    88  LYS88       0.1093
    112  NZ        21.3910  -27.4320  -12.3740 N.3    88  LYS88      -0.1314
    113  N         29.6870  -22.0520  -10.9270 N.3    90  GLY90      -0.1210
    114  CA        31.1360  -21.9780  -10.9770 C.3    90  GLY90       0.1956
    115  C         31.7950  -21.7060   -9.6490 C.2    90  GLY90       0.2611
    116  O         31.1710  -21.8720   -8.6020 O.2    90  GLY90      -0.2717
    117  N         33.0660  -21.3110   -9.7030 N.am   91  GLU91      -0.1979
    118  CA        33.9640  -21.0870   -8.5750 C.3    91  GLU91       0.1602
    119  C         33.4440  -20.0430   -7.6220 C.2    91  GLU91       0.2287
    120  O         32.8540  -19.0630   -8.0760 O.2    91  GLU91      -0.2864
    121  CB        35.3600  -20.6820   -9.0850 C.3    91  GLU91       0.0415
    122  CG        36.0560  -21.7340   -9.9520 C.3    91  GLU91       0.1163
    123  CD        37.3880  -21.3600  -10.5880 C.2    91  GLU91       0.3649
    124  OE1       38.0050  -20.3570  -10.1590 O.co2  91  GLU91      -0.2457
    125  OE2       37.8280  -22.0950  -11.5030 O.co2  91  GLU91      -0.2457
    126  N         38.7700  -21.6650   -5.6530 N.3   134  GLU134     -0.1231
    127  CA        38.7150  -22.0840   -7.0510 C.3   134  GLU134      0.1699
    128  C         38.1770  -23.5620   -7.1170 C.2   134  GLU134      0.2592
    129  O         37.7660  -24.0150   -8.1890 O.2   134  GLU134     -0.2718
    130  CB        40.1190  -22.0080   -7.6900 C.3   134  GLU134      0.0402
    131  CG        40.6760  -20.5990   -7.8620 C.3   134  GLU134      0.1161
    132  CD        41.1820  -19.8940   -6.6150 C.2   134  GLU134      0.3649
    133  OE1       40.3420  -19.3830   -5.8390 O.co2 134  GLU134     -0.2457
    134  OE2       42.4170  -19.7990   -6.4410 O.co2 134  GLU134     -0.2457
    135  N         38.2150  -24.2900   -5.9640 N.am  135  ASN135     -0.1974
    136  CA        37.7790  -25.6840   -5.7830 C.3   135  ASN135      0.1688
    137  C         36.3960  -25.7540   -5.1550 C.2   135  ASN135      0.2292
    138  O         35.7560  -26.8100   -5.1520 O.2   135  ASN135     -0.2864
    139  CB        38.7500  -26.3910   -4.8410 C.3   135  ASN135      0.1181
    140  CG        40.0600  -26.7630   -5.4640 C.2   135  ASN135      0.2629
    141  OD1       40.3440  -26.4850   -6.6330 O.2   135  ASN135     -0.2716
    142  ND2       40.8760  -27.4470   -4.7070 N.am  135  ASN135     -0.0877
    143  N         32.8550  -24.8030   -5.4940 N.3   137  LEU137     -0.1245
    144  CA        31.9490  -24.3270   -6.5670 C.3   137  LEU137      0.1561
    145  C         30.5750  -24.0420   -6.0430 C.2   137  LEU137      0.2260
    146  O         30.2780  -24.4660   -4.9370 O.2   137  LEU137     -0.2867
    147  CB        31.8180  -25.4040   -7.6490 C.3   137  LEU137      0.0270
    148  CG        33.0770  -25.9920   -8.2510 C.3   137  LEU137      0.0019
    149  CD1       32.7510  -27.3310   -8.8420 C.3   137  LEU137      0.0001
    150  CD2       33.6300  -25.0930   -9.3370 C.3   137  LEU137      0.0001
    151  N         35.3310  -29.7600   -5.1400 N.3   147  THR147     -0.1203
    152  CA        35.9380  -30.5770   -6.1810 C.3   147  THR147      0.1994
    153  C         37.4930  -30.6950   -6.0740 C.2   147  THR147      0.2618
    154  O         38.0470  -30.5120   -5.0020 O.2   147  THR147     -0.2717
    155  CB        35.4670  -29.9900   -7.5240 C.3   147  THR147      0.1784
    156  OG1       35.7730  -30.8890   -8.5900 O.3   147  THR147     -0.2211
    157  CG2       36.0120  -28.5990   -7.7810 C.3   147  THR147      0.0376
    158  N         38.1790  -31.0050   -7.1960 N.am  148  ASP148     -0.1959
    159  CA        39.6420  -31.1590   -7.3590 C.3   148  ASP148      0.1840
    160  C         40.2430  -32.1190   -6.3220 C.2   148  ASP148      0.2622
    161  O         40.9080  -31.6960   -5.3810 O.2   148  ASP148     -0.2715
    162  CB        40.3600  -29.7980   -7.3930 C.3   148  ASP148      0.1450
    163  CG        41.8710  -29.8470   -7.6450 C.2   148  ASP148      0.3671
    164  OD1       42.3510  -30.8460   -8.2500 O.co2 148  ASP148     -0.2456
    165  OD2       42.5700  -28.8720   -7.2630 O.co2 148  ASP148     -0.2456
    166  N         40.0050  -33.4020   -6.5020 N.am  149  PHE149     -0.1974
    167  CA        40.4820  -34.4130   -5.5530 C.3   149  PHE149      0.1639
    168  C         41.7090  -35.1270   -5.9880 C.2   149  PHE149      0.2290
    169  O         42.0540  -36.1570   -5.4060 O.2   149  PHE149     -0.2864
    170  CB        39.3690  -35.4020   -5.2320 C.3   149  PHE149      0.0560
    171  CG        38.4020  -34.8300   -4.2360 C.ar  149  PHE149     -0.0200
    172  CD1       37.3880  -33.9640   -4.6400 C.ar  149  PHE149     -0.0042
    173  CD2       38.5240  -35.1190   -2.8820 C.ar  149  PHE149     -0.0042
    174  CE1       36.4710  -33.4610   -3.7160 C.ar  149  PHE149     -0.0003
    175  CE2       37.6110  -34.6050   -1.9550 C.ar  149  PHE149     -0.0003
    176  CZ        36.5990  -33.7770   -2.3730 C.ar  149  PHE149     -0.0000
@<TRIPOS>BOND
     1    21    19   ar
     2    20    19   ar
     3    19    18    1
     4    18    17    1
     5     1     2    1
     6    17    14    1
     7    31    30    2
     8    30    29    1
     9    28    29    1
    10    24    25    2
    11    24    23    1
    12     8     6    1
    13     6     7    1
    14     6     5    1
    15     2     5    1
    16     2     3    1
    17    14    13    1
    18    14    15    1
    19    29    32    1
    20    42    43    2
    21    42    41    1
    22     9     3   am
    23     9    10    1
    24    12    11    2
    25    23    22    1
    26    23    26    1
    27    13    11   am
    28    11    10    1
    29    98    97    1
    30     3     4    2
    31    40    41    1
    32    41    44    1
    33    15    16    2
    34    97    96   ar
    35    97    95   ar
    36    96    94   ar
    37    37    36    1
    38    37    38    2
    39    36    35    1
    40    36    39    1
    41    32    33    1
    42    32    34    1
    43    26    27    1
    44    95    93   ar
    45    94    92   ar
    46    93    92   ar
    47    92    91    1
    48    44    45    1
    49    45    46    1
    50    91    88    1
    51   109   108    1
    52   109   110    1
    53    73    74    1
    54    76    75    2
    55   107   106    2
    56    46    47    1
    57   111   110    1
    58   111   112    1
    59    88    87    1
    60    88    89    1
    61   108   105    1
    62    47    48    1
    63   105   106    1
    64   105   104    1
    65    87    83   am
    66    75    74    1
    67    75    81   am
    68    74    77    1
    69    89    90    2
    70    89    99   am
    71    78    79    1
    72    78    77    1
    73    78    80    1
    74   104   101   am
    75   102   101    2
    76    99   100    1
    77    83    84    2
    78    83    82    1
    79   101   100    1
    80   125   123   ar
    81    81    82    1
    82    82    85    1
    83   114   113    1
    84   114   115    1
    85   100   103    1
    86    56    55   ar
    87   123   124   ar
    88   123   122    1
    89   122   121    1
    90   117   115   am
    91   117   118    1
    92    57    55   ar
    93    55    54    1
    94   115   116    2
    95    85    86    1
    96   150   148    1
    97   121   118    1
    98   149   148    1
    99   156   155    1
   100   118   119    1
   101    54    53    1
   102    71    70    1
   103    53    50    1
   104   148   147    1
   105   164   163   ar
   106    64    65    1
   107    64    63    1
   108   129   128    2
   109   120   119    2
   110   131   130    1
   111   131   132    1
   112   157   155    1
   113   130   127    1
   114   147   144    1
   115   163   162    1
   116   163   165   ar
   117    72    70    1
   118   155   152    1
   119   162   159    1
   120   159   158    1
   121   159   160    1
   122   158   153   am
   123    70    67    1
   124    51    50    1
   125    51    52    2
   126   128   127    1
   127   128   135   am
   128   127   126    1
   129    50    49    1
   130    63    62    1
   131   141   140    2
   132   132   134   ar
   133   132   133   ar
   134   144   145    1
   135   144   143    1
   136    62    59    1
   137   166   160   am
   138   166   167    1
   139   160   161    2
   140    68    67    1
   141    68    69    2
   142    67    66    1
   143   152   153    1
   144   152   151    1
   145   153   154    2
   146   145   146    2
   147   168   167    1
   148   168   169    2
   149   135   136    1
   150   136   137    1
   151   136   139    1
   152   167   170    1
   153   140   139    1
   154   140   142   am
   155   170   171    1
   156   137   138    2
   157    59    60    1
   158    59    58    1
   159    60    61    2
   160   172   171   ar
   161   172   174   ar
   162   171   173   ar
   163   174   176   ar
   164   173   175   ar
   165   176   175   ar
