@<TRIPOS>MOLECULE
tmp/5hkoA00.pdb
 140 132 0 0 0
SMALL
GASTEIGER

@<TRIPOS>ATOM
      1  N        -12.7040  -27.5610    7.2460 N.3     9  TYR9       -0.1241
      2  CA       -13.2130  -26.3840    7.8820 C.3     9  TYR9        0.1605
      3  C        -14.3650  -25.7550    7.0780 C.2     9  TYR9        0.2264
      4  O        -15.3320  -25.3030    7.6860 O.2     9  TYR9       -0.2867
      5  CB       -12.1230  -25.3990    8.1970 C.3     9  TYR9        0.0534
      6  CG       -11.4200  -24.8400    6.9950 C.ar    9  TYR9       -0.0201
      7  CD1      -11.7510  -23.5930    6.4740 C.ar    9  TYR9       -0.0009
      8  CD2      -10.4270  -25.5660    6.4000 C.ar    9  TYR9       -0.0009
      9  CE1      -11.0920  -23.1330    5.3180 C.ar    9  TYR9        0.0417
     10  CE2       -9.7770  -25.1210    5.2670 C.ar    9  TYR9        0.0417
     11  CZ       -10.0880  -23.8570    4.7640 C.ar    9  TYR9        0.1957
     12  OH        -9.3940  -23.3470    3.6740 O.3     9  TYR9       -0.2866
     13  N        -13.7330  -23.4360    1.1320 N.3    12  SER12      -0.1217
     14  CA       -12.9700  -22.2980    0.6350 C.3    12  SER12       0.1889
     15  C        -12.5650  -22.5340   -0.7910 C.2    12  SER12       0.2288
     16  O        -12.6280  -23.6320   -1.3260 O.2    12  SER12      -0.2866
     17  CB       -11.7670  -22.1280    1.5640 C.3    12  SER12       0.2089
     18  OG       -10.9110  -23.2530    1.3900 O.3    12  SER12      -0.2183
     19  N         -9.4810  -22.7120   -1.9040 N.3    14  PHE14      -0.1241
     20  CA        -8.4320  -23.7050   -1.8850 C.3    14  PHE14       0.1605
     21  C         -8.9910  -25.1160   -1.7850 C.2    14  PHE14       0.2264
     22  O         -8.5920  -26.0220   -2.4810 O.2    14  PHE14      -0.2867
     23  CB        -7.4780  -23.4060   -0.7130 C.3    14  PHE14       0.0534
     24  CG        -6.5360  -24.5290   -0.4110 C.ar   14  PHE14      -0.0203
     25  CD1       -5.3660  -24.7230   -1.2220 C.ar   14  PHE14      -0.0042
     26  CD2       -6.7540  -25.4280    0.5770 C.ar   14  PHE14      -0.0042
     27  CE1       -4.5620  -25.7840   -0.9920 C.ar   14  PHE14      -0.0003
     28  CE2       -5.9400  -26.4970    0.8020 C.ar   14  PHE14      -0.0003
     29  CZ        -4.8570  -26.6600   -0.0020 C.ar   14  PHE14      -0.0000
     30  N         -9.1630  -31.3980    7.9980 N.3    63  VAL63      -0.1231
     31  CA        -8.5680  -30.1220    7.7320 C.3    63  VAL63       0.1678
     32  C         -9.1130  -29.2100    8.7650 C.2    63  VAL63       0.2434
     33  O        -10.3150  -28.8290    8.6970 O.2    63  VAL63      -0.2733
     34  CB        -8.7600  -29.6110    6.3220 C.3    63  VAL63       0.0265
     35  CG1       -8.0320  -28.3040    6.1830 C.3    63  VAL63       0.0020
     36  CG2       -8.3220  -30.5790    5.2960 C.3    63  VAL63       0.0020
     37  N         -8.3970  -28.8790    9.8320 N.am   64  PRO64      -0.2718
     38  CA        -9.0070  -28.3690   11.0680 C.3    64  PRO64       0.1535
     39  C         -9.4860  -26.9160   10.9740 C.2    64  PRO64       0.2595
     40  O         -8.8930  -26.0960   10.2540 O.2    64  PRO64      -0.2716
     41  CB        -7.8980  -28.4870   12.0980 C.3    64  PRO64       0.0310
     42  CG        -6.6580  -28.6050   11.3820 C.3    64  PRO64       0.0237
     43  CD        -6.9640  -29.2070   10.0430 C.3    64  PRO64       0.0939
     44  N        -10.4670  -26.6360   11.7300 N.am   65  VAL65      -0.2031
     45  CA       -10.9000  -25.2320   12.0560 C.3    65  VAL65       0.1282
     46  C         -9.9530  -24.5670   12.9550 C.3    65  VAL65       0.2035
     47  O         -9.4760  -23.4040   12.6470 O.3    65  VAL65      -0.2185
     48  CB       -12.3230  -25.2710   12.6190 C.3    65  VAL65       0.0226
     49  CG1      -12.7970  -23.8450   12.9640 C.3    65  VAL65       0.0018
     50  CG2      -13.3170  -25.9190   11.6940 C.3    65  VAL65       0.0018
     51  N         -3.2590  -30.1060    5.7510 N.3    88  ASN88      -0.1225
     52  CA        -3.3970  -28.6650    5.3820 C.3    88  ASN88       0.1785
     53  C         -3.2990  -27.6740    6.5080 C.2    88  ASN88       0.2597
     54  O         -2.7200  -26.5940    6.2890 O.2    88  ASN88      -0.2718
     55  CB        -4.5830  -28.4760    4.4420 C.3    88  ASN88       0.1169
     56  CG        -4.8500  -27.0420    4.0810 C.2    88  ASN88       0.2627
     57  OD1       -3.9140  -26.4190    3.3900 O.2    88  ASN88      -0.2716
     58  ND2       -5.9190  -26.5050    4.4050 N.am   88  ASN88      -0.0877
     59  N         -3.7990  -27.9820    7.6970 N.am   89  ALA89      -0.1979
     60  CA        -3.4990  -27.2100    8.8550 C.3    89  ALA89       0.1597
     61  C         -3.3340  -28.1340   10.0560 C.2    89  ALA89       0.2287
     62  O         -3.7380  -29.3380    9.9730 O.2    89  ALA89      -0.2864
     63  CB        -4.5320  -26.1160    9.1110 C.3    89  ALA89       0.0319
     64  N          3.8940  -23.3090    6.4730 N.3   104  ASP104     -0.1239
     65  CA         3.2190  -21.9890    6.5360 C.3   104  ASP104      0.1674
     66  C          4.1390  -20.8880    7.0420 C.2   104  ASP104      0.2266
     67  O          3.9220  -19.7340    6.6740 O.2   104  ASP104     -0.2867
     68  CB         1.9490  -22.1120    7.3570 C.3   104  ASP104      0.1410
     69  CG         0.7280  -22.4950    6.5050 C.2   104  ASP104      0.3668
     70  OD1        0.6890  -22.2800    5.3350 O.co2 104  ASP104     -0.2456
     71  OD2       -0.2510  -23.0060    7.2060 O.co2 104  ASP104     -0.2456
     72  N         -8.3770  -17.3960    9.9530 N.3   131  PRO131     -0.2116
     73  CA        -9.1630  -17.5100   11.1950 C.3   131  PRO131      0.1372
     74  C         -8.1890  -17.6180   12.3830 C.2   131  PRO131      0.2244
     75  O         -7.2230  -18.3800   12.4230 O.2   131  PRO131     -0.2868
     76  CB        -9.8560  -18.8860   11.0140 C.3   131  PRO131      0.0268
     77  CG        -9.9800  -18.9960    9.5060 C.3   131  PRO131      0.0207
     78  CD        -8.7250  -18.3980    8.9580 C.3   131  PRO131      0.0892
     79  N         -2.7240  -21.8210   10.2440 N.3   136  GLY136     -0.1225
     80  CA        -2.3520  -20.9550    9.0950 C.3   136  GLY136      0.1811
     81  C         -2.0430  -19.5840    9.5430 C.2   136  GLY136      0.2280
     82  O         -0.9530  -19.0470    9.1450 O.2   136  GLY136     -0.2866
     83  N          1.8030  -18.4980    9.4110 N.3   140  ARG140     -0.1245
     84  CA         2.0820  -17.4320    8.4630 C.3   140  ARG140      0.1563
     85  C          2.4380  -16.1570    9.1630 C.2   140  ARG140      0.2260
     86  O          3.3270  -15.3960    8.6810 O.2   140  ARG140     -0.2867
     87  CB         0.9520  -17.2320    7.4620 C.3   140  ARG140      0.0307
     88  CG         0.7500  -18.4150    6.5350 C.3   140  ARG140      0.0489
     89  CD        -0.4670  -18.3930    5.6710 C.3   140  ARG140      0.2205
     90  NE        -0.5210  -19.6570    4.9180 N.pl3 140  ARG140     -0.0865
     91  CZ        -1.5820  -20.0980    4.2420 C.cat 140  ARG140      0.5346
     92  NH1       -2.5580  -19.3220    3.8960 N.pl3 140  ARG140      0.1354
     93  NH2       -1.6230  -21.4090    3.9550 N.pl3 140  ARG140      0.1354
     94  N        -10.2520  -16.0850    5.9570 N.3   164  TRP164     -0.1241
     95  CA       -10.0410  -16.6230    4.6380 C.3   164  TRP164      0.1605
     96  C        -11.0730  -16.1630    3.5880 C.2   164  TRP164      0.2264
     97  O        -10.9760  -16.6680    2.4610 O.2   164  TRP164     -0.2867
     98  CB        -9.9760  -18.1590    4.5760 C.3   164  TRP164      0.0550
     99  CG        -8.9380  -18.8470    5.4230 C.ar  164  TRP164      0.0003
    100  CD1       -9.1300  -20.0400    6.0570 C.ar  164  TRP164      0.0946
    101  CD2       -7.5590  -18.5390    5.5780 C.ar  164  TRP164      0.0152
    102  NE1       -7.9780  -20.4600    6.6340 N.ar  164  TRP164     -0.2442
    103  CE2       -6.9930  -19.5830    6.3550 C.ar  164  TRP164      0.0810
    104  CE3       -6.7050  -17.5070    5.1440 C.ar  164  TRP164      0.0012
    105  CZ2       -5.6380  -19.5690    6.7480 C.ar  164  TRP164      0.0191
    106  CZ3       -5.3840  -17.4980    5.5030 C.ar  164  TRP164      0.0001
    107  CH2       -4.8460  -18.5170    6.2960 C.ar  164  TRP164      0.0015
    108  N         -4.1880  -15.1390    2.5210 N.3   191  ASN191     -0.1240
    109  CA        -4.5480  -15.9690    1.3970 C.3   191  ASN191      0.1653
    110  C         -4.9510  -15.0780    0.2450 C.2   191  ASN191      0.2266
    111  O         -5.2060  -13.8670    0.3830 O.2   191  ASN191     -0.2867
    112  CB        -5.5070  -17.0820    1.6860 C.3   191  ASN191      0.1155
    113  CG        -6.9630  -16.6680    1.8120 C.2   191  ASN191      0.2627
    114  OD1       -7.2700  -15.4830    1.9120 O.2   191  ASN191     -0.2716
    115  ND2       -7.8950  -17.6200    1.8340 N.am  191  ASN191     -0.0877
    116  N         -7.7850  -15.2220   -1.4780 N.3   193  ASP193     -0.1239
    117  CA        -9.1740  -14.7320   -1.3750 C.3   193  ASP193      0.1674
    118  C         -9.2530  -13.3840   -0.6570 C.2   193  ASP193      0.2266
    119  O         -9.9180  -12.4570   -1.0790 O.2   193  ASP193     -0.2867
    120  CB       -10.0800  -15.7450   -0.6940 C.3   193  ASP193      0.1410
    121  CG       -10.3140  -17.0460   -1.3530 C.2   193  ASP193      0.3668
    122  OD1      -11.1050  -17.0040   -2.2710 O.co2 193  ASP193     -0.2456
    123  OD2       -9.7820  -18.0950   -0.9950 O.co2 193  ASP193     -0.2456
    124  N         -1.6430  -18.9350   -2.0720 N.3   216  ASP216     -0.1239
    125  CA        -2.3860  -20.1200   -2.5100 C.3   216  ASP216      0.1674
    126  C         -2.2460  -20.3240   -3.9980 C.2   216  ASP216      0.2266
    127  O         -2.1660  -21.4790   -4.4680 O.2   216  ASP216     -0.2867
    128  CB        -3.8810  -20.1690   -2.2000 C.3   216  ASP216      0.1410
    129  CG        -4.2730  -20.4440   -0.7570 C.2   216  ASP216      0.3668
    130  OD1       -3.5020  -21.1220   -0.0490 O.co2 216  ASP216     -0.2456
    131  OD2       -5.3790  -19.9870   -0.4090 O.co2 216  ASP216     -0.2456
    132  N         -0.0930  -23.0740   -3.4820 N.3   236  GLN236     -0.1245
    133  CA        -0.5490  -24.1810   -2.6490 C.3   236  GLN236      0.1566
    134  C         -1.5940  -24.8800   -3.4530 C.2   236  GLN236      0.2260
    135  O         -2.8020  -24.5320   -3.4260 O.2   236  GLN236     -0.2867
    136  CB        -1.0490  -23.6990   -1.2820 C.3   236  GLN236      0.0367
    137  CG        -1.1030  -24.8840   -0.3110 C.3   236  GLN236      0.0905
    138  CD        -1.7480  -24.6780    1.0040 C.2   236  GLN236      0.2608
    139  OE1       -2.4790  -23.5650    1.2200 O.2   236  GLN236     -0.2717
    140  NE2       -1.5820  -25.5110    1.9170 N.am  236  GLN236     -0.0878
@<TRIPOS>BOND
     1   127   126    2
     2   126   125    1
     3   132   133    1
     4   134   135    2
     5   134   133    1
     6   133   136    1
     7   125   128    1
     8   125   124    1
     9    22    21    2
    10   122   121   ar
    11   128   129    1
    12    19    20    1
    13    20    21    1
    14    20    23    1
    15   116   117    1
    16   117   120    1
    17   117   118    1
    18   121   123   ar
    19   121   120    1
    20    16    15    2
    21   136   137    1
    22    25    27   ar
    23    25    24   ar
    24   119   118    2
    25    27    29   ar
    26    15    14    1
    27   129   131   ar
    28   129   130   ar
    29    23    24    1
    30    24    26   ar
    31   137   138    1
    32    29    28   ar
    33   110   111    2
    34   110   109    1
    35    26    28   ar
    36    14    13    1
    37    14    17    1
    38   138   139    2
    39   138   140   am
    40    18    17    1
    41   109   112    1
    42   109   108    1
    43   112   113    1
    44   113   115   am
    45   113   114    2
    46    97    96    2
    47    57    56    2
    48    96    95    1
    49    12    11    1
    50    92    91    1
    51    93    91    1
    52    56    58   am
    53    56    55    1
    54    91    90    2
    55    55    52    1
    56    98    95    1
    57    98    99    1
    58    95    94    1
    59    11    10   ar
    60    11     9   ar
    61    90    89    1
    62   104   106   ar
    63   104   101   ar
    64    10     8   ar
    65    36    34    1
    66     9     7   ar
    67    70    69   ar
    68    52    51    1
    69    52    53    1
    70    99   101   ar
    71    99   100   ar
    72   106   107   ar
    73   101   103   ar
    74    89    88    1
    75   100   102   ar
    76    35    34    1
    77    54    53    2
    78   107   105   ar
    79    34    31    1
    80   103   102   ar
    81   103   105   ar
    82     8     6   ar
    83    64    65    1
    84     7     6   ar
    85    69    71   ar
    86    69    68    1
    87    53    59   am
    88    88    87    1
    89    65    66    1
    90    65    68    1
    91    67    66    2
    92     6     5    1
    93     3     4    2
    94     3     2    1
    95     1     2    1
    96    87    84    1
    97    59    60    1
    98    31    30    1
    99    31    32    1
   100     2     5    1
   101    84    85    1
   102    84    83    1
   103    86    85    2
   104    33    32    2
   105    32    37   am
   106    60    63    1
   107    60    61    1
   108    78    77    1
   109    78    72    1
   110    80    81    1
   111    80    79    1
   112    82    81    2
   113    77    76    1
   114    37    43    1
   115    37    38    1
   116    72    73    1
   117    62    61    2
   118    43    42    1
   119    40    39    2
   120    39    38    1
   121    39    44   am
   122    76    73    1
   123    38    41    1
   124    73    74    1
   125    42    41    1
   126    50    48    1
   127    44    45    1
   128    45    48    1
   129    45    46    1
   130    74    75    2
   131    48    49    1
   132    47    46    1
