@<TRIPOS>MOLECULE
tmp/5hkpA00.pdb
 219 212 0 0 0
SMALL
GASTEIGER

@<TRIPOS>ATOM
      1  N        -40.6440    8.4420  -18.7280 N.3    16  ARG16      -0.1245
      2  CA       -40.8350    8.8390  -17.3270 C.3    16  ARG16       0.1563
      3  C        -42.1540    8.3370  -16.7300 C.2    16  ARG16       0.2260
      4  O        -42.1680    7.8390  -15.6100 O.2    16  ARG16      -0.2867
      5  CB       -40.7690   10.3630  -17.2020 C.3    16  ARG16       0.0307
      6  CG       -40.8480   10.8820  -15.7790 C.3    16  ARG16       0.0489
      7  CD       -40.8510   12.4030  -15.7500 C.3    16  ARG16       0.2205
      8  NE       -40.8760   12.9170  -14.3730 N.pl3  16  ARG16      -0.0865
      9  CZ       -41.9750   13.1110  -13.6290 C.cat  16  ARG16       0.5346
     10  NH1      -43.1880   12.8360  -14.1040 N.pl3  16  ARG16       0.1354
     11  NH2      -41.8610   13.5800  -12.3870 N.pl3  16  ARG16       0.1354
     12  N        -31.4500   17.5000  -15.8840 N.3    40  ARG40      -0.1245
     13  CA       -30.2280   16.7030  -15.8370 C.3    40  ARG40       0.1563
     14  C        -29.7990   16.1290  -17.1880 C.2    40  ARG40       0.2260
     15  O        -28.8000   15.4090  -17.2630 O.2    40  ARG40      -0.2867
     16  CB       -30.3860   15.5700  -14.8220 C.3    40  ARG40       0.0307
     17  CG       -30.6140   16.0830  -13.4110 C.3    40  ARG40       0.0489
     18  CD       -30.2200   15.0720  -12.3710 C.3    40  ARG40       0.2205
     19  NE       -28.8790   14.5300  -12.5910 N.pl3  40  ARG40      -0.0865
     20  CZ       -27.8040   14.7710  -11.8340 C.cat  40  ARG40       0.5346
     21  NH1      -27.8650   15.5610  -10.7660 N.pl3  40  ARG40       0.1354
     22  NH2      -26.6430   14.1950  -12.1490 N.pl3  40  ARG40       0.1354
     23  N        -31.2500   13.8670  -19.0540 N.3    42  SER42      -0.1217
     24  CA       -31.4120   12.4320  -18.9880 C.3    42  SER42       0.1889
     25  C        -31.8040   11.8660  -20.3430 C.2    42  SER42       0.2288
     26  O        -32.5050   12.5210  -21.1110 O.2    42  SER42      -0.2866
     27  CB       -32.4970   12.0630  -17.9680 C.3    42  SER42       0.2089
     28  OG       -32.0440   12.2490  -16.6430 O.3    42  SER42      -0.2183
     29  N        -32.3730    6.5620  -18.5040 N.3    46  HIS46      -0.1226
     30  CA       -32.1680    7.1860  -17.2010 C.3    46  HIS46       0.1752
     31  C        -33.4900    7.3820  -16.4850 C.2    46  HIS46       0.2595
     32  O        -33.6330    7.0530  -15.3180 O.2    46  HIS46      -0.2718
     33  CB       -31.5270    8.5710  -17.3470 C.3    46  HIS46       0.0759
     34  CG       -30.0660    8.5490  -17.6490 C.ar   46  HIS46       0.0818
     35  ND1      -29.1080    8.5460  -16.6590 N.ar   46  HIS46      -0.2268
     36  CD2      -29.3950    8.5780  -18.8200 C.ar   46  HIS46       0.1154
     37  CE1      -27.9090    8.5290  -17.2120 C.ar   46  HIS46       0.1986
     38  NE2      -28.0580    8.5660  -18.5220 N.ar   46  HIS46      -0.2212
     39  N        -34.4450    7.9390  -17.2070 N.am   47  LEU47      -0.1980
     40  CA       -35.7560    8.2720  -16.6670 C.3    47  LEU47       0.1596
     41  C        -36.5640    7.0200  -16.3360 C.2    47  LEU47       0.2287
     42  O        -37.1820    6.9200  -15.2580 O.2    47  LEU47      -0.2864
     43  CB       -36.5180    9.1500  -17.6600 C.3    47  LEU47       0.0297
     44  CG       -35.9490   10.5570  -17.8770 C.3    47  LEU47       0.0022
     45  CD1      -36.7720   11.3070  -18.8990 C.3    47  LEU47       0.0001
     46  CD2      -35.9240   11.3350  -16.5650 C.3    47  LEU47       0.0001
     47  N        -34.9200    5.5280  -13.2140 N.3    50  GLY50      -0.1210
     48  CA       -35.1980    6.3030  -12.0130 C.3    50  GLY50       0.1956
     49  C        -36.6410    6.1920  -11.5250 C.2    50  GLY50       0.2612
     50  O        -36.8870    6.0900  -10.3270 O.2    50  GLY50      -0.2717
     51  N        -37.5790    6.1930  -12.4650 N.am   51  TYR51      -0.1962
     52  CA       -39.0050    6.0800  -12.1720 C.3    51  TYR51       0.1771
     53  C        -39.5260    4.6370  -12.1890 C.2    51  TYR51       0.2620
     54  O        -40.7360    4.4110  -12.2340 O.2    51  TYR51      -0.2715
     55  CB       -39.7990    6.9670  -13.1270 C.3    51  TYR51       0.0574
     56  CG       -39.5440    8.4370  -12.8830 C.ar   51  TYR51      -0.0198
     57  CD1      -38.5080    9.1050  -13.5250 C.ar   51  TYR51      -0.0009
     58  CD2      -40.3340    9.1560  -11.9950 C.ar   51  TYR51      -0.0009
     59  CE1      -38.2600   10.4390  -13.2950 C.ar   51  TYR51       0.0417
     60  CE2      -40.1040   10.4980  -11.7660 C.ar   51  TYR51       0.0417
     61  CZ       -39.0640   11.1270  -12.4130 C.ar   51  TYR51       0.1957
     62  OH       -38.8370   12.4540  -12.1840 O.3    51  TYR51      -0.2866
     63  N        -38.6150    3.6680  -12.1270 N.am   52  ASN52      -0.1958
     64  CA       -38.9900    2.2680  -11.9750 C.3    52  ASN52       0.1819
     65  C        -39.9430    1.7450  -13.0640 C.2    52  ASN52       0.2621
     66  O        -40.8350    0.9540  -12.7940 O.2    52  ASN52      -0.2715
     67  CB       -39.6110    2.0520  -10.5800 C.3    52  ASN52       0.1195
     68  CG       -39.7010    0.5900  -10.2000 C.2    52  ASN52       0.2630
     69  OD1      -38.9890   -0.2480  -10.7300 O.2    52  ASN52      -0.2716
     70  ND2      -40.5950    0.2800   -9.2890 N.am   52  ASN52      -0.0877
     71  N        -39.7420    2.1550  -14.3020 N.am   53  ARG53      -0.1977
     72  CA       -40.5920    1.6690  -15.3810 C.3    53  ARG53       0.1597
     73  C        -39.9740    0.4270  -15.9910 C.2    53  ARG53       0.2287
     74  O        -39.3290    0.4920  -17.0220 O.2    53  ARG53      -0.2864
     75  CB       -40.7580    2.7510  -16.4340 C.3    53  ARG53       0.0334
     76  CG       -41.1510    4.0940  -15.8540 C.3    53  ARG53       0.0492
     77  CD       -42.3980    4.0100  -14.9900 C.3    53  ARG53       0.2205
     78  NE       -42.8660    5.3460  -14.6370 N.pl3  53  ARG53      -0.0865
     79  CZ       -43.7860    5.6040  -13.7090 C.cat  53  ARG53       0.5346
     80  NH1      -44.3680    4.6220  -13.0340 N.pl3  53  ARG53       0.1354
     81  NH2      -44.1260    6.8570  -13.4520 N.pl3  53  ARG53       0.1354
     82  N        -25.8990   11.2500  -18.0290 N.3    71  ASP71      -0.1239
     83  CA       -26.6590   12.4660  -17.8530 C.3    71  ASP71       0.1674
     84  C        -25.6460   13.5710  -17.5720 C.2    71  ASP71       0.2266
     85  O        -24.4590   13.3050  -17.4850 O.2    71  ASP71      -0.2867
     86  CB       -27.7610   12.3060  -16.7670 C.3    71  ASP71       0.1410
     87  CG       -27.2600   12.5100  -15.3230 C.2    71  ASP71       0.3668
     88  OD1      -26.0550   12.7420  -15.0980 O.co2  71  ASP71      -0.2456
     89  OD2      -28.1050   12.4330  -14.3960 O.co2  71  ASP71      -0.2456
     90  N        -23.9800   10.5780  -14.3180 N.3    75  LEU75      -0.1245
     91  CA       -24.6920    9.3870  -13.8880 C.3    75  LEU75       0.1561
     92  C        -25.0160    8.5500  -15.1200 C.2    75  LEU75       0.2260
     93  O        -25.3380    9.1020  -16.1660 O.2    75  LEU75      -0.2867
     94  CB       -25.9930    9.7620  -13.1750 C.3    75  LEU75       0.0270
     95  CG       -25.9190   10.6180  -11.8960 C.3    75  LEU75       0.0019
     96  CD1      -27.3130   10.8870  -11.3440 C.3    75  LEU75       0.0001
     97  CD2      -25.0630    9.9820  -10.8120 C.3    75  LEU75       0.0001
     98  N        -26.9990    4.2280  -11.8100 N.3    79  HIS79      -0.1226
     99  CA       -27.0810    5.1670  -10.6810 C.3    79  HIS79       0.1752
    100  C        -28.5220    5.4770  -10.3160 C.2    79  HIS79       0.2596
    101  O        -28.8900    5.4080   -9.1410 O.2    79  HIS79      -0.2718
    102  CB       -26.3890    6.5050  -10.9710 C.3    79  HIS79       0.0759
    103  CG       -24.8940    6.4290  -10.9670 C.ar   79  HIS79       0.0818
    104  ND1      -24.1660    6.1910  -12.1090 N.ar   79  HIS79      -0.2268
    105  CD2      -23.9930    6.5630   -9.9660 C.ar   79  HIS79       0.1154
    106  CE1      -22.8770    6.1650  -11.8140 C.ar   79  HIS79       0.1986
    107  NE2      -22.7450    6.3800  -10.5160 N.ar   79  HIS79      -0.2212
    108  N        -29.3270    5.8160  -11.3210 N.am   80  ASN80      -0.1974
    109  CA       -30.7000    6.2540  -11.0810 C.3    80  ASN80       0.1688
    110  C        -31.4870    5.1220  -10.3920 C.2    80  ASN80       0.2292
    111  O        -32.1750    5.3450   -9.3770 O.2    80  ASN80      -0.2864
    112  CB       -31.4240    6.7000  -12.3790 C.3    80  ASN80       0.1181
    113  CG       -30.7720    7.9010  -13.0700 C.2    80  ASN80       0.2629
    114  OD1      -31.4030    8.9560  -13.2570 O.2    80  ASN80      -0.2716
    115  ND2      -29.5200    7.7330  -13.5000 N.am   80  ASN80      -0.0877
    116  N        -30.0660    4.5480   -6.7570 N.3    83  SER83      -0.1202
    117  CA       -30.4090    5.6110   -5.8390 C.3    83  SER83       0.2020
    118  C        -31.8450    5.4920   -5.3100 C.2    83  SER83       0.2619
    119  O        -32.0730    5.7040   -4.1290 O.2    83  SER83      -0.2717
    120  CB       -30.1850    6.9830   -6.4650 C.3    83  SER83       0.2103
    121  OG       -30.2450    7.9790   -5.4570 O.3    83  SER83      -0.2182
    122  N        -32.7940    5.1270   -6.1690 N.am   84  TYR84      -0.1961
    123  CA       -34.1950    4.9960   -5.7490 C.3    84  TYR84       0.1771
    124  C        -34.6600    3.5510   -5.4680 C.2    84  TYR84       0.2620
    125  O        -35.8490    3.2720   -5.3970 O.2    84  TYR84      -0.2715
    126  CB       -35.1030    5.7190   -6.7610 C.3    84  TYR84       0.0574
    127  CG       -34.7330    7.1840   -6.8620 C.ar   84  TYR84      -0.0198
    128  CD1      -34.9970    8.0690   -5.8100 C.ar   84  TYR84      -0.0009
    129  CD2      -34.0860    7.6800   -7.9820 C.ar   84  TYR84      -0.0009
    130  CE1      -34.6380    9.4030   -5.8900 C.ar   84  TYR84       0.0417
    131  CE2      -33.7220    9.0110   -8.0700 C.ar   84  TYR84       0.0417
    132  CZ       -33.9970    9.8650   -7.0310 C.ar   84  TYR84       0.1957
    133  OH       -33.6200   11.1790   -7.1490 O.3    84  TYR84      -0.2866
    134  N        -33.7110    2.6460   -5.3020 N.am   85  GLY85      -0.1940
    135  CA       -33.9990    1.2980   -4.8500 C.3    85  GLY85       0.2014
    136  C        -34.8190    0.4300   -5.7750 C.2    85  GLY85       0.2638
    137  O        -35.5930   -0.3990   -5.3050 O.2    85  GLY85      -0.2714
    138  N        -34.6310    0.5670   -7.0860 N.am   86  HIS86      -0.1973
    139  CA       -35.4050   -0.2400   -8.0280 C.3    86  HIS86       0.1656
    140  C        -34.6360   -1.4930   -8.3940 C.2    86  HIS86       0.2291
    141  O        -33.7880   -1.5010   -9.2920 O.2    86  HIS86      -0.2864
    142  CB       -35.8180    0.5960   -9.2290 C.3    86  HIS86       0.0771
    143  CG       -36.5360    1.8530   -8.8420 C.ar   86  HIS86       0.0820
    144  ND1      -37.4970    1.8840   -7.8560 N.ar   86  HIS86      -0.2267
    145  CD2      -36.4000    3.1290   -9.2700 C.ar   86  HIS86       0.1154
    146  CE1      -37.9320    3.1230   -7.7030 C.ar   86  HIS86       0.1986
    147  NE2      -37.2880    3.8960   -8.5590 N.ar   86  HIS86      -0.2212
    148  N        -19.7130    8.7810  -11.5370 N.3   104  ASP104     -0.1239
    149  CA       -20.1720   10.0570  -12.0620 C.3   104  ASP104      0.1674
    150  C        -19.0320   11.0570  -11.9260 C.2   104  ASP104      0.2266
    151  O        -17.9220   10.6740  -11.5620 O.2   104  ASP104     -0.2867
    152  CB       -21.4680   10.5040  -11.3710 C.3   104  ASP104      0.1410
    153  CG       -21.2510   11.0740   -9.9760 C.2   104  ASP104      0.3668
    154  OD1      -20.1450   10.9500   -9.4120 O.co2 104  ASP104     -0.2456
    155  OD2      -22.2090   11.6750   -9.4500 O.co2 104  ASP104     -0.2456
    156  N        -18.4300   13.1330   -9.7100 N.3   106  TRP106     -0.1241
    157  CA       -17.9860   13.2250   -8.3180 C.3   106  TRP106      0.1605
    158  C        -17.4150   11.8970   -7.7830 C.2   106  TRP106      0.2264
    159  O        -17.1890   11.7610   -6.5780 O.2   106  TRP106     -0.2867
    160  CB       -19.1510   13.6810   -7.4300 C.3   106  TRP106      0.0550
    161  CG       -19.4740   15.1410   -7.5120 C.ar  106  TRP106      0.0003
    162  CD1      -19.1320   16.1030   -6.6060 C.ar  106  TRP106      0.0946
    163  CD2      -20.2230   15.8020   -8.5360 C.ar  106  TRP106      0.0152
    164  NE1      -19.6150   17.3190   -7.0020 N.ar  106  TRP106     -0.2442
    165  CE2      -20.2900   17.1680   -8.1840 C.ar  106  TRP106      0.0810
    166  CE3      -20.8450   15.3770   -9.7170 C.ar  106  TRP106      0.0012
    167  CZ2      -20.9510   18.1160   -8.9720 C.ar  106  TRP106      0.0191
    168  CZ3      -21.5070   16.3260  -10.5040 C.ar  106  TRP106      0.0001
    169  CH2      -21.5550   17.6770  -10.1220 C.ar  106  TRP106      0.0015
    170  N        -18.8850    9.0760   -7.5890 N.3   108  PHE108     -0.1241
    171  CA       -19.8920    8.2650   -6.9290 C.3   108  PHE108      0.1605
    172  C        -20.2080    7.1010   -7.8450 C.2   108  PHE108      0.2264
    173  O        -20.4620    7.2890   -9.0380 O.2   108  PHE108     -0.2867
    174  CB       -21.1780    9.0460   -6.6710 C.3   108  PHE108      0.0534
    175  CG       -21.1430    9.9050   -5.4490 C.ar  108  PHE108     -0.0203
    176  CD1      -20.2930   10.9990   -5.3730 C.ar  108  PHE108     -0.0042
    177  CD2      -22.0060    9.6550   -4.3870 C.ar  108  PHE108     -0.0042
    178  CE1      -20.2830   11.8140   -4.2460 C.ar  108  PHE108     -0.0003
    179  CE2      -21.9970   10.4600   -3.2580 C.ar  108  PHE108     -0.0003
    180  CZ       -21.1390   11.5460   -3.1900 C.ar  108  PHE108     -0.0000
    181  N        -24.5340    5.1510   -4.1090 N.3   113  GLU113     -0.1245
    182  CA       -25.9320    5.5260   -4.1220 C.3   113  GLU113      0.1567
    183  C        -26.7670    4.6190   -3.2270 C.2   113  GLU113      0.2260
    184  O        -27.4480    5.0920   -2.3230 O.2   113  GLU113     -0.2867
    185  CB       -26.5030    5.5010   -5.5460 C.3   113  GLU113      0.0388
    186  CG       -25.9590    6.5900   -6.4530 C.3   113  GLU113      0.1160
    187  CD       -26.4960    7.9700   -6.1390 C.2   113  GLU113      0.3649
    188  OE1      -27.3910    8.1220   -5.2590 O.co2 113  GLU113     -0.2457
    189  OE2      -26.0250    8.9170   -6.8000 O.co2 113  GLU113     -0.2457
    190  N        -28.2850    5.3790    0.7970 N.3   117  LYS117     -0.1245
    191  CA       -29.7330    5.3840    1.0260 C.3   117  LYS117      0.1561
    192  C        -30.2820    4.0820    1.6280 C.2   117  LYS117      0.2260
    193  O        -31.4900    3.8480    1.5980 O.2   117  LYS117     -0.2867
    194  CB       -30.4530    5.6970   -0.2760 C.3   117  LYS117      0.0271
    195  CG       -30.0350    7.0310   -0.8740 C.3   117  LYS117      0.0035
    196  CD       -31.2300    7.8080   -1.4130 C.3   117  LYS117      0.0206
    197  CE       -30.7930    8.9580   -2.3090 C.3   117  LYS117      0.1093
    198  NZ       -31.6910    9.1220   -3.4930 N.3   117  LYS117     -0.1314
    199  N        -30.2840    0.9500    0.7800 N.3   119  ARG119     -0.1245
    200  CA       -30.9260   -0.0180   -0.1170 C.3   119  ARG119      0.1563
    201  C        -30.2170   -1.3490    0.0360 C.2   119  ARG119      0.2260
    202  O        -29.3740   -1.7070   -0.7900 O.2   119  ARG119     -0.2867
    203  CB       -30.8120    0.4070   -1.5760 C.3   119  ARG119      0.0307
    204  CG       -31.1120    1.8590   -1.8580 C.3   119  ARG119      0.0489
    205  CD       -32.5640    2.1720   -1.5890 C.3   119  ARG119      0.2205
    206  NE       -32.8800    3.5230   -2.0440 N.pl3 119  ARG119     -0.0865
    207  CZ       -34.0480    4.1170   -1.8720 C.cat 119  ARG119      0.5346
    208  NH1      -35.0370    3.4790   -1.2600 N.pl3 119  ARG119      0.1354
    209  NH2      -34.2180    5.3510   -2.3200 N.pl3 119  ARG119      0.1354
    210  N        -14.9290   13.0110   -2.0930 N.3   139  HIS139     -0.1241
    211  CA       -14.7890   13.3710   -0.6810 C.3   139  HIS139      0.1621
    212  C        -14.0210   12.3280    0.1310 C.2   139  HIS139      0.2264
    213  O        -14.0770   12.3530    1.3580 O.2   139  HIS139     -0.2867
    214  CB       -16.1630   13.5730   -0.0360 C.3   139  HIS139      0.0745
    215  CG       -17.0800   14.4540   -0.8190 C.ar  139  HIS139      0.0817
    216  ND1      -16.8950   15.8150   -0.9260 N.ar  139  HIS139     -0.2268
    217  CD2      -18.1990   14.1690   -1.5240 C.ar  139  HIS139      0.1154
    218  CE1      -17.8580   16.3310   -1.6690 C.ar  139  HIS139      0.1986
    219  NE2      -18.6620   15.3530   -2.0450 N.ar  139  HIS139     -0.2212
@<TRIPOS>BOND
     1    26    25    2
     2    25    24    1
     3    23    24    1
     4    24    27    1
     5    45    44    1
     6    36    38   ar
     7    36    34   ar
     8     1     2    1
     9    38    37   ar
    10    29    30    1
    11    82    83    1
    12    27    28    1
    13    44    43    1
    14    44    46    1
    15    83    84    1
    16    83    86    1
    17    43    40    1
    18    34    33    1
    19    34    35   ar
    20    84    85    2
    21    33    30    1
    22     2     5    1
    23     2     3    1
    24    15    14    2
    25    37    35   ar
    26    39    40    1
    27    39    31   am
    28     5     6    1
    29    30    31    1
    30    14    13    1
    31    74    73    2
    32    86    87    1
    33     3     4    2
    34    40    41    1
    35    31    32    2
    36    75    76    1
    37    75    72    1
    38    41    42    2
    39    93    92    2
    40    73    72    1
    41    12    13    1
    42    76    77    1
    43    13    16    1
    44     6     7    1
    45     7     8    1
    46    72    71    1
    47    87    88   ar
    48    87    89   ar
    49    92    91    1
    50    77    78    1
    51    16    17    1
    52    78    79    2
    53     8     9    2
    54    90    91    1
    55    71    65   am
    56    10     9    1
    57    91    94    1
    58    79    81    1
    59    79    80    1
    60     9    11    1
    61    57    59   ar
    62    57    56   ar
    63   115   113   am
    64    17    18    1
    65    59    61   ar
    66   114   113    2
    67    47    48    1
    68    94    95    1
    69    55    56    1
    70    55    52    1
    71   113   112    1
    72    65    66    2
    73    65    64    1
    74    56    58   ar
    75    19    18    1
    76    19    20    2
    77    51    52    1
    78    51    49   am
    79    61    62    1
    80    61    60   ar
    81   112   109    1
    82    54    53    2
    83    53    52    1
    84    53    63   am
    85    22    20    1
    86    63    64    1
    87   104   106   ar
    88   104   103   ar
    89   149   150    1
    90   149   148    1
    91   149   152    1
    92    48    49    1
    93    58    60   ar
    94    64    67    1
    95   150   151    2
    96    95    96    1
    97    95    97    1
    98    20    21    1
    99   106   107   ar
   100    98    99    1
   101    49    50    2
   102   152   153    1
   103   108   109    1
   104   108   100   am
   105   109   110    1
   106   102   103    1
   107   102    99    1
   108   103   105   ar
   109    69    68    2
   110    99   100    1
   111    67    68    1
   112   107   105   ar
   113   168   169   ar
   114   168   166   ar
   115   110   111    2
   116   100   101    2
   117    68    70   am
   118   169   167   ar
   119   153   155   ar
   120   153   154   ar
   121   166   163   ar
   122   156   157    1
   123   141   140    2
   124   145   143   ar
   125   145   147   ar
   126   142   143    1
   127   142   139    1
   128   173   172    2
   129   167   165   ar
   130   143   144   ar
   131   147   146   ar
   132   163   165   ar
   133   163   161   ar
   134   140   139    1
   135   157   158    1
   136   157   160    1
   137   165   164   ar
   138   131   129   ar
   139   131   132   ar
   140   139   138    1
   141   129   127   ar
   142   144   146   ar
   143   172   171    1
   144   158   159    2
   145   170   171    1
   146   161   160    1
   147   161   162   ar
   148   133   132    1
   149   138   136   am
   150   132   130   ar
   151   164   162   ar
   152   171   174    1
   153   127   126    1
   154   127   128   ar
   155   189   187   ar
   156   126   123    1
   157   116   117    1
   158   174   175    1
   159   120   117    1
   160   120   121    1
   161   186   187    1
   162   186   185    1
   163   122   123    1
   164   122   118   am
   165   187   188   ar
   166   130   128   ar
   167   117   118    1
   168   136   137    2
   169   136   135    1
   170   123   124    1
   171   185   182    1
   172   124   125    2
   173   124   134   am
   174   175   176   ar
   175   175   177   ar
   176   176   178   ar
   177   118   119    2
   178   134   135    1
   179   177   179   ar
   180   178   180   ar
   181   182   181    1
   182   182   183    1
   183   198   197    1
   184   179   180   ar
   185   183   184    2
   186   209   207    1
   187   197   196    1
   188   210   211    1
   189   219   218   ar
   190   219   217   ar
   191   206   207    2
   192   206   205    1
   193   207   208    1
   194   204   205    1
   195   204   203    1
   196   218   216   ar
   197   203   200    1
   198   217   215   ar
   199   196   195    1
   200   216   215   ar
   201   195   194    1
   202   215   214    1
   203   202   201    2
   204   211   214    1
   205   211   212    1
   206   194   191    1
   207   200   201    1
   208   200   199    1
   209   212   213    2
   210   190   191    1
   211   191   192    1
   212   193   192    2
