@<TRIPOS>MOLECULE
tmp/5hl9A00.pdb
 155 146 0 0 0
SMALL
GASTEIGER

@<TRIPOS>ATOM
      1  N          1.7300   24.2850  -58.4560 N.3   407  GLY407     -0.1210
      2  CA         2.6930   23.5130  -59.2290 C.3   407  GLY407      0.1956
      3  C          2.3620   23.4890  -60.7040 C.2   407  GLY407      0.2612
      4  O          1.9710   24.5140  -61.2630 O.2   407  GLY407     -0.2717
      5  N          2.4610   22.3190  -61.3250 N.am  408  SER408     -0.1952
      6  CA         2.1370   22.1730  -62.7410 C.3   408  SER408      0.1924
      7  C          0.6800   22.5180  -63.0660 C.2   408  SER408      0.2314
      8  O          0.3600   22.8640  -64.2030 O.2   408  SER408     -0.2863
      9  CB         2.4560   20.7540  -63.2170 C.3   408  SER408      0.2116
     10  OG         3.7860   20.3930  -62.8890 O.3   408  SER408     -0.2180
     11  N          0.1320   25.0150  -65.5250 N.3   411  LYS411     -0.1245
     12  CA         0.4390   24.7980  -66.9410 C.3   411  LYS411      0.1561
     13  C         -0.7050   24.9900  -67.9380 C.2   411  LYS411      0.2260
     14  O         -0.4520   25.6350  -68.9580 O.2   411  LYS411     -0.2867
     15  CB         1.1590   23.4580  -67.1660 C.3   411  LYS411      0.0271
     16  CG         2.6060   23.4710  -66.7230 C.3   411  LYS411      0.0035
     17  CD         3.3730   22.2800  -67.2780 C.3   411  LYS411      0.0206
     18  CE         4.8390   22.2840  -66.8800 C.3   411  LYS411      0.1093
     19  NZ         5.0420   22.0950  -65.4180 N.3   411  LYS411     -0.1314
     20  N         14.4630   23.3610  -65.1390 N.3   449  GLN449     -0.1245
     21  CA        14.7280   22.0570  -65.7370 C.3   449  GLN449      0.1566
     22  C         13.4610   21.1870  -65.8110 C.2   449  GLN449      0.2260
     23  O         12.5230   21.3470  -65.0200 O.2   449  GLN449     -0.2867
     24  CB        15.8240   21.3070  -64.9480 C.3   449  GLN449      0.0367
     25  CG        17.1720   22.0220  -64.8340 C.3   449  GLN449      0.0905
     26  CD        18.1640   21.6300  -65.9030 C.2   449  GLN449      0.2608
     27  OE1       18.2200   20.4830  -66.3630 O.2   449  GLN449     -0.2717
     28  NE2       19.0170   22.5710  -66.2780 N.am  449  GLN449     -0.0878
     29  N         11.5910   17.4810  -65.4170 N.3   451  ASP451     -0.1239
     30  CA        11.6100   16.4840  -64.3430 C.3   451  ASP451      0.1674
     31  C         12.8370   15.5540  -64.3540 C.2   451  ASP451      0.2266
     32  O         13.4300   15.3100  -63.2930 O.2   451  ASP451     -0.2867
     33  CB        10.3150   15.6580  -64.3710 C.3   451  ASP451      0.1410
     34  CG        10.0790   14.8860  -65.6600 C.2   451  ASP451      0.3668
     35  OD1       10.1120   15.5170  -66.7510 O.co2 451  ASP451     -0.2456
     36  OD2        9.8460   13.6640  -65.5830 O.co2 451  ASP451     -0.2456
     37  N          3.0060   15.7900  -71.2990 N.3   469  ARG469     -0.1231
     38  CA         4.1580   15.3750  -70.4840 C.3   469  ARG469      0.1694
     39  C          4.5350   16.2960  -69.3110 C.2   469  ARG469      0.2592
     40  O          5.3630   15.9020  -68.4840 O.2   469  ARG469     -0.2718
     41  CB         5.3780   15.1110  -71.3830 C.3   469  ARG469      0.0321
     42  CG         5.1910   13.9640  -72.3660 C.3   469  ARG469      0.0489
     43  CD         6.1700   14.0600  -73.5030 C.3   469  ARG469      0.2205
     44  NE         7.4320   13.4000  -73.1700 N.pl3 469  ARG469     -0.0865
     45  CZ         8.5960   13.6570  -73.7590 C.cat 469  ARG469      0.5346
     46  NH1        8.6760   14.5700  -74.7200 N.pl3 469  ARG469      0.1354
     47  NH2        9.6900   13.0030  -73.3910 N.pl3 469  ARG469      0.1354
     48  N          3.9050   17.4870  -69.2130 N.am  470  SER470     -0.1952
     49  CA         4.1280   18.5150  -68.1780 C.3   470  SER470      0.1924
     50  C          5.5850   18.8980  -68.1270 C.2   470  SER470      0.2314
     51  O          6.2400   18.7720  -67.0780 O.2   470  SER470     -0.2863
     52  CB         3.6370   18.0570  -66.8080 C.3   470  SER470      0.2116
     53  OG         3.7620   19.1320  -65.8890 O.3   470  SER470     -0.2180
     54  N          8.5830   21.3730  -68.1730 N.3   472  ASN472     -0.1240
     55  CA         8.8750   22.7090  -67.6520 C.3   472  ASN472      0.1653
     56  C          9.5240   23.6580  -68.6480 C.2   472  ASN472      0.2266
     57  O          8.9770   24.7450  -68.8970 O.2   472  ASN472     -0.2867
     58  CB         9.6650   22.6400  -66.3530 C.3   472  ASN472      0.1155
     59  CG         8.9040   22.0710  -65.1840 C.2   472  ASN472      0.2627
     60  OD1        7.7270   21.7390  -65.2760 O.2   472  ASN472     -0.2716
     61  ND2        9.5660   21.9700  -64.0480 N.am  472  ASN472     -0.0877
     62  N          5.2990   28.1400  -63.8830 N.3   509  LEU509     -0.1245
     63  CA         5.5360   26.7750  -63.3900 C.3   509  LEU509      0.1561
     64  C          4.8910   26.4270  -62.0510 C.2   509  LEU509      0.2260
     65  O          5.0870   25.3130  -61.5540 O.2   509  LEU509     -0.2867
     66  CB         7.0530   26.4920  -63.3240 C.3   509  LEU509      0.0270
     67  CG         7.8410   26.5060  -64.6220 C.3   509  LEU509      0.0019
     68  CD1        9.2960   26.1890  -64.3520 C.3   509  LEU509      0.0001
     69  CD2        7.2740   25.5360  -65.6460 C.3   509  LEU509      0.0001
     70  N          1.3880   12.0980  -67.9900 N.3   580  THR580     -0.1218
     71  CA         1.6330   11.9630  -66.5460 C.3   580  THR580      0.1862
     72  C          0.5280   11.2380  -65.7630 C.2   580  THR580      0.2287
     73  O          0.8300   10.5430  -64.7860 O.2   580  THR580     -0.2866
     74  CB         2.0370   13.2970  -65.9190 C.3   580  THR580      0.1770
     75  OG1        1.0030   14.2480  -66.1500 O.3   580  THR580     -0.2211
     76  CG2        3.3630   13.8290  -66.4490 C.3   580  THR580      0.0375
     77  N         -4.9650   17.0040  -65.0760 N.3   596  LYS596     -0.1231
     78  CA        -3.6020   17.5380  -64.9730 C.3   596  LYS596      0.1693
     79  C         -3.0240   17.2290  -63.5750 C.2   596  LYS596      0.2593
     80  O         -3.7250   17.3410  -62.5700 O.2   596  LYS596     -0.2718
     81  CB        -3.5640   19.0500  -65.3180 C.3   596  LYS596      0.0285
     82  CG        -2.1630   19.6900  -65.3010 C.3   596  LYS596      0.0035
     83  CD        -1.3460   19.3710  -66.5430 C.3   596  LYS596      0.0206
     84  CE         0.1380   19.4880  -66.3150 C.3   596  LYS596      0.1093
     85  NZ         0.6720   18.3380  -65.5390 N.3   596  LYS596     -0.1314
     86  N         -1.7880   16.7570  -63.5380 N.am  597  THR597     -0.1939
     87  CA        -1.1080   16.4090  -62.2990 C.3   597  THR597      0.2028
     88  C         -0.1880   17.5440  -61.8780 C.2   597  THR597      0.2643
     89  O          0.3770   18.2380  -62.7240 O.2   597  THR597     -0.2714
     90  CB        -0.2960   15.1110  -62.4700 C.3   597  THR597      0.1808
     91  OG1        0.2520   15.0700  -63.7880 O.3   597  THR597     -0.2208
     92  CG2       -1.0780   13.8660  -62.1980 C.3   597  THR597      0.0379
     93  N         -0.0350   17.7080  -60.5720 N.am  598  GLY598     -0.1939
     94  CA         0.8450   18.7190  -59.9990 C.3   598  GLY598      0.2014
     95  C          1.6390   18.1930  -58.8250 C.2   598  GLY598      0.2640
     96  O          1.0700   17.6030  -57.9130 O.2   598  GLY598     -0.2714
     97  N          2.9580   18.3970  -58.8580 N.am  599  THR599     -0.1936
     98  CA         3.9030   18.0460  -57.7980 C.3   599  THR599      0.2028
     99  C          4.7800   19.2830  -57.5390 C.2   599  THR599      0.2643
    100  O          5.3240   19.8490  -58.4900 O.2   599  THR599     -0.2714
    101  CB         4.7420   16.8090  -58.1810 C.3   599  THR599      0.1808
    102  OG1        3.9000   15.8200  -58.7730 O.3   599  THR599     -0.2208
    103  CG2        5.4940   16.2130  -56.9890 C.3   599  THR599      0.0379
    104  N          4.8930   19.7340  -56.2820 N.am  600  THR600     -0.1936
    105  CA         5.7290   20.9090  -56.0250 C.3   600  THR600      0.2028
    106  C          7.1620   20.5090  -55.6680 C.2   600  THR600      0.2642
    107  O          7.4180   19.3270  -55.4090 O.2   600  THR600     -0.2714
    108  CB         5.0380   21.9400  -55.1140 C.3   600  THR600      0.1808
    109  OG1        4.7290   21.3500  -53.8560 O.3   600  THR600     -0.2208
    110  CG2        3.7770   22.5040  -55.7310 C.3   600  THR600      0.0379
    111  N          8.1050   21.4820  -55.6970 N.am  601  ASN601     -0.1957
    112  CA         9.5220   21.2780  -55.3730 C.3   601  ASN601      0.1819
    113  C          9.6390   20.5590  -54.0450 C.2   601  ASN601      0.2621
    114  O          8.9180   20.8840  -53.0950 O.2   601  ASN601     -0.2715
    115  CB        10.3010   22.6050  -55.3340 C.3   601  ASN601      0.1195
    116  CG        10.4100   23.3170  -56.6650 C.2   601  ASN601      0.2630
    117  OD1       10.7460   22.7260  -57.7010 O.2   601  ASN601     -0.2716
    118  ND2       10.1790   24.6230  -56.6590 N.am  601  ASN601     -0.0877
    119  N         10.5000   19.5260  -54.0270 N.am  602  ASN602     -0.1958
    120  CA        10.7940   18.6410  -52.9020 C.3   602  ASN602      0.1819
    121  C          9.5590   17.8390  -52.4220 C.2   602  ASN602      0.2621
    122  O          9.4710   17.4780  -51.2480 O.2   602  ASN602     -0.2715
    123  CB        11.5630   19.3870  -51.7750 C.3   602  ASN602      0.1195
    124  CG        12.3380   18.5220  -50.7970 C.2   602  ASN602      0.2630
    125  OD1       12.6780   17.3560  -51.0610 O.2   602  ASN602     -0.2716
    126  ND2       12.6410   19.0860  -49.6370 N.am  602  ASN602     -0.0877
    127  N          8.6290   17.5260  -53.3610 N.am  603  ASN603     -0.1972
    128  CA         7.3970   16.7450  -53.1360 C.3   603  ASN603      0.1688
    129  C          6.4590   17.2970  -52.0300 C.2   603  ASN603      0.2292
    130  O          5.6550   16.5490  -51.4660 O.2   603  ASN603     -0.2864
    131  CB         7.7290   15.2500  -52.9260 C.3   603  ASN603      0.1181
    132  CG         8.4770   14.6120  -54.0690 C.2   603  ASN603      0.2629
    133  OD1        9.7100   14.6260  -54.1220 O.2   603  ASN603     -0.2716
    134  ND2        7.7490   14.0340  -55.0100 N.am  603  ASN603     -0.0877
    135  N          3.8270   12.0160  -55.6160 N.3   632  TYR632     -0.1227
    136  CA         3.7430   12.8120  -56.8350 C.3   632  TYR632      0.1736
    137  C          2.2470   13.0560  -57.1040 C.2   632  TYR632      0.2596
    138  O          1.4120   12.5560  -56.3450 O.2   632  TYR632     -0.2718
    139  CB         4.3980   12.0560  -58.0050 C.3   632  TYR632      0.0548
    140  CG         5.9070   12.0310  -57.9220 C.ar  632  TYR632     -0.0200
    141  CD1        6.5700   10.9990  -57.2680 C.ar  632  TYR632     -0.0009
    142  CD2        6.6740   13.0450  -58.4850 C.ar  632  TYR632     -0.0009
    143  CE1        7.9610   10.9720  -57.1810 C.ar  632  TYR632      0.0417
    144  CE2        8.0630   13.0390  -58.3890 C.ar  632  TYR632      0.0417
    145  CZ         8.7020   11.9960  -57.7440 C.ar  632  TYR632      0.1957
    146  OH        10.0710   11.9770  -57.6510 O.3   632  TYR632     -0.2866
    147  N          1.9170   13.8090  -58.1550 N.am  633  GLY633     -0.1942
    148  CA         0.5310   14.0530  -58.5340 C.3   633  GLY633      0.2014
    149  C         -0.2280   12.7540  -58.7600 C.2   633  GLY633      0.2638
    150  O         -1.2900   12.5420  -58.1680 O.2   633  GLY633     -0.2714
    151  N          0.3700   11.8460  -59.5580 N.am  634  ALA634     -0.1977
    152  CA        -0.1750   10.5350  -59.9180 C.3   634  ALA634      0.1597
    153  C         -0.2220    9.4980  -58.7590 C.2   634  ALA634      0.2287
    154  O         -1.1110    8.6350  -58.7360 O.2   634  ALA634     -0.2864
    155  CB         0.5780    9.9760  -61.1150 C.3   634  ALA634      0.0319
@<TRIPOS>BOND
     1    46    45    1
     2    45    47    1
     3    45    44    2
     4    43    44    1
     5    43    42    1
     6    42    41    1
     7    41    38    1
     8    37    38    1
     9    38    39    1
    10    39    48   am
    11    39    40    2
    12    48    49    1
    13    14    13    2
    14    57    56    2
    15    56    55    1
    16    49    50    1
    17    49    52    1
    18    54    55    1
    19    50    51    2
    20    70    71    1
    21    13    12    1
    22    55    58    1
    23    17    18    1
    24    17    16    1
    25    15    12    1
    26    15    16    1
    27    12    11    1
    28    18    19    1
    29    52    53    1
    30    35    34   ar
    31    71    74    1
    32    71    72    1
    33    83    84    1
    34    83    82    1
    35    76    74    1
    36    27    26    2
    37    58    59    1
    38    84    85    1
    39    28    26   am
    40    75    74    1
    41    26    25    1
    42    22    21    1
    43    22    23    2
    44    72    73    2
    45    21    20    1
    46    21    24    1
    47    34    36   ar
    48    34    33    1
    49    69    67    1
    50    29    30    1
    51    81    82    1
    52    81    78    1
    53    60    59    2
    54    59    61   am
    55    77    78    1
    56    78    79    1
    57    24    25    1
    58    67    68    1
    59    67    66    1
    60    33    30    1
    61    31    30    1
    62    31    32    2
    63     8     7    2
    64    62    63    1
    65    91    90    1
    66    79    86   am
    67    79    80    2
    68    86    87    1
    69    63    66    1
    70    63    64    1
    71     9    10    1
    72     9     6    1
    73     7     6    1
    74     6     5    1
    75    89    88    2
    76    90    87    1
    77    90    92    1
    78    87    88    1
    79    64    65    2
    80    88    93   am
    81     5     3   am
    82     4     3    2
    83   155   152    1
    84     3     2    1
    85    93    94    1
    86    94    95    1
    87   152   151    1
    88   152   153    1
    89   151   149   am
    90     2     1    1
    91    97    95   am
    92    97    98    1
    93    95    96    2
    94   102   101    1
    95   149   148    1
    96   149   150    2
    97   153   154    2
    98   148   147    1
    99   100    99    2
   100   142   144   ar
   101   142   140   ar
   102   144   145   ar
   103   101    98    1
   104   101   103    1
   105   147   137   am
   106   139   140    1
   107   139   136    1
   108   140   141   ar
   109    98    99    1
   110   145   146    1
   111   145   143   ar
   112   117   116    2
   113    99   104   am
   114   141   143   ar
   115   137   136    1
   116   137   138    2
   117   136   135    1
   118   116   118   am
   119   116   115    1
   120   104   105    1
   121   105   106    1
   122   105   108    1
   123   110   108    1
   124   111   106   am
   125   111   112    1
   126   106   107    2
   127   112   115    1
   128   112   113    1
   129   108   109    1
   130   134   132   am
   131   133   132    2
   132   132   131    1
   133   113   119   am
   134   113   114    2
   135   119   120    1
   136   127   128    1
   137   127   121   am
   138   128   131    1
   139   128   129    1
   140   120   121    1
   141   120   123    1
   142   121   122    2
   143   129   130    2
   144   123   124    1
   145   125   124    2
   146   124   126   am
