@<TRIPOS>MOLECULE
tmp/5hlaA00.pdb
 137 129 0 0 0
SMALL
GASTEIGER

@<TRIPOS>ATOM
      1  N        -33.1110    8.0750  -57.9920 N.3   407  GLY407     -0.1210
      2  CA       -34.0270    8.8630  -58.8050 C.3   407  GLY407      0.1956
      3  C        -33.6970    8.8540  -60.2810 C.2   407  GLY407      0.2612
      4  O        -33.5180    7.7920  -60.8780 O.2   407  GLY407     -0.2717
      5  N        -33.5850   10.0470  -60.8660 N.am  408  SER408     -0.1952
      6  CA       -33.3150   10.2640  -62.2910 C.3   408  SER408      0.1924
      7  C        -31.8470   10.0490  -62.7160 C.2   408  SER408      0.2314
      8  O        -31.5360   10.0980  -63.9020 O.2   408  SER408     -0.2863
      9  CB       -33.8810   11.6100  -62.7380 C.3   408  SER408      0.2116
     10  OG       -35.2450   11.7130  -62.3440 O.3   408  SER408     -0.2180
     11  N        -31.4710    7.3050  -65.1970 N.3   411  LYS411     -0.1245
     12  CA       -31.8160    7.5630  -66.5870 C.3   411  LYS411      0.1561
     13  C        -30.6340    7.3530  -67.5530 C.2   411  LYS411      0.2260
     14  O        -30.8230    6.5690  -68.4820 O.2   411  LYS411     -0.2867
     15  CB       -32.5160    8.9200  -66.7880 C.3   411  LYS411      0.0271
     16  CG       -33.9300    8.9710  -66.2320 C.3   411  LYS411      0.0035
     17  CD       -34.7540   10.0240  -66.9590 C.3   411  LYS411      0.0206
     18  CE       -36.1660   10.1050  -66.4470 C.3   411  LYS411      0.1093
     19  NZ       -36.2470   10.8130  -65.1440 N.3   411  LYS411     -0.1314
     20  N        -43.1690   14.6240  -64.8070 N.3   451  ASP451     -0.1239
     21  CA       -43.2020   15.5690  -63.6820 C.3   451  ASP451      0.1674
     22  C        -44.3300   16.6060  -63.7140 C.2   451  ASP451      0.2266
     23  O        -44.8720   16.9430  -62.6610 O.2   451  ASP451     -0.2867
     24  CB       -41.8490   16.2480  -63.4900 C.3   451  ASP451      0.1410
     25  CG       -41.3920   17.1820  -64.5900 C.2   451  ASP451      0.3668
     26  OD1      -40.8010   18.2270  -64.2640 O.co2 451  ASP451     -0.2456
     27  OD2      -41.5750   16.8390  -65.7800 O.co2 451  ASP451     -0.2456
     28  N        -34.3970   16.6510  -70.7930 N.3   469  ARG469     -0.1231
     29  CA       -35.5020   17.1550  -69.9870 C.3   469  ARG469      0.1694
     30  C        -35.9070   16.2140  -68.8430 C.2   469  ARG469      0.2592
     31  O        -36.8040   16.5520  -68.0660 O.2   469  ARG469     -0.2718
     32  CB       -36.6900   17.4900  -70.8920 C.3   469  ARG469      0.0321
     33  CG       -36.4910   18.7690  -71.7120 C.3   469  ARG469      0.0489
     34  CD       -37.5750   18.9540  -72.7620 C.3   469  ARG469      0.2205
     35  NE       -38.9240   18.9080  -72.1870 N.pl3 469  ARG469     -0.0865
     36  CZ       -40.0340   18.6930  -72.8870 C.cat 469  ARG469      0.5346
     37  NH1      -39.9750   18.5090  -74.2000 N.pl3 469  ARG469      0.1354
     38  NH2      -41.2110   18.6610  -72.2780 N.pl3 469  ARG469      0.1354
     39  N        -35.2110   15.0530  -68.7230 N.am  470  SER470     -0.1952
     40  CA       -35.4270   14.0040  -67.7150 C.3   470  SER470      0.1924
     41  C        -36.9030   13.5470  -67.6990 C.2   470  SER470      0.2314
     42  O        -37.5420   13.4950  -66.6450 O.2   470  SER470     -0.2863
     43  CB       -34.9470   14.4690  -66.3400 C.3   470  SER470      0.2116
     44  OG       -34.8470   13.3870  -65.4310 O.3   470  SER470     -0.2180
     45  N        -39.9770   11.1190  -67.7720 N.3   472  ASN472     -0.1240
     46  CA       -40.2460    9.7840  -67.2290 C.3   472  ASN472      0.1653
     47  C        -40.9080    8.8390  -68.2190 C.2   472  ASN472      0.2266
     48  O        -40.3860    7.7480  -68.4480 O.2   472  ASN472     -0.2867
     49  CB       -41.0400    9.8620  -65.9170 C.3   472  ASN472      0.1155
     50  CG       -40.4140   10.7390  -64.8560 C.2   472  ASN472      0.2627
     51  OD1      -39.1880   10.9110  -64.7720 O.2   472  ASN472     -0.2716
     52  ND2      -41.2540   11.3360  -64.0330 N.am  472  ASN472     -0.0877
     53  N        -36.8210    4.2270  -63.4070 N.3   509  LEU509     -0.1245
     54  CA       -37.1320    5.5370  -62.8400 C.3   509  LEU509      0.1561
     55  C        -36.4420    5.8790  -61.5080 C.2   509  LEU509      0.2260
     56  O        -36.6290    6.9890  -60.9980 O.2   509  LEU509     -0.2867
     57  CB       -38.6490    5.7920  -62.7810 C.3   509  LEU509      0.0270
     58  CG       -39.3950    5.9340  -64.1160 C.3   509  LEU509      0.0019
     59  CD1      -40.8340    6.3030  -63.8750 C.3   509  LEU509      0.0001
     60  CD2      -38.7490    6.9750  -65.0310 C.3   509  LEU509      0.0001
     61  N        -32.7590   20.2070  -67.5070 N.3   580  THR580     -0.1218
     62  CA       -32.9970   20.3330  -66.0590 C.3   580  THR580      0.1862
     63  C        -31.8850   21.0730  -65.3120 C.2   580  THR580      0.2287
     64  O        -32.1700   21.8340  -64.3850 O.2   580  THR580     -0.2866
     65  CB       -33.2690   18.9600  -65.4350 C.3   580  THR580      0.1770
     66  OG1      -32.1450   18.1130  -65.6550 O.3   580  THR580     -0.2211
     67  CG2      -34.5430   18.3060  -65.9750 C.3   580  THR580      0.0375
     68  N        -29.5330   15.5170  -63.1030 N.3   597  THR597     -0.1203
     69  CA       -30.2300   15.8750  -61.8680 C.3   597  THR597      0.1994
     70  C        -31.0000   14.6600  -61.3690 C.2   597  THR597      0.2618
     71  O        -31.2250   13.7190  -62.1330 O.2   597  THR597     -0.2717
     72  CB       -31.1810   17.0560  -62.1100 C.3   597  THR597      0.1784
     73  OG1      -31.9040   16.8230  -63.3140 O.3   597  THR597     -0.2211
     74  CG2      -30.4660   18.3930  -62.1800 C.3   597  THR597      0.0376
     75  N        -31.3910   14.6910  -60.0980 N.am  598  GLY598     -0.1942
     76  CA       -32.1590   13.6250  -59.4670 C.3   598  GLY598      0.2014
     77  C        -33.0930   14.1540  -58.4050 C.2   598  GLY598      0.2640
     78  O        -32.6680   14.9090  -57.5290 O.2   598  GLY598     -0.2714
     79  N        -34.3820   13.7980  -58.5010 N.am  599  THR599     -0.1936
     80  CA       -35.4060   14.1980  -57.5360 C.3   599  THR599      0.2028
     81  C        -36.3300   13.0070  -57.2930 C.2   599  THR599      0.2643
     82  O        -37.1440   12.6790  -58.1530 O.2   599  THR599     -0.2714
     83  CB       -36.1650   15.4690  -57.9940 C.3   599  THR599      0.1808
     84  OG1      -35.2400   16.4760  -58.4040 O.3   599  THR599     -0.2208
     85  CG2      -37.0910   16.0270  -56.9140 C.3   599  THR599      0.0379
     86  N        -36.2000   12.3510  -56.1230 N.am  600  THR600     -0.1936
     87  CA       -37.0550   11.2100  -55.7890 C.3   600  THR600      0.2028
     88  C        -38.4650   11.6930  -55.4610 C.2   600  THR600      0.2642
     89  O        -38.6870   12.9070  -55.3690 O.2   600  THR600     -0.2714
     90  CB       -36.4350   10.3130  -54.7080 C.3   600  THR600      0.1808
     91  OG1      -36.3090   11.0370  -53.4860 O.3   600  THR600     -0.2208
     92  CG2      -35.1050    9.7290  -55.1300 C.3   600  THR600      0.0379
     93  N        -39.4200   10.7600  -55.3310 N.am  601  ASN601     -0.1957
     94  CA       -40.8110   11.1030  -55.0410 C.3   601  ASN601      0.1819
     95  C        -40.9580   11.8320  -53.7070 C.2   601  ASN601      0.2621
     96  O        -40.2240   11.5370  -52.7580 O.2   601  ASN601     -0.2715
     97  CB       -41.7150    9.8750  -55.1190 C.3   601  ASN601      0.1195
     98  CG       -43.1280   10.2250  -55.5160 C.2   601  ASN601      0.2630
     99  OD1      -43.4230   10.5130  -56.6860 O.2   601  ASN601     -0.2716
    100  ND2      -44.0260   10.2490  -54.5430 N.am  601  ASN601     -0.0877
    101  N        -41.8650   12.8280  -53.6690 N.am  602  ASN602     -0.1958
    102  CA       -42.1700   13.6790  -52.5080 C.3   602  ASN602      0.1819
    103  C        -40.9340   14.4340  -51.9740 C.2   602  ASN602      0.2621
    104  O        -40.7910   14.6360  -50.7650 O.2   602  ASN602     -0.2715
    105  CB       -42.9260   12.8920  -51.4010 C.3   602  ASN602      0.1195
    106  CG       -43.6080   13.7440  -50.3470 C.2   602  ASN602      0.2630
    107  OD1      -43.7960   14.9630  -50.4960 O.2   602  ASN602     -0.2716
    108  ND2      -43.9870   13.1120  -49.2450 N.am  602  ASN602     -0.0877
    109  N        -40.0370   14.8440  -52.9020 N.am  603  ASN603     -0.1972
    110  CA       -38.8010   15.5900  -52.6320 C.3   603  ASN603      0.1688
    111  C        -38.0240   15.0630  -51.4100 C.2   603  ASN603      0.2292
    112  O        -37.5850   15.8430  -50.5640 O.2   603  ASN603     -0.2864
    113  CB       -39.0970   17.0950  -52.5200 C.3   603  ASN603      0.1181
    114  CG       -39.9260   17.6260  -53.6560 C.2   603  ASN603      0.2629
    115  OD1      -41.1580   17.6340  -53.6000 O.2   603  ASN603     -0.2716
    116  ND2      -39.2680   18.0210  -54.7350 N.am  603  ASN603     -0.0877
    117  N        -35.5170   20.4900  -55.0160 N.3   632  TYR632     -0.1227
    118  CA       -35.4680   19.7030  -56.2470 C.3   632  TYR632      0.1736
    119  C        -34.0160   19.3150  -56.5480 C.2   632  TYR632      0.2596
    120  O        -33.1400   19.5850  -55.7310 O.2   632  TYR632     -0.2718
    121  CB       -36.0830   20.5030  -57.4090 C.3   632  TYR632      0.0548
    122  CG       -37.5680   20.7470  -57.2580 C.ar  632  TYR632     -0.0200
    123  CD1      -38.4960   19.8200  -57.7280 C.ar  632  TYR632     -0.0009
    124  CD2      -38.0480   21.9060  -56.6590 C.ar  632  TYR632     -0.0009
    125  CE1      -39.8670   20.0410  -57.6000 C.ar  632  TYR632      0.0417
    126  CE2      -39.4180   22.1350  -56.5200 C.ar  632  TYR632      0.0417
    127  CZ       -40.3240   21.2030  -56.9980 C.ar  632  TYR632      0.1957
    128  OH       -41.6740   21.4280  -56.8750 O.3   632  TYR632     -0.2866
    129  N        -33.7850   18.6760  -57.6960 N.am  633  GLY633     -0.1942
    130  CA       -32.4620   18.2660  -58.1530 C.3   633  GLY633      0.2014
    131  C        -31.5880   19.4420  -58.5390 C.2   633  GLY633      0.2638
    132  O        -30.4230   19.4910  -58.1410 O.2   633  GLY633     -0.2714
    133  N        -32.1620   20.4070  -59.3090 N.am  634  ALA634     -0.1977
    134  CA       -31.5090   21.6440  -59.7700 C.3   634  ALA634      0.1597
    135  C        -31.1760   22.5500  -58.5850 C.2   634  ALA634      0.2287
    136  O        -30.0890   23.1290  -58.5330 O.2   634  ALA634     -0.2864
    137  CB       -32.3950   22.3790  -60.7660 C.3   634  ALA634      0.0319
@<TRIPOS>BOND
     1    37    36    1
     2    36    38    1
     3    36    35    2
     4    34    35    1
     5    34    33    1
     6    33    32    1
     7    32    29    1
     8    28    29    1
     9    29    30    1
    10    30    39   am
    11    30    31    2
    12    39    40    1
    13    14    13    2
    14    48    47    2
    15    47    46    1
    16    45    46    1
    17    40    41    1
    18    40    43    1
    19    41    42    2
    20    13    12    1
    21    61    62    1
    22    46    49    1
    23    17    18    1
    24    17    16    1
    25    15    12    1
    26    15    16    1
    27    12    11    1
    28    18    19    1
    29    43    44    1
    30    62    65    1
    31    62    63    1
    32    67    65    1
    33    49    50    1
    34    27    25   ar
    35    66    65    1
    36    63    64    2
    37    60    58    1
    38    50    51    2
    39    50    52   am
    40    20    21    1
    41    25    26   ar
    42    25    24    1
    43    58    59    1
    44    58    57    1
    45     8     7    2
    46    22    21    1
    47    22    23    2
    48    21    24    1
    49    53    54    1
    50    73    72    1
    51    68    69    1
    52    54    57    1
    53    54    55    1
    54     9    10    1
    55     9     6    1
    56     7     6    1
    57     6     5    1
    58    74    72    1
    59    71    70    2
    60    72    69    1
    61    69    70    1
    62    55    56    2
    63    70    75   am
    64     4     3    2
    65     5     3   am
    66   137   134    1
    67     3     2    1
    68    75    76    1
    69   134   133    1
    70   134   135    1
    71    76    77    1
    72   133   131   am
    73     2     1    1
    74   135   136    2
    75   131   130    1
    76   131   132    2
    77    79    77   am
    78    79    80    1
    79    77    78    2
    80    84    83    1
    81    82    81    2
    82   130   129    1
    83    83    80    1
    84    83    85    1
    85   123   125   ar
    86   123   122   ar
    87   129   119   am
    88   125   127   ar
    89    80    81    1
    90   121   122    1
    91   121   118    1
    92    81    86   am
    93   122   124   ar
    94   127   128    1
    95   127   126   ar
    96    99    98    2
    97   124   126   ar
    98   119   118    1
    99   119   120    2
   100   118   117    1
   101    86    87    1
   102    87    88    1
   103    87    90    1
   104    98    97    1
   105    98   100   am
   106    88    89    2
   107    88    93   am
   108    93    94    1
   109    92    90    1
   110    97    94    1
   111    94    95    1
   112   116   114   am
   113    90    91    1
   114    95   101   am
   115    95    96    2
   116   101   102    1
   117   114   115    2
   118   114   113    1
   119   109   110    1
   120   109   103   am
   121   110   113    1
   122   110   111    1
   123   102   103    1
   124   102   105    1
   125   103   104    2
   126   111   112    2
   127   105   106    1
   128   107   106    2
   129   106   108   am
