@<TRIPOS>MOLECULE
tmp/5hlaA01.pdb
 146 140 0 0 0
SMALL
GASTEIGER

@<TRIPOS>ATOM
      1  N         17.2070   23.4970  -20.2670 N.3   167  GLU167     -0.1245
      2  CA        17.5010   22.2390  -19.5790 C.3   167  GLU167      0.1567
      3  C         18.9830   22.0040  -19.1980 C.2   167  GLU167      0.2260
      4  O         19.3490   22.3080  -18.0620 O.2   167  GLU167     -0.2867
      5  CB        16.8860   21.0250  -20.3180 C.3   167  GLU167      0.0388
      6  CG        15.3750   21.0810  -20.5270 C.3   167  GLU167      0.1160
      7  CD        14.4780   20.8490  -19.3230 C.2   167  GLU167      0.3649
      8  OE1       13.3540   21.4010  -19.3140 O.co2 167  GLU167     -0.2457
      9  OE2       14.8730   20.0870  -18.4100 O.co2 167  GLU167     -0.2457
     10  N         16.1900   12.5520  -17.9520 N.3   178  GLN178     -0.1245
     11  CA        14.8080   12.7810  -18.3570 C.3   178  GLN178      0.1566
     12  C         14.3960   11.7450  -19.3970 C.2   178  GLN178      0.2260
     13  O         13.2640   11.2610  -19.3990 O.2   178  GLN178     -0.2867
     14  CB        14.6390   14.1920  -18.9210 C.3   178  GLN178      0.0367
     15  CG        14.4760   15.2690  -17.8610 C.3   178  GLN178      0.0905
     16  CD        15.3110   16.5010  -18.1490 C.2   178  GLN178      0.2608
     17  OE1       16.5270   16.4160  -18.3180 O.2   178  GLN178     -0.2717
     18  NE2       14.6590   17.6570  -18.2080 N.am  178  GLN178     -0.0878
     19  N         13.6220    8.5320  -17.6690 N.3   181  LYS181     -0.1231
     20  CA        12.4420    8.7790  -16.8320 C.3   181  LYS181      0.1693
     21  C         11.1710    8.5240  -17.6520 C.2   181  LYS181      0.2592
     22  O         10.2680    7.8330  -17.1790 O.2   181  LYS181     -0.2718
     23  CB        12.4570   10.2220  -16.2790 C.3   181  LYS181      0.0285
     24  CG        11.3020   10.5510  -15.3250 C.3   181  LYS181      0.0035
     25  CD        11.3750   11.9690  -14.7520 C.3   181  LYS181      0.0206
     26  CE        10.6650   12.9950  -15.6030 C.3   181  LYS181      0.1093
     27  NZ        10.2090   14.1560  -14.7950 N.3   181  LYS181     -0.1314
     28  N         11.1130    9.0790  -18.8790 N.am  182  ASN182     -0.1974
     29  CA         9.9870    8.9160  -19.7970 C.3   182  ASN182      0.1688
     30  C         10.0470    7.5540  -20.5030 C.2   182  ASN182      0.2292
     31  O          9.0330    6.8610  -20.5710 O.2   182  ASN182     -0.2864
     32  CB         9.9610   10.0520  -20.8290 C.3   182  ASN182      0.1181
     33  CG         9.5950   11.4100  -20.2800 C.2   182  ASN182      0.2629
     34  OD1        8.4850   11.9120  -20.4900 O.2   182  ASN182     -0.2716
     35  ND2       10.5350   12.0640  -19.6130 N.am  182  ASN182     -0.0877
     36  N         15.5030   11.6970  -27.2080 N.3   210  TYR210     -0.1241
     37  CA        14.7810   12.6190  -26.3260 C.3   210  TYR210      0.1605
     38  C         13.7610   13.4720  -27.0910 C.2   210  TYR210      0.2264
     39  O         12.6280   13.6250  -26.6310 O.2   210  TYR210     -0.2867
     40  CB        15.7800   13.5010  -25.5490 C.3   210  TYR210      0.0534
     41  CG        15.1600   14.6200  -24.7380 C.ar  210  TYR210     -0.0201
     42  CD1       14.7920   14.4240  -23.4090 C.ar  210  TYR210     -0.0009
     43  CD2       15.0080   15.8960  -25.2750 C.ar  210  TYR210     -0.0009
     44  CE1       14.2620   15.4620  -22.6440 C.ar  210  TYR210      0.0417
     45  CE2       14.4510   16.9310  -24.5290 C.ar  210  TYR210      0.0417
     46  CZ        14.0870   16.7150  -23.2120 C.ar  210  TYR210      0.1957
     47  OH        13.5400   17.7400  -22.4770 O.3   210  TYR210     -0.2866
     48  N          9.5650   12.9840  -25.6240 N.3   214  VAL214     -0.1231
     49  CA         8.9070   14.0290  -24.8170 C.3   214  VAL214      0.1692
     50  C          7.4290   14.3240  -25.0860 C.2   214  VAL214      0.2592
     51  O          7.0400   14.5680  -26.2270 O.2   214  VAL214     -0.2718
     52  CB         9.7470   15.3190  -24.6610 C.3   214  VAL214      0.0266
     53  CG1       11.0110   15.0450  -23.8630 C.3   214  VAL214      0.0020
     54  CG2       10.0780   15.9530  -26.0120 C.3   214  VAL214      0.0020
     55  N          6.6180   14.3180  -24.0150 N.am  215  TYR215     -0.1976
     56  CA         5.1780   14.5690  -24.0600 C.3   215  TYR215      0.1639
     57  C          4.8900   16.0480  -24.3220 C.2   215  TYR215      0.2290
     58  O          5.4060   16.9100  -23.6060 O.2   215  TYR215     -0.2864
     59  CB         4.5240   14.0910  -22.7520 C.3   215  TYR215      0.0560
     60  CG         3.0180   14.2060  -22.7200 C.ar  215  TYR215     -0.0198
     61  CD1        2.3930   15.2600  -22.0620 C.ar  215  TYR215     -0.0009
     62  CD2        2.2120   13.2310  -23.3030 C.ar  215  TYR215     -0.0009
     63  CE1        1.0060   15.3660  -22.0180 C.ar  215  TYR215      0.0417
     64  CE2        0.8220   13.3210  -23.2560 C.ar  215  TYR215      0.0417
     65  CZ         0.2230   14.3930  -22.6140 C.ar  215  TYR215      0.1957
     66  OH        -1.1430   14.4950  -22.5560 O.3   215  TYR215     -0.2866
     67  N         -2.2690   16.2140  -26.0400 N.3   218  GLN218     -0.1245
     68  CA        -3.2550   15.1300  -25.9600 C.3   218  GLN218      0.1566
     69  C         -4.4390   15.3370  -26.9130 C.2   218  GLN218      0.2260
     70  O         -4.9350   16.4580  -27.0570 O.2   218  GLN218     -0.2867
     71  CB        -3.7590   14.9680  -24.5100 C.3   218  GLN218      0.0367
     72  CG        -4.5530   13.6810  -24.2210 C.3   218  GLN218      0.0905
     73  CD        -3.7350   12.4050  -24.1240 C.2   218  GLN218      0.2608
     74  OE1       -4.2680   11.2990  -24.2600 O.2   218  GLN218     -0.2717
     75  NE2       -2.4390   12.5060  -23.8530 N.am  218  GLN218     -0.0878
     76  N         -1.5700   10.0340  -26.8560 N.3   223  GLU223     -0.1245
     77  CA        -0.4880   10.9110  -26.4090 C.3   223  GLU223      0.1567
     78  C          0.2550   11.5040  -27.6050 C.2   223  GLU223      0.2260
     79  O          0.8400   10.7570  -28.3910 O.2   223  GLU223     -0.2867
     80  CB         0.5120   10.1540  -25.5010 C.3   223  GLU223      0.0388
     81  CG        -0.1010    9.1950  -24.4950 C.3   223  GLU223      0.1160
     82  CD         0.1010    9.5780  -23.0440 C.2   223  GLU223      0.3649
     83  OE1       -0.8660   10.0720  -22.4230 O.co2 223  GLU223     -0.2457
     84  OE2        1.2220    9.3760  -22.5250 O.co2 223  GLU223     -0.2457
     85  N          3.3100   12.9080  -28.6460 N.3   225  ARG225     -0.1245
     86  CA         4.6930   12.9230  -28.1610 C.3   225  ARG225      0.1563
     87  C          5.7240   13.2750  -29.2350 C.2   225  ARG225      0.2260
     88  O          5.4990   13.0180  -30.4190 O.2   225  ARG225     -0.2867
     89  CB         5.0490   11.5850  -27.4740 C.3   225  ARG225      0.0307
     90  CG         3.9920   11.0970  -26.4790 C.3   225  ARG225      0.0489
     91  CD         4.5430   10.1820  -25.4070 C.3   225  ARG225      0.2205
     92  NE         5.2170   10.9330  -24.3470 N.pl3 225  ARG225     -0.0865
     93  CZ         5.6060   10.4140  -23.1860 C.cat 225  ARG225      0.5346
     94  NH1        5.3850    9.1330  -22.9160 N.pl3 225  ARG225      0.1354
     95  NH2        6.2150   11.1730  -22.2850 N.pl3 225  ARG225      0.1354
     96  N          7.5310   21.2150  -22.4120 N.3   254  VAL254     -0.1231
     97  CA         8.2240   19.9900  -21.9960 C.3   254  VAL254      0.1692
     98  C          8.0400   19.5930  -20.5120 C.2   254  VAL254      0.2592
     99  O          7.7460   18.4300  -20.2260 O.2   254  VAL254     -0.2718
    100  CB         9.6930   19.9200  -22.5110 C.3   254  VAL254      0.0266
    101  CG1       10.6700   20.6690  -21.6050 C.3   254  VAL254      0.0020
    102  CG2       10.1390   18.4820  -22.7130 C.3   254  VAL254      0.0020
    103  N          8.1560   20.5730  -19.5930 N.am  255  LYS255     -0.1966
    104  CA         8.0310   20.3910  -18.1410 C.3   255  LYS255      0.1728
    105  C          6.5810   20.3090  -17.6200 C.2   255  LYS255      0.2617
    106  O          6.3720   20.0480  -16.4320 O.2   255  LYS255     -0.2715
    107  CB         8.8540   21.4520  -17.3790 C.3   255  LYS255      0.0311
    108  CG         8.4480   22.8990  -17.6510 C.3   255  LYS255      0.0038
    109  CD         7.9680   23.5800  -16.3870 C.3   255  LYS255      0.0206
    110  CE         8.2500   25.0560  -16.4360 C.3   255  LYS255      0.1093
    111  NZ         7.6630   25.7710  -15.2770 N.3   255  LYS255     -0.1314
    112  N          5.6100   20.5280  -18.5060 N.am  256  GLY256     -0.1940
    113  CA         4.1930   20.4830  -18.1690 C.3   256  GLY256      0.2014
    114  C          3.2880   20.8670  -19.3190 C.2   256  GLY256      0.2639
    115  O          2.7740   21.9870  -19.3580 O.2   256  GLY256     -0.2714
    116  N          3.0730   19.9280  -20.2530 N.am  257  ALA257     -0.1963
    117  CA         2.2460   20.1100  -21.4500 C.3   257  ALA257      0.1728
    118  C          0.7700   20.4290  -21.1840 C.2   257  ALA257      0.2617
    119  O          0.1900   21.2250  -21.9270 O.2   257  ALA257     -0.2715
    120  CB         2.3680   18.8960  -22.3520 C.3   257  ALA257      0.0334
    121  N          0.1690   19.8180  -20.1380 N.am  258  SER258     -0.1936
    122  CA        -1.2430   20.0190  -19.7880 C.3   258  SER258      0.2055
    123  C         -1.5940   21.4370  -19.3350 C.2   258  SER258      0.2643
    124  O         -2.6370   21.9500  -19.7450 O.2   258  SER258     -0.2714
    125  CB        -1.7190   18.9850  -18.7750 C.3   258  SER258      0.2130
    126  OG        -1.7950   17.6980  -19.3670 O.3   258  SER258     -0.2179
    127  N         -0.7400   22.0740  -18.5080 N.am  259  ILE259     -0.1963
    128  CA        -1.0060   23.4450  -18.0550 C.3   259  ILE259      0.1727
    129  C         -0.5350   24.5280  -19.0350 C.2   259  ILE259      0.2616
    130  O         -0.9900   25.6690  -18.9430 O.2   259  ILE259     -0.2715
    131  CB        -0.6940   23.7420  -16.5550 C.3   259  ILE259      0.0290
    132  CG1        0.8150   23.9670  -16.2390 C.3   259  ILE259      0.0022
    133  CG2       -1.4150   22.7860  -15.5920 C.3   259  ILE259      0.0023
    134  CD1        1.7820   22.7570  -16.2750 C.3   259  ILE259      0.0001
    135  N          0.3480   24.1650  -19.9890 N.am  260  TYR260     -0.1974
    136  CA         0.8380   25.0990  -21.0090 C.3   260  TYR260      0.1639
    137  C          0.1620   24.8400  -22.3730 C.2   260  TYR260      0.2290
    138  O          0.6720   25.2420  -23.4230 O.2   260  TYR260     -0.2864
    139  CB         2.3840   25.1290  -21.0730 C.3   260  TYR260      0.0560
    140  CG         3.0700   25.2860  -19.7270 C.ar  260  TYR260     -0.0198
    141  CD1        2.6070   26.2050  -18.7870 C.ar  260  TYR260     -0.0009
    142  CD2        4.2120   24.5560  -19.4140 C.ar  260  TYR260     -0.0009
    143  CE1        3.2180   26.3380  -17.5420 C.ar  260  TYR260      0.0417
    144  CE2        4.8310   24.6780  -18.1720 C.ar  260  TYR260      0.0417
    145  CZ         4.3370   25.5770  -17.2420 C.ar  260  TYR260      0.1957
    146  OH         4.9540   25.7220  -16.0240 O.3   260  TYR260     -0.2866
@<TRIPOS>BOND
     1    88    87    2
     2    87    86    1
     3    85    86    1
     4    79    78    2
     5    86    89    1
     6    78    77    1
     7    89    90    1
     8    36    37    1
     9    38    39    2
    10    38    37    1
    11    70    69    2
    12    69    68    1
    13    76    77    1
    14    90    91    1
    15    77    80    1
    16    37    40    1
    17    51    50    2
    18    67    68    1
    19    54    52    1
    20    68    71    1
    21    48    49    1
    22    40    41    1
    23    80    81    1
    24    91    92    1
    25    43    41   ar
    26    43    45   ar
    27    50    49    1
    28    50    55   am
    29    49    52    1
    30    41    42   ar
    31    52    53    1
    32    45    46   ar
    33    71    72    1
    34    81    82    1
    35    92    93    2
    36    57    56    1
    37    57    58    2
    38    74    73    2
    39    72    73    1
    40    73    75   am
    41    56    55    1
    42    56    59    1
    43   138   137    2
    44    42    44   ar
    45    62    64   ar
    46    62    60   ar
    47    64    65   ar
    48    46    44   ar
    49    46    47    1
    50    93    94    1
    51    93    95    1
    52    82    84   ar
    53    82    83   ar
    54    59    60    1
    55    60    61   ar
    56   102   100    1
    57    65    66    1
    58    65    63   ar
    59   100    97    1
    60   100   101    1
    61    96    97    1
    62   137   136    1
    63   120   117    1
    64    61    63   ar
    65    97    98    1
    66   119   118    2
    67   117   118    1
    68   117   116    1
    69   118   121   am
    70   139   136    1
    71   139   140    1
    72   136   135    1
    73    32    33    1
    74    32    29    1
    75    31    30    2
    76     6     5    1
    77     6     7    1
    78    98    99    2
    79    98   103   am
    80    30    29    1
    81    34    33    2
    82     5     2    1
    83    33    35   am
    84     1     2    1
    85   116   114   am
    86   121   122    1
    87   135   129   am
    88    29    28    1
    89   122   123    1
    90   122   125    1
    91   124   123    2
    92   140   142   ar
    93   140   141   ar
    94   103   104    1
    95     2     3    1
    96   142   144   ar
    97    13    12    2
    98    12    11    1
    99   126   125    1
   100   115   114    2
   101   123   127   am
   102     7     8   ar
   103     7     9   ar
   104   114   113    1
   105     3     4    2
   106   129   130    2
   107   129   128    1
   108    14    11    1
   109    14    15    1
   110    28    21   am
   111   141   143   ar
   112   127   128    1
   113   112   113    1
   114   112   105   am
   115    11    10    1
   116    17    16    2
   117    18    16   am
   118   144   145   ar
   119    16    15    1
   120   104   105    1
   121   104   107    1
   122   128   131    1
   123    19    20    1
   124    21    22    2
   125    21    20    1
   126   108   107    1
   127   108   109    1
   128   105   106    2
   129   143   145   ar
   130   145   146    1
   131    20    23    1
   132   131   132    1
   133   131   133    1
   134   110   109    1
   135   110   111    1
   136    23    24    1
   137   134   132    1
   138    26    27    1
   139    26    25    1
   140    24    25    1
