@<TRIPOS>MOLECULE
tmp/5hlbA00.pdb
 230 216 0 0 0
SMALL
GASTEIGER

@<TRIPOS>ATOM
      1  N         17.3350  -23.4840   20.7840 N.3   167  GLU167     -0.1245
      2  CA        17.5640  -22.2990   19.9500 C.3   167  GLU167      0.1567
      3  C         19.0170  -21.7780   19.8070 C.2   167  GLU167      0.2260
      4  O         19.1490  -20.7280   19.1790 O.2   167  GLU167     -0.2867
      5  CB        16.6350  -21.1140   20.3520 C.3   167  GLU167      0.0388
      6  CG        15.2090  -21.4340   20.7870 C.3   167  GLU167      0.1160
      7  CD        14.1120  -21.3540   19.7420 C.2   167  GLU167      0.3649
      8  OE1       14.3240  -20.7320   18.6760 O.co2 167  GLU167     -0.2457
      9  OE2       13.0240  -21.9160   20.0000 O.co2 167  GLU167     -0.2457
     10  N         13.3770  -21.4280    6.1030 N.3   196  VAL196     -0.1231
     11  CA        14.4550  -20.4680    6.2450 C.3   196  VAL196      0.1692
     12  C         15.7570  -20.9370    6.8930 C.2   196  VAL196      0.2592
     13  O         16.8210  -20.6100    6.3680 O.2   196  VAL196     -0.2718
     14  CB        13.9740  -19.2090    6.9970 C.3   196  VAL196      0.0266
     15  CG1       13.8300  -19.5010    8.4820 C.3   196  VAL196      0.0020
     16  CG2       14.9360  -18.0530    6.7650 C.3   196  VAL196      0.0020
     17  N         15.7440  -21.5850    8.0610 N.am  197  GLN197     -0.1966
     18  CA        14.7080  -22.4160    8.6820 C.3   197  GLN197      0.1733
     19  C         14.8940  -22.2060   10.1870 C.2   197  GLN197      0.2617
     20  O         15.4830  -23.0360   10.8890 O.2   197  GLN197     -0.2715
     21  CB        14.8150  -23.9070    8.2840 C.3   197  GLN197      0.0408
     22  CG        16.2130  -24.5220    8.1710 C.3   197  GLN197      0.0908
     23  CD        16.1280  -26.0110    7.9030 C.2   197  GLN197      0.2608
     24  OE1       16.6260  -26.5120    6.8880 O.2   197  GLN197     -0.2717
     25  NE2       15.4600  -26.7510    8.7860 N.am  197  GLN197     -0.0878
     26  N         14.4790  -21.0330   10.6460 N.am  198  GLY198     -0.1940
     27  CA        14.6880  -20.6160   12.0240 C.3   198  GLY198      0.2014
     28  C         16.1020  -20.0900   12.1670 C.2   198  GLY198      0.2639
     29  O         16.8050  -20.4400   13.1200 O.2   198  GLY198     -0.2714
     30  N         16.5450  -19.2870   11.1720 N.am  199  ALA199     -0.1963
     31  CA        17.8780  -18.6880   11.1270 C.3   199  ALA199      0.1728
     32  C         17.8740  -17.4280   11.9980 C.2   199  ALA199      0.2616
     33  O         17.7900  -16.3080   11.4860 O.2   199  ALA199     -0.2715
     34  CB        18.2680  -18.3610    9.6860 C.3   199  ALA199      0.0334
     35  N         17.9010  -17.6310   13.3320 N.am  200  SER200     -0.1950
     36  CA        17.8740  -16.5580   14.3260 C.3   200  SER200      0.1924
     37  C         18.5670  -16.9220   15.6480 C.2   200  SER200      0.2314
     38  O         18.1920  -17.8980   16.3040 O.2   200  SER200     -0.2863
     39  CB        16.4440  -16.0640   14.5710 C.3   200  SER200      0.2116
     40  OG        15.5050  -17.1070   14.7870 O.3   200  SER200     -0.2180
     41  N         16.3240  -12.9360   18.2170 N.3   205  GLN205     -0.1245
     42  CA        14.9660  -13.2110   18.6950 C.3   205  GLN205      0.1566
     43  C         14.5290  -12.1500   19.7050 C.2   205  GLN205      0.2260
     44  O         13.3740  -11.7200   19.6720 O.2   205  GLN205     -0.2867
     45  CB        14.8840  -14.6160   19.3110 C.3   205  GLN205      0.0367
     46  CG        14.9990  -15.7540   18.2930 C.3   205  GLN205      0.0905
     47  CD        15.3730  -17.0680   18.9320 C.2   205  GLN205      0.2608
     48  OE1       16.4400  -17.2130   19.5210 O.2   205  GLN205     -0.2717
     49  NE2       14.5460  -18.0800   18.7640 N.am  205  GLN205     -0.0878
     50  N         13.9570   -8.6310   17.9840 N.3   208  LYS208     -0.1231
     51  CA        12.6940   -8.7960   17.2670 C.3   208  LYS208      0.1693
     52  C         11.4780   -8.4930   18.1490 C.2   208  LYS208      0.2592
     53  O         10.6660   -7.6370   17.7920 O.2   208  LYS208     -0.2718
     54  CB        12.6050  -10.1980   16.6390 C.3   208  LYS208      0.0285
     55  CG        11.4070  -10.4000   15.7090 C.3   208  LYS208      0.0035
     56  CD        11.3500  -11.8040   15.0970 C.3   208  LYS208      0.0206
     57  CE        10.9290  -12.8650   16.0850 C.3   208  LYS208      0.1093
     58  NZ        10.5830  -14.1480   15.4230 N.3   208  LYS208     -0.1314
     59  N         11.3810   -9.1740   19.3060 N.am  209  ASN209     -0.1974
     60  CA        10.2850   -9.0550   20.2690 C.3   209  ASN209      0.1688
     61  C         10.2060   -7.6920   20.9740 C.2   209  ASN209      0.2292
     62  O          9.1150   -7.1350   21.1090 O.2   209  ASN209     -0.2864
     63  CB        10.3680  -10.1930   21.2860 C.3   209  ASN209      0.1181
     64  CG         9.9190  -11.5260   20.7410 C.2   209  ASN209      0.2629
     65  OD1        8.7320  -11.8560   20.7520 O.2   209  ASN209     -0.2716
     66  ND2       10.8490  -12.3210   20.2440 N.am  209  ASN209     -0.0877
     67  N          5.6340   -7.0080   13.7320 N.3   214  SER214     -0.1202
     68  CA         5.2230   -8.3810   13.3960 C.3   214  SER214      0.2020
     69  C          5.8670   -9.0030   12.1370 C.2   214  SER214      0.2618
     70  O          6.4870  -10.0620   12.2570 O.2   214  SER214     -0.2717
     71  CB         3.7010   -8.4920   13.3230 C.3   214  SER214      0.2103
     72  OG         3.0440   -7.3910   13.9300 O.3   214  SER214     -0.2182
     73  N          5.6850   -8.3820   10.9360 N.am  215  GLU215     -0.1979
     74  CA         6.2360   -8.8790    9.6590 C.3   215  GLU215      0.1602
     75  C          6.3940   -7.8260    8.5540 C.2   215  GLU215      0.2287
     76  O          6.4750   -6.6260    8.8260 O.2   215  GLU215     -0.2864
     77  CB         5.4340  -10.0850    9.1070 C.3   215  GLU215      0.0415
     78  CG         6.1650  -11.4250    9.1200 C.3   215  GLU215      0.1163
     79  CD         7.5400  -11.5930    8.4890 C.2   215  GLU215      0.3649
     80  OE1        7.9650  -10.7430    7.6700 O.co2 215  GLU215     -0.2457
     81  OE2        8.1830  -12.6210    8.8010 O.co2 215  GLU215     -0.2457
     82  N          8.9390   -7.3890    6.6730 N.3   217  SER217     -0.1217
     83  CA        10.2750   -6.8900    6.4650 C.3   217  SER217      0.1889
     84  C         11.3350   -7.9840    6.2930 C.2   217  SER217      0.2288
     85  O         11.7790   -8.5940    7.2660 O.2   217  SER217     -0.2866
     86  CB        10.6390   -5.8260    7.4950 C.3   217  SER217      0.2089
     87  OG        10.2960   -4.5190    7.0690 O.3   217  SER217     -0.2183
     88  N         13.8730   -6.3940    7.7900 N.3   220  ARG220     -0.1231
     89  CA        13.8460   -6.5100    9.2580 C.3   220  ARG220      0.1694
     90  C         14.9070   -7.4670    9.7580 C.2   220  ARG220      0.2591
     91  O         15.6440   -7.0900   10.6520 O.2   220  ARG220     -0.2718
     92  CB        12.4450   -6.9550    9.7420 C.3   220  ARG220      0.0321
     93  CG        12.1680   -6.9220   11.2370 C.3   220  ARG220      0.0489
     94  CD        12.1770   -8.3280   11.8150 C.3   220  ARG220      0.2205
     95  NE        10.9720   -8.6280   12.5880 N.pl3 220  ARG220     -0.0865
     96  CZ        10.1210   -9.6030   12.2890 C.cat 220  ARG220      0.5346
     97  NH1       10.3420  -10.3870   11.2410 N.pl3 220  ARG220      0.1354
     98  NH2        9.0490   -9.8100   13.0400 N.pl3 220  ARG220      0.1354
     99  N         14.9600   -8.7100    9.2280 N.am  221  LYS221     -0.1980
    100  CA        15.9390   -9.7180    9.6490 C.3   221  LYS221      0.1596
    101  C         17.3650   -9.1470    9.5770 C.2   221  LYS221      0.2287
    102  O         18.1200   -9.3000   10.5370 O.2   221  LYS221     -0.2864
    103  CB        15.7640  -11.0270    8.8520 C.3   221  LYS221      0.0298
    104  CG        16.9310  -12.0160    8.9520 C.3   221  LYS221      0.0038
    105  CD        17.4280  -12.4800    7.5700 C.3   221  LYS221      0.0206
    106  CE        17.8610  -11.3480    6.6530 C.3   221  LYS221      0.1093
    107  NZ        18.7180  -11.8180    5.5360 N.3   221  LYS221     -0.1314
    108  N         17.4510   -6.3740   12.1580 N.3   224  GLU224     -0.1196
    109  CA        17.4750   -7.1090   13.4310 C.3   224  GLU224      0.1783
    110  C         18.8760   -7.6700   13.6480 C.2   224  GLU224      0.2306
    111  O         19.3660   -7.6620   14.7760 O.2   224  GLU224     -0.2863
    112  CB        16.3850   -8.2150   13.4410 C.2   224  GLU224      0.0071
    113  CG        16.8000   -9.6180   13.8690 C.2   224  GLU224      0.0834
    114  CD        15.8290  -10.7450   13.5640 C.2   224  GLU224      0.3877
    115  OE1       16.3030  -11.8710   13.2930 O.co2 224  GLU224     -0.2406
    116  OE2       14.5990  -10.5160   13.6210 O.co2 224  GLU224     -0.2406
    117  N         15.7530  -11.7210   27.5820 N.3   244  TYR244     -0.1241
    118  CA        15.0880  -12.7260   26.7370 C.3   244  TYR244      0.1605
    119  C         14.0830  -13.5660   27.5180 C.2   244  TYR244      0.2264
    120  O         12.9530  -13.7330   27.0590 O.2   244  TYR244     -0.2867
    121  CB        16.1160  -13.6180   25.9880 C.3   244  TYR244      0.0534
    122  CG        15.5100  -14.6830   25.0920 C.ar  244  TYR244     -0.0201
    123  CD1       15.3060  -14.4490   23.7340 C.ar  244  TYR244     -0.0009
    124  CD2       15.1710  -15.9380   25.5960 C.ar  244  TYR244     -0.0009
    125  CE1       14.7570  -15.4280   22.9050 C.ar  244  TYR244      0.0417
    126  CE2       14.6150  -16.9200   24.7800 C.ar  244  TYR244      0.0417
    127  CZ        14.4100  -16.6620   23.4340 C.ar  244  TYR244      0.1957
    128  OH        13.8660  -17.6280   22.6220 O.3   244  TYR244     -0.2866
    129  N          9.8970  -13.2380   26.0370 N.3   248  VAL248     -0.1231
    130  CA         9.2530  -14.2930   25.2360 C.3   248  VAL248      0.1692
    131  C          7.7470  -14.4940   25.4330 C.2   248  VAL248      0.2592
    132  O          7.3140  -14.7380   26.5600 O.2   248  VAL248     -0.2718
    133  CB        10.0300  -15.6340   25.2170 C.3   248  VAL248      0.0266
    134  CG1       11.3490  -15.4790   24.4810 C.3   248  VAL248      0.0020
    135  CG2       10.2460  -16.2060   26.6210 C.3   248  VAL248      0.0020
    136  N          6.9520  -14.3730   24.3400 N.am  249  TYR249     -0.1976
    137  CA         5.5000  -14.5800   24.3970 C.3   249  TYR249      0.1639
    138  C          5.2590  -16.0570   24.6730 C.2   249  TYR249      0.2290
    139  O          5.8220  -16.9090   23.9780 O.2   249  TYR249     -0.2864
    140  CB         4.7930  -14.1240   23.1010 C.3   249  TYR249      0.0560
    141  CG         3.2850  -14.2850   23.1360 C.ar  249  TYR249     -0.0198
    142  CD1        2.6680  -15.3870   22.5550 C.ar  249  TYR249     -0.0009
    143  CD2        2.4750  -13.3290   23.7420 C.ar  249  TYR249     -0.0009
    144  CE1        1.2850  -15.5540   22.6030 C.ar  249  TYR249      0.0417
    145  CE2        1.0890  -13.4760   23.7820 C.ar  249  TYR249      0.0417
    146  CZ         0.4980  -14.5920   23.2120 C.ar  249  TYR249      0.1957
    147  OH        -0.8650  -14.7470   23.2410 O.3   249  TYR249     -0.2866
    148  N         -1.8170  -16.6280   26.3390 N.3   252  GLN252     -0.1245
    149  CA        -2.8810  -15.6280   26.3380 C.3   252  GLN252      0.1566
    150  C         -3.8900  -15.8400   27.4760 C.2   252  GLN252      0.2260
    151  O         -4.1270  -16.9740   27.8990 O.2   252  GLN252     -0.2867
    152  CB        -3.5730  -15.6110   24.9600 C.3   252  GLN252      0.0367
    153  CG        -4.3620  -14.3380   24.6150 C.3   252  GLN252      0.0905
    154  CD        -3.5960  -13.0250   24.6610 C.2   252  GLN252      0.2608
    155  OE1       -2.3840  -12.9430   24.4180 O.2   252  GLN252     -0.2717
    156  NE2       -4.3160  -11.9480   24.9380 N.am  252  GLN252     -0.0878
    157  N         -7.2450  -13.9480   27.5810 N.3   254  GLY254     -0.1225
    158  CA        -8.2520  -13.0810   26.9800 C.3   254  GLY254      0.1811
    159  C         -7.6320  -11.9670   26.1630 C.2   254  GLY254      0.2280
    160  O         -7.2860  -12.1650   24.9950 O.2   254  GLY254     -0.2866
    161  N         -1.5500  -10.4500   27.3570 N.3   257  GLU257     -0.1245
    162  CA        -0.4730  -11.2730   26.8180 C.3   257  GLU257      0.1567
    163  C          0.4270  -11.8020   27.9260 C.2   257  GLU257      0.2260
    164  O          1.0990  -11.0180   28.6030 O.2   257  GLU257     -0.2867
    165  CB         0.3580  -10.4990   25.7680 C.3   257  GLU257      0.0388
    166  CG        -0.4690   -9.7500   24.7340 C.3   257  GLU257      0.1160
    167  CD         0.2180   -9.4150   23.4250 C.2   257  GLU257      0.3649
    168  OE1       -0.4380   -9.5780   22.3720 O.co2 257  GLU257     -0.2457
    169  OE2        1.3920   -8.9790   23.4410 O.co2 257  GLU257     -0.2457
    170  N          3.6940  -13.2070   29.0320 N.3   259  ARG259     -0.1245
    171  CA         5.0660  -13.2630   28.5450 C.3   259  ARG259      0.1563
    172  C          6.1220  -13.4220   29.6230 C.2   259  ARG259      0.2260
    173  O          5.9370  -12.9600   30.7520 O.2   259  ARG259     -0.2867
    174  CB         5.4000  -12.2060   27.4790 C.3   259  ARG259      0.0307
    175  CG         4.9040  -10.7760   27.6870 C.3   259  ARG259      0.0489
    176  CD         4.5590  -10.1520   26.3390 C.3   259  ARG259      0.2205
    177  NE         5.4320  -10.6450   25.2670 N.pl3 259  ARG259     -0.0865
    178  CZ         5.2540  -10.4010   23.9730 C.cat 259  ARG259      0.5346
    179  NH1        4.2390   -9.6500   23.5640 N.pl3 259  ARG259      0.1354
    180  NH2        6.0960  -10.9010   23.0780 N.pl3 259  ARG259      0.1354
    181  N          7.7180  -21.4070   22.9240 N.3   288  VAL288     -0.1231
    182  CA         8.3220  -20.2010   22.3440 C.3   288  VAL288      0.1692
    183  C          8.1400  -20.0170   20.8240 C.2   288  VAL288      0.2592
    184  O          7.7230  -18.9400   20.3850 O.2   288  VAL288     -0.2718
    185  CB         9.7610  -19.9300   22.8670 C.3   288  VAL288      0.0266
    186  CG1       10.8220  -20.7210   22.1060 C.3   288  VAL288      0.0020
    187  CG2       10.0770  -18.4520   22.8400 C.3   288  VAL288      0.0020
    188  N          8.4330  -21.0720   20.0700 N.am  289  LYS289     -0.1966
    189  CA         8.2350  -21.0940   18.6230 C.3   289  LYS289      0.1728
    190  C          6.8710  -20.5740   18.2360 C.2   289  LYS289      0.2617
    191  O          6.7580  -19.7270   17.3620 O.2   289  LYS289     -0.2715
    192  CB         8.4220  -22.5050   18.0710 C.3   289  LYS289      0.0311
    193  CG         9.6460  -23.2190   18.6180 C.3   289  LYS289      0.0038
    194  CD        10.2030  -24.2350   17.6350 C.3   289  LYS289      0.0206
    195  CE        11.6250  -23.8990   17.2190 C.3   289  LYS289      0.1093
    196  NZ        12.5730  -24.9800   17.5770 N.3   289  LYS289     -0.1314
    197  N          5.8470  -21.0890   18.9030 N.am  290  GLY290     -0.1940
    198  CA         4.4770  -20.6650   18.7030 C.3   290  GLY290      0.2014
    199  C          3.8550  -20.9370   20.0560 C.2   290  GLY290      0.2639
    200  O          3.8520  -22.0480   20.5500 O.2   290  GLY290     -0.2714
    201  N          3.3060  -19.9020   20.6570 N.am  291  ALA291     -0.1963
    202  CA         2.8040  -19.9990   22.0140 C.3   291  ALA291      0.1728
    203  C          1.3110  -20.2200   21.9020 C.2   291  ALA291      0.2617
    204  O          0.7050  -20.8220   22.7700 O.2   291  ALA291     -0.2715
    205  CB         3.0790  -18.7760   22.8640 C.3   291  ALA291      0.0334
    206  N          0.7100  -19.7310   20.8340 N.am  292  SER292     -0.1936
    207  CA        -0.7490  -19.8020   20.7350 C.3   292  SER292      0.2055
    208  C         -1.2570  -21.2040   20.3690 C.2   292  SER292      0.2642
    209  O         -2.2150  -21.6780   20.9850 O.2   292  SER292     -0.2714
    210  CB        -1.2660  -18.7750   19.7330 C.3   292  SER292      0.2130
    211  OG        -2.4380  -18.1250   20.1960 O.3   292  SER292     -0.2179
    212  N         -0.6290  -21.8580   19.3600 N.am  293  ILE293     -0.1977
    213  CA        -1.0400  -23.1910   18.8830 C.3   293  ILE293      0.1596
    214  C         -0.5040  -24.3780   19.6860 C.2   293  ILE293      0.2287
    215  O         -1.0070  -25.4900   19.5220 O.2   293  ILE293     -0.2864
    216  CB        -1.0310  -23.4030   17.3310 C.3   293  ILE293      0.0276
    217  CG1        0.3110  -23.9350   16.7200 C.3   293  ILE293      0.0022
    218  CG2       -1.6900  -22.2600   16.5530 C.3   293  ILE293      0.0022
    219  CD1        1.6280  -23.2020   17.0360 C.3   293  ILE293      0.0001
    220  N         -6.3920  -25.8830   24.7100 N.3   298  ARG298     -0.1245
    221  CA        -7.0720  -26.0180   23.4290 C.3   298  ARG298      0.1563
    222  C         -6.7870  -27.3540   22.7420 C.2   298  ARG298      0.2260
    223  O         -7.7010  -28.1620   22.5640 O.2   298  ARG298     -0.2867
    224  CB        -6.6560  -24.8460   22.5250 C.3   298  ARG298      0.0307
    225  CG        -7.8000  -24.1230   21.8510 C.3   298  ARG298      0.0489
    226  CD        -7.3250  -22.7750   21.3500 C.3   298  ARG298      0.2205
    227  NE        -7.9060  -21.6710   22.1170 N.pl3 298  ARG298     -0.0865
    228  CZ        -7.3840  -21.1540   23.2270 C.cat 298  ARG298      0.5346
    229  NH1       -6.2550  -21.6400   23.7290 N.pl3 298  ARG298      0.1354
    230  NH2       -7.9920  -20.1510   23.8470 N.pl3 298  ARG298      0.1354
@<TRIPOS>BOND
     1   107   106    1
     2    10    11    1
     3    11    12    1
     4    11    14    1
     5    84    83    1
     6    84    85    2
     7    13    12    2
     8    83    82    1
     9    83    86    1
    10   106   105    1
    11    16    14    1
    12    24    23    2
    13    12    17   am
    14    14    15    1
    15    87    86    1
    16   105   104    1
    17    80    79   ar
    18    88    89    1
    19    23    22    1
    20    23    25   am
    21    17    18    1
    22    22    21    1
    23    21    18    1
    24    79    81   ar
    25    79    78    1
    26    75    76    2
    27    75    74    1
    28    18    19    1
    29   103   104    1
    30   103   100    1
    31    77    78    1
    32    77    74    1
    33    99   100    1
    34    99    90   am
    35    89    92    1
    36    89    90    1
    37   101   100    1
    38   101   102    2
    39    74    73    1
    40    34    31    1
    41    92    93    1
    42    90    91    2
    43    19    26   am
    44    19    20    2
    45    26    27    1
    46    73    69   am
    47    31    30    1
    48    31    32    1
    49    30    28   am
    50    93    94    1
    51    97    96    1
    52    33    32    2
    53    94    95    1
    54    32    35   am
    55    27    28    1
    56    69    70    2
    57    69    68    1
    58   108   109    1
    59    28    29    2
    60    96    95    2
    61    96    98    1
    62   115   114   ar
    63    71    68    1
    64    71    72    1
    65    35    36    1
    66    68    67    1
    67   109   112    1
    68   109   110    1
    69   112   113    2
    70   114   116   ar
    71   114   113    1
    72   110   111    2
    73    36    39    1
    74    36    37    1
    75    39    40    1
    76    56    55    1
    77    56    57    1
    78    58    57    1
    79    37    38    2
    80    55    54    1
    81   218   216    1
    82    54    51    1
    83   217   219    1
    84   217   216    1
    85   195   196    1
    86   195   194    1
    87    51    50    1
    88    51    52    1
    89   216   213    1
    90   191   190    2
    91   194   193    1
    92    53    52    2
    93   192   193    1
    94   192   189    1
    95    52    59   am
    96    41    42    1
    97   190   189    1
    98   190   197   am
    99    46    47    1
   100    46    45    1
   101   189   188    1
   102     8     7   ar
   103    42    45    1
   104    42    43    1
   105   198   197    1
   106   198   199    1
   107    49    47   am
   108   213   212    1
   109   213   214    1
   110    47    48    2
   111     4     3    2
   112    59    60    1
   113   212   208   am
   114   215   214    2
   115    44    43    2
   116   210   211    1
   117   210   207    1
   118     7     9   ar
   119     7     6    1
   120     3     2    1
   121     2     5    1
   122     2     1    1
   123   199   200    2
   124   199   201   am
   125   188   183   am
   126    66    64   am
   127    60    61    1
   128    60    63    1
   129     5     6    1
   130   208   207    1
   131   208   209    2
   132   184   183    2
   133   201   202    1
   134   207   206    1
   135    64    65    2
   136    64    63    1
   137   183   182    1
   138   206   203   am
   139    61    62    2
   140   226   225    1
   141   226   227    1
   142   225   224    1
   143   203   202    1
   144   203   204    2
   145   202   205    1
   146   186   185    1
   147   227   228    2
   148   182   185    1
   149   182   181    1
   150   168   167   ar
   151   224   221    1
   152   142   144   ar
   153   142   141   ar
   154   223   222    2
   155   144   146   ar
   156   128   127    1
   157   222   221    1
   158   187   185    1
   159   125   127   ar
   160   125   123   ar
   161   180   178    1
   162   140   141    1
   163   140   137    1
   164   141   143   ar
   165   146   147    1
   166   146   145   ar
   167   228   229    1
   168   228   230    1
   169   167   169   ar
   170   167   166    1
   171   221   220    1
   172   127   126   ar
   173   179   178    1
   174   123   122   ar
   175   143   145   ar
   176   178   177    2
   177   139   138    2
   178   136   137    1
   179   136   131   am
   180   137   138    1
   181   155   154    2
   182   134   133    1
   183   153   154    1
   184   153   152    1
   185   154   156   am
   186   166   165    1
   187   126   124   ar
   188   152   149    1
   189   160   159    2
   190   122   124   ar
   191   122   121    1
   192   133   130    1
   193   133   135    1
   194   130   131    1
   195   130   129    1
   196   177   176    1
   197   131   132    2
   198   165   162    1
   199   121   118    1
   200   159   158    1
   201   149   148    1
   202   149   150    1
   203   176   175    1
   204   118   119    1
   205   118   117    1
   206   162   161    1
   207   162   163    1
   208   158   157    1
   209   120   119    2
   210   150   151    2
   211   174   175    1
   212   174   171    1
   213   163   164    2
   214   171   170    1
   215   171   172    1
   216   172   173    2
