@<TRIPOS>MOLECULE
tmp/5hlbA01.pdb
 169 159 0 0 0
SMALL
GASTEIGER

@<TRIPOS>ATOM
      1  N        -32.6810   -6.1500   53.6570 N.3   441  SER441     -0.1217
      2  CA       -33.2110   -6.0130   55.0170 C.3   441  SER441      0.1889
      3  C        -32.5390   -7.1230   55.8500 C.2   441  SER441      0.2288
      4  O        -32.6360   -8.3050   55.5050 O.2   441  SER441     -0.2866
      5  CB       -34.7320   -6.1730   55.0180 C.3   441  SER441      0.2089
      6  OG       -35.2780   -6.2790   56.3220 O.3   441  SER441     -0.2183
      7  N        -33.1620   -8.1900   58.7840 N.3   443  GLY443     -0.1210
      8  CA       -34.1260   -8.9380   59.5760 C.3   443  GLY443      0.1956
      9  C        -33.7330   -8.9660   61.0360 C.2   443  GLY443      0.2612
     10  O        -33.3470   -7.9380   61.5950 O.2   443  GLY443     -0.2717
     11  N        -33.7650  -10.1590   61.6440 N.am  444  SER444     -0.1952
     12  CA       -33.4380  -10.3690   63.0580 C.3   444  SER444      0.1924
     13  C        -31.9520  -10.1860   63.4330 C.2   444  SER444      0.2314
     14  O        -31.6310  -10.2090   64.6120 O.2   444  SER444     -0.2863
     15  CB       -34.0170  -11.6880   63.5700 C.3   444  SER444      0.2116
     16  OG       -35.4320  -11.7450   63.4480 O.3   444  SER444     -0.2180
     17  N        -31.4850   -7.4090   65.9040 N.3   447  LYS447     -0.1245
     18  CA       -31.8110   -7.6780   67.3000 C.3   447  LYS447      0.1561
     19  C        -30.6700   -7.4280   68.3110 C.2   447  LYS447      0.2260
     20  O        -30.9460   -6.7360   69.2930 O.2   447  LYS447     -0.2867
     21  CB       -32.4520   -9.0610   67.4790 C.3   447  LYS447      0.0271
     22  CG       -33.8910   -9.1380   66.9720 C.3   447  LYS447      0.0035
     23  CD       -34.7120  -10.1920   67.7260 C.3   447  LYS447      0.0206
     24  CE       -36.1680  -10.2020   67.3220 C.3   447  LYS447      0.1093
     25  NZ       -36.3820  -10.9060   66.0330 N.3   447  LYS447     -0.1314
     26  N        -46.0460   -8.9390   65.5520 N.3   485  GLN485     -0.1231
     27  CA       -46.3310  -10.2560   66.0940 C.3   485  GLN485      0.1698
     28  C        -45.0740  -11.0970   66.1900 C.2   485  GLN485      0.2592
     29  O        -44.1080  -10.8580   65.4610 O.2   485  GLN485     -0.2718
     30  CB       -47.3830  -10.9790   65.2250 C.3   485  GLN485      0.0381
     31  CG       -48.8330  -10.5910   65.5210 C.3   485  GLN485      0.0905
     32  CD       -49.4240  -11.2410   66.7570 C.2   485  GLN485      0.2608
     33  OE1      -48.8070  -12.0780   67.4300 O.2   485  GLN485     -0.2717
     34  NE2      -50.6570  -10.8790   67.0770 N.am  485  GLN485     -0.0878
     35  N        -45.0880  -12.0880   67.0990 N.am  486  ASN486     -0.1960
     36  CA       -44.0010  -13.0500   67.2460 C.3   486  ASN486      0.1819
     37  C        -44.1960  -14.0360   66.0990 C.2   486  ASN486      0.2621
     38  O        -45.3390  -14.2500   65.7000 O.2   486  ASN486     -0.2715
     39  CB       -44.0940  -13.7760   68.5950 C.3   486  ASN486      0.1195
     40  CG       -43.8080  -12.9170   69.8050 C.2   486  ASN486      0.2630
     41  OD1      -42.7730  -12.2340   69.8950 O.2   486  ASN486     -0.2716
     42  ND2      -44.6930  -12.9860   70.7970 N.am  486  ASN486     -0.0877
     43  N        -43.1040  -14.6000   65.5430 N.am  487  ASP487     -0.1971
     44  CA       -43.1120  -15.5590   64.4210 C.3   487  ASP487      0.1709
     45  C        -44.2020  -16.6450   64.4790 C.2   487  ASP487      0.2293
     46  O        -44.7100  -17.0450   63.4290 O.2   487  ASP487     -0.2864
     47  CB       -41.7220  -16.2020   64.2490 C.3   487  ASP487      0.1436
     48  CG       -41.2410  -17.0480   65.4120 C.2   487  ASP487      0.3671
     49  OD1      -40.4050  -17.9420   65.1810 O.co2 487  ASP487     -0.2456
     50  OD2      -41.6960  -16.8120   66.5530 O.co2 487  ASP487     -0.2456
     51  N        -47.1310  -16.2210   66.3640 N.3   489  ARG489     -0.1245
     52  CA       -48.3540  -15.4610   66.7050 C.3   489  ARG489      0.1563
     53  C        -48.8730  -15.7600   68.1260 C.2   489  ARG489      0.2260
     54  O        -50.0390  -15.5020   68.4400 O.2   489  ARG489     -0.2867
     55  CB       -49.4530  -15.5610   65.6210 C.3   489  ARG489      0.0307
     56  CG       -49.2510  -14.5970   64.4590 C.3   489  ARG489      0.0489
     57  CD       -48.6300  -15.2440   63.2340 C.3   489  ARG489      0.2205
     58  NE       -49.5700  -16.1210   62.5300 N.pl3 489  ARG489     -0.0865
     59  CZ       -49.9590  -15.9640   61.2660 C.cat 489  ARG489      0.5346
     60  NH1      -49.4910  -14.9520   60.5420 N.pl3 489  ARG489      0.1354
     61  NH2      -50.8080  -16.8180   60.7140 N.pl3 489  ARG489      0.1354
     62  N        -35.0530  -15.0200   69.5970 N.3   506  SER506     -0.1217
     63  CA       -35.3190  -13.9580   68.6210 C.3   506  SER506      0.1889
     64  C        -36.8090  -13.4920   68.6520 C.2   506  SER506      0.2288
     65  O        -37.4490  -13.3370   67.6070 O.2   506  SER506     -0.2866
     66  CB       -34.8860  -14.4030   67.2270 C.3   506  SER506      0.2089
     67  OG       -34.7100  -13.2850   66.3790 O.3   506  SER506     -0.2183
     68  N        -39.9190  -11.1360   68.7480 N.3   508  ASN508     -0.1240
     69  CA       -40.2070   -9.8100   68.1660 C.3   508  ASN508      0.1653
     70  C        -40.8700   -8.8160   69.1390 C.2   508  ASN508      0.2266
     71  O        -40.3350   -7.7250   69.3570 O.2   508  ASN508     -0.2867
     72  CB       -40.9830   -9.9320   66.8300 C.3   508  ASN508      0.1155
     73  CG       -40.3120  -10.7660   65.7550 C.2   508  ASN508      0.2627
     74  OD1      -39.1220  -11.0880   65.8190 O.2   508  ASN508     -0.2716
     75  ND2      -41.0650  -11.1130   64.7230 N.am  508  ASN508     -0.0877
     76  N        -36.6810   -4.3810   64.4970 N.3   545  LEU545     -0.1231
     77  CA       -36.9330   -5.7110   63.9470 C.3   545  LEU545      0.1693
     78  C        -36.3460   -5.9830   62.5560 C.2   545  LEU545      0.2593
     79  O        -36.5380   -7.0790   62.0330 O.2   545  LEU545     -0.2718
     80  CB       -38.4310   -6.0750   63.9900 C.3   545  LEU545      0.0284
     81  CG       -39.1570   -6.0390   65.3450 C.3   545  LEU545      0.0019
     82  CD1      -40.6000   -6.4620   65.1860 C.3   545  LEU545      0.0001
     83  CD2      -38.4560   -6.8890   66.4040 C.3   545  LEU545      0.0001
     84  N        -35.6100   -5.0360   61.9800 N.am  546  GLY546     -0.1942
     85  CA       -34.9660   -5.2950   60.6960 C.3   546  GLY546      0.2014
     86  C        -35.2380   -4.3780   59.5270 C.2   546  GLY546      0.2638
     87  O        -34.8110   -4.6800   58.4080 O.2   546  GLY546     -0.2714
     88  N        -35.9030   -3.2390   59.7630 N.am  547  ALA547     -0.1977
     89  CA       -36.1200   -2.2850   58.6820 C.3   547  ALA547      0.1597
     90  C        -34.8380   -1.4530   58.5750 C.2   547  ALA547      0.2287
     91  O        -34.7680   -0.3050   59.0270 O.2   547  ALA547     -0.2864
     92  CB       -37.3320   -1.4200   58.9630 C.3   547  ALA547      0.0319
     93  N        -32.7760  -20.2590   68.3170 N.3   616  THR616     -0.1218
     94  CA       -32.9740  -20.2770   66.8580 C.3   616  THR616      0.1862
     95  C        -31.9290  -21.0470   66.0180 C.2   616  THR616      0.2287
     96  O        -32.3050  -21.6690   65.0220 O.2   616  THR616     -0.2866
     97  CB       -33.2250  -18.8620   66.3270 C.3   616  THR616      0.1770
     98  OG1      -32.0690  -18.0550   66.5480 O.3   616  THR616     -0.2211
     99  CG2      -34.4580  -18.2050   66.9410 C.3   616  THR616      0.0375
    100  N        -29.6160  -15.4840   63.8730 N.3   633  THR633     -0.1203
    101  CA       -30.3970  -15.8880   62.7020 C.3   633  THR633      0.1994
    102  C        -31.1670  -14.7310   62.0690 C.2   633  THR633      0.2618
    103  O        -31.3820  -13.6950   62.7010 O.2   633  THR633     -0.2717
    104  CB       -31.3670  -16.9990   63.1190 C.3   633  THR633      0.1784
    105  OG1      -32.0120  -16.5790   64.3170 O.3   633  THR633     -0.2211
    106  CG2      -30.6660  -18.3240   63.3780 C.3   633  THR633      0.0376
    107  N        -31.5940  -14.9360   60.8290 N.am  634  GLY634     -0.1942
    108  CA       -32.3680  -13.9540   60.0890 C.3   634  GLY634      0.2014
    109  C        -33.1770  -14.5690   58.9730 C.2   634  GLY634      0.2640
    110  O        -32.6550  -15.3450   58.1730 O.2   634  GLY634     -0.2714
    111  N        -34.4760  -14.2760   58.9660 N.am  635  THR635     -0.1936
    112  CA       -35.4250  -14.6640   57.9250 C.3   635  THR635      0.2028
    113  C        -36.3350  -13.4720   57.7440 C.2   635  THR635      0.2643
    114  O        -37.0320  -13.0890   58.6870 O.2   635  THR635     -0.2714
    115  CB       -36.2330  -15.9200   58.2630 C.3   635  THR635      0.1808
    116  OG1      -35.3840  -16.9030   58.8530 O.3   635  THR635     -0.2208
    117  CG2      -36.9240  -16.4940   57.0340 C.3   635  THR635      0.0379
    118  N        -36.2930  -12.8500   56.5650 N.am  636  THR636     -0.1936
    119  CA       -37.1540  -11.7050   56.2930 C.3   636  THR636      0.2028
    120  C        -38.5520  -12.1870   55.9260 C.2   636  THR636      0.2642
    121  O        -38.7420  -13.3730   55.6380 O.2   636  THR636     -0.2714
    122  CB       -36.5570  -10.7800   55.2270 C.3   636  THR636      0.1808
    123  OG1      -36.3110  -11.5360   54.0440 O.3   636  THR636     -0.2208
    124  CG2      -35.2960  -10.0880   55.6950 C.3   636  THR636      0.0379
    125  N        -39.5320  -11.2750   55.9700 N.am  637  ASN637     -0.1957
    126  CA       -40.9200  -11.5380   55.6210 C.3   637  ASN637      0.1819
    127  C        -40.9680  -12.0350   54.1750 C.2   637  ASN637      0.2621
    128  O        -40.2490  -11.5040   53.3210 O.2   637  ASN637     -0.2715
    129  CB       -41.7380  -10.2520   55.7780 C.3   637  ASN637      0.1195
    130  CG       -43.0670  -10.2810   55.0700 C.2   637  ASN637      0.2630
    131  OD1      -43.1990   -9.8190   53.9280 O.2   637  ASN637     -0.2716
    132  ND2      -44.0580  -10.8810   55.7060 N.am  637  ASN637     -0.0877
    133  N        -41.8090  -13.0560   53.9170 N.am  638  ASN638     -0.1958
    134  CA       -42.0280  -13.6930   52.6120 C.3   638  ASN638      0.1819
    135  C        -40.7960  -14.4330   52.0580 C.2   638  ASN638      0.2621
    136  O        -40.6410  -14.5590   50.8400 O.2   638  ASN638     -0.2715
    137  CB       -42.6440  -12.7090   51.5910 C.3   638  ASN638      0.1195
    138  CG       -43.4570  -13.3450   50.4790 C.2   638  ASN638      0.2630
    139  OD1      -43.6830  -14.5590   50.4780 O.2   638  ASN638     -0.2716
    140  ND2      -43.9280  -12.5570   49.5130 N.am  638  ASN638     -0.0877
    141  N        -39.9470  -14.9550   52.9690 N.am  639  ASN639     -0.1972
    142  CA       -38.7270  -15.7170   52.6850 C.3   639  ASN639      0.1688
    143  C        -37.9020  -15.1230   51.5390 C.2   639  ASN639      0.2292
    144  O        -37.4960  -15.8210   50.6100 O.2   639  ASN639     -0.2864
    145  CB       -39.0260  -17.2140   52.4950 C.3   639  ASN639      0.1181
    146  CG       -39.9960  -17.7870   53.5000 C.2   639  ASN639      0.2629
    147  OD1      -41.1490  -18.0740   53.1750 O.2   639  ASN639     -0.2716
    148  ND2      -39.5540  -17.9700   54.7370 N.am  639  ASN639     -0.0877
    149  N        -36.9110  -20.7450   55.8920 N.3   668  TYR668     -0.1227
    150  CA       -37.1450  -20.0710   57.1790 C.3   668  TYR668      0.1736
    151  C        -36.2370  -20.6830   58.2750 C.2   668  TYR668      0.2596
    152  O        -35.8310  -21.8420   58.1680 O.2   668  TYR668     -0.2718
    153  CB       -38.6470  -20.1630   57.5710 C.3   668  TYR668      0.0548
    154  CG       -38.9270  -20.0340   59.0550 C.ar  668  TYR668     -0.0200
    155  CD1      -39.1830  -18.7930   59.6310 C.ar  668  TYR668     -0.0009
    156  CD2      -38.8890  -21.1480   59.8940 C.ar  668  TYR668     -0.0009
    157  CE1      -39.4000  -18.6640   61.0040 C.ar  668  TYR668      0.0417
    158  CE2      -39.0610  -21.0240   61.2700 C.ar  668  TYR668      0.0417
    159  CZ       -39.3400  -19.7840   61.8190 C.ar  668  TYR668      0.1957
    160  OH       -39.5550  -19.6740   63.1730 O.3   668  TYR668     -0.2866
    161  N        -35.9960  -19.9150   59.3420 N.am  669  GLY669     -0.1942
    162  CA       -35.1530  -20.3160   60.4640 C.3   669  GLY669      0.2014
    163  C        -33.7020  -20.2320   60.0550 C.2   669  GLY669      0.2638
    164  O        -32.8750  -21.0310   60.5050 O.2   669  GLY669     -0.2714
    165  N        -33.4150  -19.2790   59.1260 N.am  670  ALA670     -0.1977
    166  CA       -32.1260  -19.0160   58.4820 C.3   670  ALA670      0.1597
    167  C        -31.5420  -20.2930   57.8350 C.2   670  ALA670      0.2287
    168  O        -30.3340  -20.3770   57.6510 O.2   670  ALA670     -0.2864
    169  CB       -31.1470  -18.3980   59.4760 C.3   670  ALA670      0.0319
@<TRIPOS>BOND
     1   140   138   am
     2   139   138    2
     3   138   137    1
     4   144   143    2
     5   136   135    2
     6   143   142    1
     7   137   134    1
     8   135   134    1
     9   135   141   am
    10   145   142    1
    11   145   146    1
    12   134   133    1
    13   142   141    1
    14   147   146    2
    15   128   127    2
    16   146   148   am
    17     1     2    1
    18   133   127   am
    19   131   130    2
    20   123   122    1
    21   127   126    1
    22     2     5    1
    23     2     3    1
    24     5     6    1
    25   130   132   am
    26   130   129    1
    27   122   124    1
    28   122   119    1
    29     4     3    2
    30   126   129    1
    31   126   125    1
    32   121   120    2
    33   149   150    1
    34   120   125   am
    35   120   119    1
    36   119   118    1
    37   118   113   am
    38   117   115    1
    39   150   153    1
    40   150   151    1
    41   153   154    1
    42   168   167    2
    43   113   112    1
    44   113   114    2
    45   167   166    1
    46   112   115    1
    47   112   111    1
    48   152   151    2
    49   110   109    2
    50   115   116    1
    51   151   161   am
    52    87    86    2
    53   166   165    1
    54   166   169    1
    55    90    89    1
    56    90    91    2
    57    89    92    1
    58    89    88    1
    59     7     8    1
    60   111   109   am
    61   109   108    1
    62   154   155   ar
    63   154   156   ar
    64   165   163   am
    65   161   162    1
    66    86    88   am
    67    86    85    1
    68     8     9    1
    69   155   157   ar
    70   156   158   ar
    71   163   162    1
    72   163   164    2
    73   108   107    1
    74    60    59    1
    75    85    84    1
    76    61    59    1
    77   107   102   am
    78   157   159   ar
    79     9    10    2
    80     9    11   am
    81    59    58    2
    82   158   159   ar
    83    11    12    1
    84   159   160    1
    85    84    78   am
    86    79    78    2
    87   102   103    2
    88   102   101    1
    89    58    57    1
    90    78    77    1
    91   101   104    1
    92   101   100    1
    93    12    13    1
    94    12    15    1
    95   104   106    1
    96   104   105    1
    97    57    56    1
    98    46    45    2
    99    13    14    2
   100    16    15    1
   101    77    80    1
   102    77    76    1
   103    80    81    1
   104    47    44    1
   105    47    48    1
   106    44    45    1
   107    44    43    1
   108    56    55    1
   109    75    73   am
   110    96    95    2
   111    49    48   ar
   112    82    81    1
   113    30    31    1
   114    30    27    1
   115    81    83    1
   116    48    50   ar
   117    29    28    2
   118    31    32    1
   119    43    37   am
   120    26    27    1
   121    55    52    1
   122    38    37    2
   123    73    74    2
   124    73    72    1
   125    17    18    1
   126    95    94    1
   127    25    24    1
   128    27    28    1
   129    37    36    1
   130    28    35   am
   131    97    98    1
   132    97    94    1
   133    97    99    1
   134    51    52    1
   135    67    66    1
   136    52    53    1
   137    32    34   am
   138    32    33    2
   139    72    69    1
   140    94    93    1
   141    22    21    1
   142    22    23    1
   143    35    36    1
   144    66    63    1
   145    36    39    1
   146    18    21    1
   147    18    19    1
   148    24    23    1
   149    65    64    2
   150    53    54    2
   151    69    68    1
   152    69    70    1
   153    19    20    2
   154    39    40    1
   155    63    64    1
   156    63    62    1
   157    70    71    2
   158    40    41    2
   159    40    42   am
