@<TRIPOS>MOLECULE
tmp/5hldA01.pdb
 128 119 0 0 0
SMALL
GASTEIGER

@<TRIPOS>ATOM
      1  N         48.8410    8.6860   18.7530 N.3   161  GLU161     -0.1245
      2  CA        49.2570   10.0900   18.5720 C.3   161  GLU161      0.1567
      3  C         50.3920   10.4490   19.5220 C.2   161  GLU161      0.2260
      4  O         51.4460    9.8190   19.4770 O.2   161  GLU161     -0.2867
      5  CB        48.1000   11.0990   18.6930 C.3   161  GLU161      0.0388
      6  CG        47.1810   11.1380   17.4860 C.3   161  GLU161      0.1160
      7  CD        45.7130   11.2920   17.8320 C.2   161  GLU161      0.3649
      8  OE1       44.9300   10.3740   17.5020 O.co2 161  GLU161     -0.2457
      9  OE2       45.3490   12.3090   18.4650 O.co2 161  GLU161     -0.2457
     10  N         47.5170   18.4120   17.5310 N.3   164  GLN164     -0.1245
     11  CA        46.1000   18.4970   17.8830 C.3   164  GLN164      0.1566
     12  C         45.7820   19.7150   18.7590 C.2   164  GLN164      0.2260
     13  O         44.7810   20.4000   18.5450 O.2   164  GLN164     -0.2867
     14  CB        45.6450   17.2160   18.5840 C.3   164  GLN164      0.0367
     15  CG        45.0470   16.1760   17.6500 C.3   164  GLN164      0.0905
     16  CD        46.1040   15.3320   16.9660 C.2   164  GLN164      0.2608
     17  OE1       47.0850   15.8520   16.4360 O.2   164  GLN164     -0.2717
     18  NE2       45.9090   14.0180   16.9750 N.am  164  GLN164     -0.0878
     19  N         44.8640   22.9680   17.0110 N.3   167  LYS167     -0.1231
     20  CA        43.6720   22.7330   16.1900 C.3   167  LYS167      0.1693
     21  C         42.3820   23.0260   16.9680 C.2   167  LYS167      0.2592
     22  O         41.5260   23.7620   16.4730 O.2   167  LYS167     -0.2718
     23  CB        43.6780   21.2940   15.6350 C.3   167  LYS167      0.0285
     24  CG        42.6220   21.0280   14.5610 C.3   167  LYS167      0.0035
     25  CD        42.7180   19.6190   13.9770 C.3   167  LYS167      0.0206
     26  CE        41.9370   18.5870   14.7560 C.3   167  LYS167      0.1093
     27  NZ        41.7330   17.3460   13.9670 N.3   167  LYS167     -0.1314
     28  N         42.2660   22.4670   18.1900 N.am  168  ASN168     -0.1974
     29  CA        41.1170   22.6400   19.0830 C.3   168  ASN168      0.1688
     30  C         41.1810   23.9610   19.8680 C.2   168  ASN168      0.2292
     31  O         40.1600   24.3950   20.4080 O.2   168  ASN168     -0.2864
     32  CB        41.0200   21.4620   20.0610 C.3   168  ASN168      0.1181
     33  CG        40.7710   20.1260   19.4110 C.2   168  ASN168      0.2629
     34  OD1       39.6290   19.7220   19.1800 O.2   168  ASN168     -0.2716
     35  ND2       41.8410   19.3990   19.1290 N.am  168  ASN168     -0.0877
     36  N         45.8450   23.2400    7.4700 N.3   173  LYS173     -0.1245
     37  CA        46.8500   22.2380    7.8190 C.3   173  LYS173      0.1561
     38  C         48.2300   22.8690    8.0550 C.2   173  LYS173      0.2260
     39  O         48.8880   22.5430    9.0410 O.2   173  LYS173     -0.2867
     40  CB        46.9240   21.1420    6.7360 C.3   173  LYS173      0.0271
     41  CG        47.8680   19.9870    7.0730 C.3   173  LYS173      0.0035
     42  CD        48.5510   19.4440    5.8280 C.3   173  LYS173      0.0206
     43  CE        49.7510   18.5900    6.1600 C.3   173  LYS173      0.1093
     44  NZ        50.4220   18.0870    4.9320 N.3   173  LYS173     -0.1314
     45  N         48.4780   25.2860   11.4600 N.3   176  GLU176     -0.1245
     46  CA        48.6540   24.5710   12.7310 C.3   176  GLU176      0.1567
     47  C         50.0460   23.9700   12.8700 C.2   176  GLU176      0.2260
     48  O         50.5880   23.9710   13.9720 O.2   176  GLU176     -0.2867
     49  CB        47.5650   23.5080   12.9780 C.3   176  GLU176      0.0388
     50  CG        47.4290   22.4330   11.9090 C.3   176  GLU176      0.1160
     51  CD        46.7550   21.1410   12.3310 C.2   176  GLU176      0.3649
     52  OE1       45.9700   20.5940   11.5230 O.co2 176  GLU176     -0.2457
     53  OE2       47.0380   20.6500   13.4480 O.co2 176  GLU176     -0.2457
     54  N         46.5960   19.5600   26.5160 N.3   196  TYR196     -0.1241
     55  CA        45.9370   18.5810   25.6390 C.3   196  TYR196      0.1605
     56  C         44.9060   17.7360   26.3900 C.2   196  TYR196      0.2264
     57  O         43.8160   17.5020   25.8690 O.2   196  TYR196     -0.2867
     58  CB        46.9810   17.6670   24.9520 C.3   196  TYR196      0.0534
     59  CG        46.3820   16.5720   24.0930 C.ar  196  TYR196     -0.0201
     60  CD1       46.1810   16.7590   22.7290 C.ar  196  TYR196     -0.0009
     61  CD2       46.0300   15.3410   24.6410 C.ar  196  TYR196     -0.0009
     62  CE1       45.6310   15.7520   21.9340 C.ar  196  TYR196      0.0417
     63  CE2       45.4480   14.3430   23.8630 C.ar  196  TYR196      0.0417
     64  CZ        45.2720   14.5420   22.5050 C.ar  196  TYR196      0.1957
     65  OH        44.7080   13.5520   21.7350 O.3   196  TYR196     -0.2866
     66  N         40.7370   18.2790   24.6780 N.3   200  VAL200     -0.1231
     67  CA        40.0950   17.2550   23.8380 C.3   200  VAL200      0.1692
     68  C         38.6090   16.9780   24.0980 C.2   200  VAL200      0.2592
     69  O         38.2210   16.7530   25.2400 O.2   200  VAL200     -0.2718
     70  CB        40.9260   15.9470   23.7430 C.3   200  VAL200      0.0266
     71  CG1       42.2140   16.1780   22.9680 C.3   200  VAL200      0.0020
     72  CG2       41.2170   15.3490   25.1200 C.3   200  VAL200      0.0020
     73  N         37.7890   16.9720   23.0220 N.am  201  TYR201     -0.1976
     74  CA        36.3500   16.7000   23.0870 C.3   201  TYR201      0.1639
     75  C         36.1080   15.2120   23.3660 C.2   201  TYR201      0.2290
     76  O         36.6440   14.3600   22.6520 O.2   201  TYR201     -0.2864
     77  CB        35.6470   17.1490   21.7890 C.3   201  TYR201      0.0560
     78  CG        34.1480   16.9460   21.7980 C.ar  201  TYR201     -0.0198
     79  CD1       33.5730   15.8250   21.2050 C.ar  201  TYR201     -0.0009
     80  CD2       33.3010   17.8730   22.3970 C.ar  201  TYR201     -0.0009
     81  CE1       32.1950   15.6230   21.2250 C.ar  201  TYR201      0.0417
     82  CE2       31.9200   17.6890   22.4110 C.ar  201  TYR201      0.0417
     83  CZ        31.3720   16.5590   21.8260 C.ar  201  TYR201      0.1957
     84  OH        30.0130   16.3650   21.8350 O.3   201  TYR201     -0.2866
     85  N         28.9930   14.7820   25.3070 N.3   204  GLN204     -0.1245
     86  CA        27.9250   15.7690   25.1480 C.3   204  GLN204      0.1566
     87  C         26.8270   15.6150   26.2100 C.2   204  GLN204      0.2260
     88  O         26.2150   14.5490   26.3270 O.2   204  GLN204     -0.2867
     89  CB        27.3400   15.7080   23.7210 C.3   204  GLN204      0.0367
     90  CG        26.5040   16.9260   23.3090 C.3   204  GLN204      0.0905
     91  CD        27.2370   18.2500   23.3800 C.2   204  GLN204      0.2608
     92  OE1       26.7510   19.2110   23.9740 O.2   204  GLN204     -0.2717
     93  NE2       28.4120   18.3440   22.7720 N.am  204  GLN204     -0.0878
     94  N         29.2590   20.9230   25.8040 N.3   209  GLU209     -0.1245
     95  CA        30.4230   20.1090   25.4400 C.3   209  GLU209      0.1567
     96  C         31.1790   19.5980   26.6630 C.2   209  GLU209      0.2260
     97  O         31.5800   20.3960   27.5100 O.2   209  GLU209     -0.2867
     98  CB        31.3870   20.9050   24.5410 C.3   209  GLU209      0.0388
     99  CG        30.8970   21.1470   23.1230 C.3   209  GLU209      0.1160
    100  CD        31.9700   21.5900   22.1440 C.2   209  GLU209      0.3649
    101  OE1       31.9380   21.1190   20.9840 O.co2 209  GLU209     -0.2457
    102  OE2       32.8460   22.3970   22.5320 O.co2 209  GLU209     -0.2457
    103  N         34.4700   18.2730   27.5720 N.3   211  ARG211     -0.1245
    104  CA        35.8390   18.1820   27.0750 C.3   211  ARG211      0.1563
    105  C         36.9240   18.1280   28.1400 C.2   211  ARG211      0.2260
    106  O         36.8330   18.8040   29.1650 O.2   211  ARG211     -0.2867
    107  CB        36.1290   19.2070   25.9630 C.3   211  ARG211      0.0307
    108  CG        35.8330   20.6690   26.2960 C.3   211  ARG211      0.0489
    109  CD        35.5850   21.4870   25.0350 C.3   211  ARG211      0.2205
    110  NE        36.6880   21.3840   24.0730 N.pl3 211  ARG211     -0.0865
    111  CZ        36.5400   21.0670   22.7910 C.cat 211  ARG211      0.5346
    112  NH1       35.3310   20.8430   22.2890 N.pl3 211  ARG211      0.1354
    113  NH2       37.5980   20.9830   21.9960 N.pl3 211  ARG211      0.1354
    114  N         38.0070    7.4880   22.3230 N.3   239  MET239     -0.1230
    115  CA        36.9370    8.4190   21.9440 C.3   239  MET239      0.1702
    116  C         37.4510    9.6740   21.2140 C.2   239  MET239      0.2592
    117  O         36.6630   10.3480   20.5460 O.2   239  MET239     -0.2718
    118  CB        36.0940    8.8130   23.1710 C.3   239  MET239      0.0401
    119  CG        35.1130    7.7440   23.6170 C.3   239  MET239      0.0596
    120  SD        33.9620    8.3220   24.8950 S.3   239  MET239     -0.1393
    121  CE        35.0320    8.3250   26.3320 C.3   239  MET239      0.0692
    122  N         38.7650    9.9760   21.3380 N.am  240  VAL240     -0.1980
    123  CA        39.4290   11.1310   20.7250 C.3   240  VAL240      0.1595
    124  C         39.4330   11.0760   19.1880 C.2   240  VAL240      0.2287
    125  O         38.5360   11.6180   18.5450 O.2   240  VAL240     -0.2864
    126  CB        40.8370   11.3730   21.3400 C.3   240  VAL240      0.0276
    127  CG1       41.9570   10.7740   20.4900 C.3   240  VAL240      0.0022
    128  CG2       41.0770   12.8520   21.5840 C.3   240  VAL240      0.0022
@<TRIPOS>BOND
     1    44    43    1
     2    42    43    1
     3    42    41    1
     4    40    41    1
     5    40    37    1
     6    36    37    1
     7    37    38    1
     8    38    39    2
     9    45    46    1
    10    52    51   ar
    11    50    51    1
    12    50    49    1
    13    51    53   ar
    14    46    47    1
    15    46    49    1
    16    47    48    2
    17    27    26    1
    18    25    24    1
    19    25    26    1
    20    24    23    1
    21    23    20    1
    22    20    21    1
    23    20    19    1
    24    17    16    2
    25    22    21    2
    26    16    18   am
    27    16    15    1
    28    21    28   am
    29     6     7    1
    30     6     5    1
    31     8     7   ar
    32    10    11    1
    33    15    14    1
    34     7     9   ar
    35    11    14    1
    36    11    12    1
    37    28    29    1
    38   125   124    2
    39    13    12    2
    40     2     5    1
    41     2     1    1
    42     2     3    1
    43    29    30    1
    44    29    32    1
    45    35    33   am
    46    34    33    2
    47   124   123    1
    48    33    32    1
    49     4     3    2
    50    30    31    2
    51   127   126    1
    52   117   116    2
    53   123   122    1
    54   123   126    1
    55   101   100   ar
    56    79    81   ar
    57    79    78   ar
    58   116   122   am
    59   116   115    1
    60    81    83   ar
    61   126   128    1
    62    65    64    1
    63    77    78    1
    64    77    74    1
    65    78    80   ar
    66    83    84    1
    67    83    82   ar
    68    62    64   ar
    69    62    60   ar
    70   115   114    1
    71   115   118    1
    72   113   111    1
    73   100   102   ar
    74   100    99    1
    75   112   111    1
    76    80    82   ar
    77    64    63   ar
    78    76    75    2
    79    60    59   ar
    80    93    91   am
    81   111   110    2
    82    71    70    1
    83    73    74    1
    84    73    68   am
    85    74    75    1
    86    99    98    1
    87   118   119    1
    88    90    91    1
    89    90    89    1
    90    91    92    2
    91   119   120    1
    92    89    86    1
    93    70    67    1
    94    70    72    1
    95    67    68    1
    96    67    66    1
    97    63    61   ar
    98   110   109    1
    99    59    61   ar
   100    59    58    1
   101    68    69    2
   102    98    95    1
   103   120   121    1
   104    58    55    1
   105   109   108    1
   106    86    85    1
   107    86    87    1
   108    95    94    1
   109    95    96    1
   110    55    56    1
   111    55    54    1
   112    57    56    2
   113   107   108    1
   114   107   104    1
   115    87    88    2
   116    96    97    2
   117   104   103    1
   118   104   105    1
   119   105   106    2
