@<TRIPOS>MOLECULE
tmp/5hldA00.pdb
 150 141 0 0 0
SMALL
GASTEIGER

@<TRIPOS>ATOM
      1  N         -2.0310   22.9520   57.3840 N.3   360  GLY360     -0.1210
      2  CA        -2.9500   22.1850   58.2160 C.3   360  GLY360      0.1956
      3  C         -2.5150   22.1240   59.6620 C.2   360  GLY360      0.2612
      4  O         -2.0920   23.1330   60.2300 O.2   360  GLY360     -0.2717
      5  N         -2.5760   20.9220   60.2470 N.am  361  SER361     -0.1952
      6  CA        -2.2300   20.6450   61.6470 C.3   361  SER361      0.1924
      7  C         -0.7710   20.8780   62.0370 C.2   361  SER361      0.2314
      8  O         -0.4490   20.8750   63.2230 O.2   361  SER361     -0.2863
      9  CB        -2.7140   19.2610   62.0610 C.3   361  SER361      0.2116
     10  OG        -4.1300   19.2180   61.9730 O.3   361  SER361     -0.2180
     11  N         -0.3950   23.7610   64.4360 N.3   364  LYS364     -0.1245
     12  CA        -0.6750   23.5180   65.8490 C.3   364  LYS364      0.1561
     13  C          0.5270   23.7600   66.8010 C.2   364  LYS364      0.2260
     14  O          0.3170   24.5430   67.7240 O.2   364  LYS364     -0.2867
     15  CB        -1.3430   22.1410   66.0990 C.3   364  LYS364      0.0271
     16  CG        -2.7580   21.9910   65.5320 C.3   364  LYS364      0.0035
     17  CD        -3.5340   20.9200   66.3070 C.3   364  LYS364      0.0206
     18  CE        -4.9700   20.7790   65.8640 C.3   364  LYS364      0.1093
     19  NZ        -5.1090   19.9690   64.6250 N.3   364  LYS364     -0.1314
     20  N        -14.8030   22.2010   63.9770 N.3   402  GLN402     -0.1231
     21  CA       -15.0580   20.8940   64.5550 C.3   402  GLN402      0.1698
     22  C        -13.7850   20.0830   64.6060 C.2   402  GLN402      0.2592
     23  O        -12.8630   20.3090   63.8200 O.2   402  GLN402     -0.2718
     24  CB       -16.0810   20.1390   63.6790 C.3   402  GLN402      0.0381
     25  CG       -17.4990   20.7160   63.6840 C.3   402  GLN402      0.0905
     26  CD       -18.2880   20.3610   64.9210 C.2   402  GLN402      0.2608
     27  OE1      -18.1720   19.2610   65.4830 O.2   402  GLN402     -0.2717
     28  NE2      -19.1340   21.2830   65.3570 N.am  402  GLN402     -0.0878
     29  N        -13.7590   19.0910   65.5000 N.am  403  ASN403     -0.1960
     30  CA       -12.6710   18.1320   65.5660 C.3   403  ASN403      0.1819
     31  C        -12.9640   17.1620   64.4020 C.2   403  ASN403      0.2621
     32  O        -14.0950   17.1520   63.9070 O.2   403  ASN403     -0.2715
     33  CB       -12.6750   17.4190   66.9230 C.3   403  ASN403      0.1195
     34  CG       -12.3330   18.3190   68.0940 C.2   403  ASN403      0.2630
     35  OD1      -11.3430   19.0620   68.0820 O.2   403  ASN403     -0.2716
     36  ND2      -13.1220   18.2370   69.1570 N.am  403  ASN403     -0.0877
     37  N        -11.9640   16.3880   63.9370 N.am  404  ASP404     -0.1971
     38  CA       -12.1400   15.4560   62.8100 C.3   404  ASP404      0.1709
     39  C        -13.2780   14.4450   62.9700 C.2   404  ASP404      0.2293
     40  O        -13.9480   14.1260   61.9900 O.2   404  ASP404     -0.2864
     41  CB       -10.8340   14.7350   62.4720 C.3   404  ASP404      0.1436
     42  CG       -10.3680   13.7210   63.4880 C.2   404  ASP404      0.3671
     43  OD1       -9.9850   12.6100   63.0750 O.co2 404  ASP404     -0.2456
     44  OD2      -10.3900   14.0380   64.7000 O.co2 404  ASP404     -0.2456
     45  N         -3.1130   14.2740   70.0020 N.3   422  ARG422     -0.1231
     46  CA        -4.1920   13.7890   69.1380 C.3   422  ARG422      0.1694
     47  C         -4.5700   14.7350   67.9900 C.2   422  ARG422      0.2592
     48  O         -5.3720   14.3530   67.1300 O.2   422  ARG422     -0.2718
     49  CB        -5.4270   13.4290   69.9750 C.3   422  ARG422      0.0321
     50  CG        -5.2170   12.2260   70.9020 C.3   422  ARG422      0.0489
     51  CD        -6.0230   12.3500   72.1810 C.3   422  ARG422      0.2205
     52  NE        -7.4620   12.3660   71.9150 N.pl3 422  ARG422     -0.0865
     53  CZ        -8.3940   12.5870   72.8350 C.cat 422  ARG422      0.5346
     54  NH1       -8.0480   12.8190   74.0970 N.pl3 422  ARG422      0.1354
     55  NH2       -9.6790   12.5680   72.5050 N.pl3 422  ARG422      0.1354
     56  N         -3.9850   15.9590   67.9710 N.am  423  SER423     -0.1952
     57  CA        -4.2420   17.0240   66.9970 C.3   423  SER423      0.1924
     58  C         -5.7290   17.4460   66.9980 C.2   423  SER423      0.2314
     59  O         -6.3700   17.5550   65.9450 O.2   423  SER423     -0.2863
     60  CB        -3.7440   16.6380   65.6080 C.3   423  SER423      0.2116
     61  OG        -3.4530   17.8190   64.8900 O.3   423  SER423     -0.2180
     62  N         -8.7660   19.8580   67.1230 N.3   425  ASN425     -0.1240
     63  CA        -9.0080   21.1920   66.5590 C.3   425  ASN425      0.1653
     64  C         -9.6490   22.1880   67.5170 C.2   425  ASN425      0.2266
     65  O         -9.1110   23.2840   67.6940 O.2   425  ASN425     -0.2867
     66  CB        -9.7860   21.1080   65.2410 C.3   425  ASN425      0.1155
     67  CG        -9.1950   20.1470   64.2380 C.2   425  ASN425      0.2627
     68  OD1       -7.9840   20.1180   63.9930 O.2   425  ASN425     -0.2716
     69  ND2      -10.0390   19.3360   63.6310 N.am  425  ASN425     -0.0877
     70  N         -5.6830   26.8040   62.7690 N.3   462  LEU462     -0.1245
     71  CA        -5.9480   25.4790   62.1990 C.3   462  LEU462      0.1561
     72  C         -5.1390   25.0940   60.9590 C.2   462  LEU462      0.2260
     73  O         -5.0290   23.9010   60.6650 O.2   462  LEU462     -0.2867
     74  CB        -7.4510   25.1760   62.0300 C.3   462  LEU462      0.0270
     75  CG        -8.3070   25.1570   63.3050 C.3   462  LEU462      0.0019
     76  CD1       -9.7400   24.8250   62.9830 C.3   462  LEU462      0.0001
     77  CD2       -7.7490   24.2040   64.3610 C.3   462  LEU462      0.0001
     78  N         -1.5200   10.7310   66.7160 N.3   533  THR533     -0.1218
     79  CA        -1.6780   10.6650   65.2480 C.3   533  THR533      0.1862
     80  C         -0.5790    9.9280   64.4540 C.2   533  THR533      0.2287
     81  O         -0.8830    9.3240   63.4200 O.2   533  THR533     -0.2866
     82  CB        -1.9150   12.0570   64.6590 C.3   533  THR533      0.1770
     83  OG1       -0.8100   12.9060   64.9830 O.3   533  THR533     -0.2211
     84  CG2       -3.2340   12.6740   65.1080 C.3   533  THR533      0.0375
     85  N          1.7340   15.4140   62.2910 N.3   550  THR550     -0.1218
     86  CA         1.0530   15.0790   61.0410 C.3   550  THR550      0.1862
     87  C          0.2440   16.2860   60.5940 C.2   550  THR550      0.2287
     88  O         -0.1080   17.1420   61.4060 O.2   550  THR550     -0.2866
     89  CB         0.1210   13.8600   61.2290 C.3   550  THR550      0.1770
     90  OG1       -0.6170   14.0250   62.4350 O.3   550  THR550     -0.2211
     91  CG2        0.8630   12.5270   61.2510 C.3   550  THR550      0.0375
     92  N         -3.1030   17.1140   57.8060 N.3   552  THR552     -0.1203
     93  CA        -4.1650   16.6380   56.9150 C.3   552  THR552      0.1994
     94  C         -5.1690   17.7660   56.7190 C.2   552  THR552      0.2619
     95  O         -6.0720   17.9470   57.5430 O.2   552  THR552     -0.2717
     96  CB        -4.8300   15.3310   57.4150 C.3   552  THR552      0.1784
     97  OG1       -3.8320   14.3750   57.7770 O.3   552  THR552     -0.2211
     98  CG2       -5.7740   14.7210   56.3740 C.3   552  THR552      0.0376
     99  N         -4.9980   18.5380   55.6250 N.am  553  THR553     -0.1938
    100  CA        -5.8780   19.6650   55.2900 C.3   553  THR553      0.2028
    101  C         -7.2910   19.1860   54.9700 C.2   553  THR553      0.2642
    102  O         -7.5100   17.9790   54.8020 O.2   553  THR553     -0.2714
    103  CB        -5.2940   20.5460   54.1770 C.3   553  THR553      0.1808
    104  OG1       -5.1740   19.7890   52.9750 O.3   553  THR553     -0.2208
    105  CG2       -3.9760   21.1810   54.5630 C.3   553  THR553      0.0379
    106  N         -8.2540   20.1290   54.9200 N.am  554  ASN554     -0.1957
    107  CA        -9.6570   19.8160   54.6430 C.3   554  ASN554      0.1819
    108  C         -9.8250   19.2150   53.2560 C.2   554  ASN554      0.2621
    109  O         -9.1970   19.6860   52.2970 O.2   554  ASN554     -0.2715
    110  CB       -10.5650   21.0350   54.8570 C.3   554  ASN554      0.1195
    111  CG       -11.1040   21.1320   56.2650 C.2   554  ASN554      0.2630
    112  OD1      -10.6490   21.9450   57.0750 O.2   554  ASN554     -0.2716
    113  ND2      -12.0720   20.2840   56.6000 N.am  554  ASN554     -0.0877
    114  N        -10.6160   18.1230   53.1840 N.am  555  ASN555     -0.1958
    115  CA       -10.9360   17.3360   51.9840 C.3   555  ASN555      0.1819
    116  C         -9.7470   16.5160   51.4450 C.2   555  ASN555      0.2621
    117  O         -9.6730   16.2380   50.2440 O.2   555  ASN555     -0.2715
    118  CB       -11.6370   18.1890   50.8930 C.3   555  ASN555      0.1195
    119  CG       -12.4830   17.3980   49.9140 C.2   555  ASN555      0.2630
    120  OD1      -12.9020   16.2580   50.1800 O.2   555  ASN555     -0.2716
    121  ND2      -12.7560   17.9940   48.7570 N.am  555  ASN555     -0.0877
    122  N         -8.8290   16.1070   52.3590 N.am  556  ASN556     -0.1972
    123  CA        -7.6330   15.2990   52.0810 C.3   556  ASN556      0.1688
    124  C         -6.7950   15.8240   50.8850 C.2   556  ASN556      0.2292
    125  O         -6.2240   15.0230   50.1420 O.2   556  ASN556     -0.2864
    126  CB        -8.0120   13.8140   51.8870 C.3   556  ASN556      0.1181
    127  CG        -8.9660   13.2600   52.9210 C.2   556  ASN556      0.2629
    128  OD1      -10.1510   13.0340   52.6580 O.2   556  ASN556     -0.2716
    129  ND2       -8.4730   13.0660   54.1330 N.am  556  ASN556     -0.0877
    130  N         -4.2480   10.4840   54.4800 N.3   585  TYR585     -0.1227
    131  CA        -4.1420   11.2340   55.7280 C.3   585  TYR585      0.1736
    132  C         -2.6580   11.5090   55.9620 C.2   585  TYR585      0.2596
    133  O         -1.8240   11.0310   55.1880 O.2   585  TYR585     -0.2718
    134  CB        -4.7650   10.4250   56.8890 C.3   585  TYR585      0.0548
    135  CG        -6.2820   10.4170   56.8940 C.ar  585  TYR585     -0.0200
    136  CD1       -6.9980   11.0580   57.9000 C.ar  585  TYR585     -0.0009
    137  CD2       -7.0020    9.7450   55.9090 C.ar  585  TYR585     -0.0009
    138  CE1       -8.3950   11.0430   57.9180 C.ar  585  TYR585      0.0417
    139  CE2       -8.3960    9.7470   55.8990 C.ar  585  TYR585      0.0417
    140  CZ        -9.0890   10.3900   56.9110 C.ar  585  TYR585      0.1957
    141  OH       -10.4620   10.3750   56.9020 O.3   585  TYR585     -0.2866
    142  N         -2.3440   12.3060   56.9820 N.am  586  GLY586     -0.1942
    143  CA        -0.9720   12.6450   57.3420 C.3   586  GLY586      0.2014
    144  C         -0.1370   11.4130   57.6130 C.2   586  GLY586      0.2638
    145  O          0.9720   11.2930   57.0930 O.2   586  GLY586     -0.2714
    146  N         -0.7130   10.4610   58.3720 N.am  587  ALA587     -0.1977
    147  CA        -0.1160    9.1800   58.7520 C.3   587  ALA587      0.1597
    148  C          0.0540    8.2010   57.5740 C.2   587  ALA587      0.2287
    149  O          1.0560    7.4810   57.5200 O.2   587  ALA587     -0.2864
    150  CB        -0.9450    8.5320   59.8510 C.3   587  ALA587      0.0319
@<TRIPOS>BOND
     1   121   119   am
     2   119   120    2
     3   119   118    1
     4   125   124    2
     5   117   116    2
     6   124   123    1
     7   118   115    1
     8   116   115    1
     9   116   122   am
    10   126   123    1
    11   126   127    1
    12   115   114    1
    13   123   122    1
    14   109   108    2
    15   128   127    2
    16   127   129   am
    17   104   103    1
    18   114   108   am
    19   108   107    1
    20   103   105    1
    21   103   100    1
    22   130   131    1
    23   107   110    1
    24   107   106    1
    25   102   101    2
    26   110   111    1
    27   106   101   am
    28   101   100    1
    29   133   132    2
    30   100    99    1
    31    99    94   am
    32   131   132    1
    33   131   134    1
    34   139   137   ar
    35   139   140   ar
    36   137   135   ar
    37   132   142   am
    38   111   113   am
    39   111   112    2
    40    98    96    1
    41    94    93    1
    42    94    95    2
    43   134   135    1
    44   135   136   ar
    45   141   140    1
    46   140   138   ar
    47    93    96    1
    48    93    92    1
    49   142   143    1
    50   145   144    2
    51   143   144    1
    52     1     2    1
    53    96    97    1
    54   149   148    2
    55   148   147    1
    56   144   146   am
    57   136   138   ar
    58     2     3    1
    59   146   147    1
    60   147   150    1
    61     3     4    2
    62     3     5   am
    63     5     6    1
    64    87    86    1
    65    87    88    2
    66    73    72    2
    67    72    71    1
    68    86    89    1
    69    86    85    1
    70    89    91    1
    71    89    90    1
    72     6     7    1
    73     6     9    1
    74    10     9    1
    75    40    39    2
    76    74    71    1
    77    74    75    1
    78     7     8    2
    79    71    70    1
    80    41    38    1
    81    41    42    1
    82    38    39    1
    83    38    37    1
    84    76    75    1
    85    43    42   ar
    86    75    77    1
    87    81    80    2
    88    42    44   ar
    89    69    67   am
    90    24    25    1
    91    24    21    1
    92    25    26    1
    93    23    22    2
    94    32    31    2
    95    37    31   am
    96    20    21    1
    97    68    67    2
    98    67    66    1
    99    31    30    1
   100    11    12    1
   101    80    79    1
   102    21    22    1
   103    22    29   am
   104    19    18    1
   105    82    83    1
   106    82    84    1
   107    82    79    1
   108    61    60    1
   109    26    28   am
   110    26    27    2
   111    66    63    1
   112    79    78    1
   113    29    30    1
   114    16    15    1
   115    16    17    1
   116    30    33    1
   117    60    57    1
   118    12    15    1
   119    12    13    1
   120    18    17    1
   121    59    58    2
   122    63    62    1
   123    63    64    1
   124    13    14    2
   125    33    34    1
   126    57    58    1
   127    57    56    1
   128    48    47    2
   129    64    65    2
   130    56    47   am
   131    47    46    1
   132    35    34    2
   133    34    36   am
   134    46    49    1
   135    46    45    1
   136    49    50    1
   137    50    51    1
   138    52    51    1
   139    52    53    2
   140    55    53    1
   141    53    54    1
