@<TRIPOS>MOLECULE
tmp/5hlfA00.pdb
 123 119 0 0 0
SMALL
GASTEIGER

@<TRIPOS>ATOM
      1  N         -2.8530   31.6510  158.0200 N.3    65  LYS65      -0.1245
      2  CA        -2.2880   31.2110  159.2760 C.3    65  LYS65       0.1561
      3  C         -2.9780   31.9990  160.3980 C.2    65  LYS65       0.2260
      4  O         -3.4910   33.1060  160.1870 O.2    65  LYS65      -0.2867
      5  CB        -0.7900   31.5470  159.2250 C.3    65  LYS65       0.0271
      6  CG         0.2450   31.1270  160.3040 C.3    65  LYS65       0.0035
      7  CD         0.2440   29.6530  160.6960 C.3    65  LYS65       0.0206
      8  CE         1.2940   29.4130  161.7770 C.3    65  LYS65       0.1093
      9  NZ         1.3560   28.0010  162.2060 N.3    65  LYS65      -0.1314
     10  N         -2.3340   30.3150  153.4510 N.3    72  ARG72      -0.1245
     11  CA        -1.7040   29.0030  153.3470 C.3    72  ARG72       0.1563
     12  C         -2.5730   28.1650  152.4150 C.2    72  ARG72       0.2260
     13  O         -3.7990   28.1410  152.5450 O.2    72  ARG72      -0.2867
     14  CB        -1.5400   28.3340  154.7280 C.3    72  ARG72       0.0307
     15  CG        -1.1830   26.8370  154.7350 C.3    72  ARG72       0.0489
     16  CD        -1.0390   26.3420  156.1830 C.3    72  ARG72       0.2205
     17  NE         0.2630   25.7390  156.4850 N.pl3  72  ARG72      -0.0865
     18  CZ         0.8030   25.7190  157.7020 C.cat  72  ARG72       0.5346
     19  NH1        0.1560   26.2690  158.7210 N.pl3  72  ARG72       0.1354
     20  NH2        1.9860   25.1530  157.9060 N.pl3  72  ARG72       0.1354
     21  N         -4.2290   24.9550  150.7540 N.3    74  LEU74      -0.1245
     22  CA        -4.8030   23.6710  151.1350 C.3    74  LEU74       0.1561
     23  C         -5.4720   22.9610  149.9600 C.2    74  LEU74       0.2260
     24  O         -6.1260   23.5950  149.1230 O.2    74  LEU74      -0.2867
     25  CB        -5.8500   23.9080  152.2200 C.3    74  LEU74       0.0270
     26  CG        -5.4060   24.2350  153.6490 C.3    74  LEU74       0.0019
     27  CD1       -6.6230   24.3710  154.5670 C.3    74  LEU74       0.0001
     28  CD2       -4.3720   23.2660  154.2050 C.3    74  LEU74       0.0001
     29  N         12.6860   25.6340  163.1370 N.3   110  ASP110     -0.1225
     30  CA        11.6270   25.1210  162.2910 C.3   110  ASP110      0.1805
     31  C         12.2090   25.0880  160.8890 C.2   110  ASP110      0.2598
     32  O         12.7310   26.1040  160.4170 O.2   110  ASP110     -0.2718
     33  CB        10.4070   26.0440  162.3780 C.3   110  ASP110      0.1424
     34  CG         9.6980   25.9400  163.7220 C.2   110  ASP110      0.3668
     35  OD1       10.1290   25.0970  164.5440 O.co2 110  ASP110     -0.2456
     36  OD2        8.8030   26.7610  164.0150 O.co2 110  ASP110     -0.2456
     37  N         12.0050   23.9900  160.1830 N.am  111  VAL111     -0.1966
     38  CA        12.3190   23.9190  158.7590 C.3   111  VAL111      0.1727
     39  C         11.2740   24.7350  158.0100 C.2   111  VAL111      0.2617
     40  O         10.0710   24.6580  158.3130 O.2   111  VAL111     -0.2715
     41  CB        12.4230   22.4480  158.3240 C.3   111  VAL111      0.0290
     42  CG1       12.2000   22.2700  156.8310 C.3   111  VAL111      0.0023
     43  CG2       13.7660   21.8460  158.8230 C.3   111  VAL111      0.0023
     44  N         11.6820   25.5030  157.0050 N.am  112  GLY112     -0.1940
     45  CA        10.7390   26.3740  156.3250 C.3   112  GLY112      0.2014
     46  C         10.1460   25.7880  155.0600 C.2   112  GLY112      0.2639
     47  O         10.8550   25.2310  154.2180 O.2   112  GLY112     -0.2714
     48  N          8.8270   25.9270  154.9540 N.am  113  ASP113     -0.1957
     49  CA         8.0060   25.3100  153.9230 C.3   113  ASP113      0.1840
     50  C          8.4140   23.8360  153.7790 C.2   113  ASP113      0.2622
     51  O          8.9460   23.3970  152.7570 O.2   113  ASP113     -0.2715
     52  CB         8.1750   26.1300  152.6430 C.3   113  ASP113      0.1450
     53  CG         7.0950   27.1960  152.4950 C.2   113  ASP113      0.3671
     54  OD1        6.5670   27.6370  153.5420 O.co2 113  ASP113     -0.2456
     55  OD2        6.8190   27.6430  151.3620 O.co2 113  ASP113     -0.2456
     56  N          8.0610   23.0650  154.8160 N.am  114  ALA114     -0.1963
     57  CA         8.5410   21.6880  154.9670 C.3   114  ALA114      0.1728
     58  C          8.0570   20.7810  153.8430 C.2   114  ALA114      0.2616
     59  O          8.8690   20.2070  153.1080 O.2   114  ALA114     -0.2715
     60  CB         8.1110   21.1370  156.3270 C.3   114  ALA114      0.0334
     61  N          6.7420   20.6110  153.7100 N.am  115  TYR115     -0.1960
     62  CA         6.2230   19.6680  152.7220 C.3   115  TYR115      0.1771
     63  C          6.7200   19.9960  151.3240 C.2   115  TYR115      0.2619
     64  O          6.9520   19.0880  150.5180 O.2   115  TYR115     -0.2715
     65  CB         4.6940   19.6270  152.7020 C.3   115  TYR115      0.0574
     66  CG         3.9960   19.0340  153.9020 C.ar  115  TYR115     -0.0198
     67  CD1        2.6110   19.0320  153.9640 C.ar  115  TYR115     -0.0009
     68  CD2        4.7000   18.4160  154.9290 C.ar  115  TYR115     -0.0009
     69  CE1        1.9430   18.4760  155.0280 C.ar  115  TYR115      0.0417
     70  CE2        4.0350   17.8530  156.0060 C.ar  115  TYR115      0.0417
     71  CZ         2.6540   17.8870  156.0460 C.ar  115  TYR115      0.1957
     72  OH         1.9740   17.3380  157.1080 O.3   115  TYR115     -0.2866
     73  N          6.8980   21.2760  151.0220 N.am  116  PHE116     -0.1974
     74  CA         7.2430   21.7030  149.6780 C.3   116  PHE116      0.1639
     75  C          8.7250   21.5400  149.3670 C.2   116  PHE116      0.2290
     76  O          9.1450   21.8400  148.2470 O.2   116  PHE116     -0.2864
     77  CB         6.8570   23.1740  149.5320 C.3   116  PHE116      0.0560
     78  CG         5.4350   23.4590  149.9150 C.ar  116  PHE116     -0.0200
     79  CD1        4.3780   22.8550  149.2580 C.ar  116  PHE116     -0.0042
     80  CD2        5.1630   24.2990  150.9850 C.ar  116  PHE116     -0.0042
     81  CE1        3.0720   23.1170  149.6390 C.ar  116  PHE116     -0.0003
     82  CE2        3.8660   24.5610  151.3720 C.ar  116  PHE116     -0.0003
     83  CZ         2.8170   23.9690  150.6970 C.ar  116  PHE116     -0.0000
     84  N         -0.1830   19.5480  151.0800 N.3   151  GLN151     -0.1231
     85  CA        -1.0250   19.6120  152.2660 C.3   151  GLN151      0.1698
     86  C         -2.4440   19.1290  151.9690 C.2   151  GLN151      0.2592
     87  O         -3.0600   19.5490  150.9900 O.2   151  GLN151     -0.2718
     88  CB        -1.0190   21.0400  152.7960 C.3   151  GLN151      0.0381
     89  CG         0.3780   21.6360  152.6840 C.3   151  GLN151      0.0905
     90  CD         0.6530   22.7320  153.6830 C.2   151  GLN151      0.2608
     91  OE1       -0.2590   23.2350  154.3380 O.2   151  GLN151     -0.2717
     92  NE2        1.9200   23.1190  153.8010 N.am  151  GLN151     -0.0878
     93  N         -2.9610   18.2450  152.8210 N.am  152  GLY152     -0.1957
     94  CA        -4.2830   17.6850  152.6410 C.3   152  GLY152      0.1869
     95  C         -4.2880   16.2430  152.1830 C.2   152  GLY152      0.2309
     96  O         -5.3310   15.5850  152.2600 O.2   152  GLY152     -0.2863
     97  N          6.7670   12.8890  154.8370 N.3   160  PHE160     -0.1241
     98  CA         7.7060   13.9180  155.2590 C.3   160  PHE160      0.1605
     99  C          8.4460   13.4730  156.5070 C.2   160  PHE160      0.2264
    100  O          9.6800   13.5180  156.5800 O.2   160  PHE160     -0.2867
    101  CB         6.9690   15.2130  155.5860 C.3   160  PHE160      0.0534
    102  CG         7.8560   16.2530  156.1830 C.ar  160  PHE160     -0.0203
    103  CD1        8.8760   16.8230  155.4470 C.ar  160  PHE160     -0.0042
    104  CD2        7.7480   16.5650  157.5270 C.ar  160  PHE160     -0.0042
    105  CE1        9.7170   17.7570  156.0200 C.ar  160  PHE160     -0.0003
    106  CE2        8.5880   17.4890  158.1090 C.ar  160  PHE160     -0.0003
    107  CZ         9.5770   18.0870  157.3560 C.ar  160  PHE160     -0.0000
    108  N          7.4320   16.4430  163.5140 N.3   184  MET184     -0.1230
    109  CA         7.2440   16.9630  162.1730 C.3   184  MET184      0.1702
    110  C          8.4610   17.7430  161.6840 C.2   184  MET184      0.2592
    111  O          9.5050   17.1400  161.4110 O.2   184  MET184     -0.2718
    112  CB         6.0020   17.8460  161.9290 C.3   184  MET184      0.0401
    113  CG         4.6830   17.1540  162.2110 C.3   184  MET184      0.0596
    114  SD         4.0310   16.8340  160.5260 S.3   184  MET184     -0.1393
    115  CE         2.8000   15.6030  160.9930 C.3   184  MET184      0.0692
    116  N          8.3680   19.0790  161.5900 N.am  185  ASP185     -0.1974
    117  CA         9.5010   19.8980  161.1610 C.3   185  ASP185      0.1709
    118  C         10.1410   20.6690  162.3080 C.2   185  ASP185      0.2293
    119  O         11.2430   21.1990  162.1390 O.2   185  ASP185     -0.2864
    120  CB         9.1510   20.8830  160.0330 C.3   185  ASP185      0.1436
    121  CG         8.1610   21.9430  160.4460 C.2   185  ASP185      0.3671
    122  OD1        7.5180   21.8090  161.5050 O.co2 185  ASP185     -0.2456
    123  OD2        8.0580   22.9440  159.7040 O.co2 185  ASP185     -0.2456
@<TRIPOS>BOND
     1    76    75    2
     2    24    23    2
     3    79    81   ar
     4    79    78   ar
     5    75    74    1
     6    77    74    1
     7    77    78    1
     8    81    83   ar
     9    74    73    1
    10    78    80   ar
    11    23    22    1
    12    64    63    2
    13    83    82   ar
    14    21    22    1
    15    80    82   ar
    16    87    86    2
    17    73    63   am
    18    84    85    1
    19    22    25    1
    20    63    62    1
    21    55    53   ar
    22    86    85    1
    23    86    93   am
    24    95    96    2
    25    95    94    1
    26    25    26    1
    27    85    88    1
    28    12    13    2
    29    12    11    1
    30    53    52    1
    31    53    54   ar
    32    94    93    1
    33    52    49    1
    34    89    88    1
    35    89    90    1
    36    65    62    1
    37    65    66    1
    38    62    61    1
    39    51    50    2
    40    59    58    2
    41    11    10    1
    42    11    14    1
    43    26    28    1
    44    26    27    1
    45    90    92   am
    46    90    91    2
    47    61    58   am
    48    50    49    1
    49    50    56   am
    50    58    57    1
    51    66    67   ar
    52    66    68   ar
    53    49    48    1
    54    67    69   ar
    55    47    46    2
    56    14    15    1
    57    15    16    1
    58    56    57    1
    59    97    98    1
    60    68    70   ar
    61    48    46   am
    62    57    60    1
    63    69    71   ar
    64    46    45    1
    65    98   101    1
    66    98    99    1
    67   103   105   ar
    68   103   102   ar
    69   101   102    1
    70    70    71   ar
    71   105   107   ar
    72    71    72    1
    73   102   104   ar
    74    16    17    1
    75    45    44    1
    76    17    18    2
    77    99   100    2
    78    42    41    1
    79    44    39   am
    80   107   106   ar
    81   104   106   ar
    82    18    20    1
    83    18    19    1
    84    39    40    2
    85    39    38    1
    86     1     2    1
    87    41    38    1
    88    41    43    1
    89    38    37    1
    90     5     2    1
    91     5     6    1
    92     2     3    1
    93   123   121   ar
    94   120   121    1
    95   120   117    1
    96    37    31   am
    97     4     3    2
    98     6     7    1
    99    32    31    2
   100   121   122   ar
   101   114   115    1
   102   114   113    1
   103     7     8    1
   104    31    30    1
   105   117   116    1
   106   117   118    1
   107   111   110    2
   108   116   110   am
   109   110   109    1
   110     8     9    1
   111   112   109    1
   112   112   113    1
   113   119   118    2
   114   109   108    1
   115    30    33    1
   116    30    29    1
   117    33    34    1
   118    34    36   ar
   119    34    35   ar
