@<TRIPOS>MOLECULE
tmp/5hlmC00.pdb
 139 131 0 0 0
SMALL
GASTEIGER

@<TRIPOS>ATOM
      1  N         10.5570   42.4160    1.2370 N.3    11  ASN11      -0.1240
      2  CA         9.7260   43.0670    2.1910 C.3    11  ASN11       0.1653
      3  C         10.1840   44.4180    2.6770 C.2    11  ASN11       0.2266
      4  O         11.3030   44.8290    2.4220 O.2    11  ASN11      -0.2867
      5  CB         9.3200   42.1160    3.3340 C.3    11  ASN11       0.1155
      6  CG        10.3980   41.8890    4.3800 C.2    11  ASN11       0.2627
      7  OD1       11.3960   42.5650    4.4830 O.2    11  ASN11      -0.2716
      8  ND2       10.1860   40.8190    5.1510 N.am   11  ASN11      -0.0877
      9  N         11.3170   45.3350    5.4370 N.3    13  LEU13      -0.1245
     10  CA        12.6300   45.3270    6.1690 C.3    13  LEU13       0.1561
     11  C         13.8240   44.9950    5.2930 C.2    13  LEU13       0.2260
     12  O         14.9420   45.0020    5.7780 O.2    13  LEU13      -0.2867
     13  CB        12.6610   44.2800    7.2910 C.3    13  LEU13       0.0270
     14  CG        11.6740   44.2500    8.4690 C.3    13  LEU13       0.0019
     15  CD1       11.8120   42.9320    9.2350 C.3    13  LEU13       0.0001
     16  CD2       11.8880   45.4600    9.4040 C.3    13  LEU13       0.0001
     17  N         14.3180   42.0760    3.4380 N.3    15  SER15      -0.1217
     18  CA        14.5650   40.6440    3.2990 C.3    15  SER15       0.1889
     19  C         14.0570   40.1030    1.9840 C.2    15  SER15       0.2288
     20  O         13.1020   40.5900    1.4330 O.2    15  SER15      -0.2866
     21  CB        13.8160   39.8570    4.4230 C.3    15  SER15       0.2089
     22  OG        14.3610   40.0890    5.6980 O.3    15  SER15      -0.2183
     23  N         15.1080   31.7650    1.9070 N.3    32  TYR32      -0.1241
     24  CA        14.8050   33.0240    2.6780 C.3    32  TYR32       0.1605
     25  C         16.1180   33.6280    3.0890 C.2    32  TYR32       0.2264
     26  O         16.9470   32.9320    3.6590 O.2    32  TYR32      -0.2867
     27  CB        13.9700   32.7730    3.9140 C.3    32  TYR32       0.0534
     28  CG        13.2060   34.0220    4.4000 C.ar   32  TYR32      -0.0201
     29  CD1       11.8330   34.1250    4.2350 C.ar   32  TYR32      -0.0009
     30  CD2       13.8500   35.0710    5.0500 C.ar   32  TYR32      -0.0009
     31  CE1       11.1570   35.2300    4.6570 C.ar   32  TYR32       0.0417
     32  CE2       13.1480   36.1910    5.5150 C.ar   32  TYR32       0.0417
     33  CZ        11.8200   36.2830    5.2960 C.ar   32  TYR32       0.1957
     34  OH        11.1120   37.3790    5.7090 O.3    32  TYR32      -0.2866
     35  N         17.4280   36.9370    5.1570 N.3    34  THR34      -0.1218
     36  CA        16.8980   38.0130    6.0330 C.3    34  THR34       0.1862
     37  C         17.8670   39.1390    6.0530 C.2    34  THR34       0.2287
     38  O         19.0550   38.9120    6.0810 O.2    34  THR34      -0.2866
     39  CB        16.6000   37.5950    7.4910 C.3    34  THR34       0.1770
     40  OG1       16.2020   38.7500    8.2380 O.3    34  THR34      -0.2211
     41  CG2       17.8140   36.9640    8.1880 C.3    34  THR34       0.0375
     42  N         17.9130   41.3820    8.3760 N.3    36  VAL36      -0.1245
     43  CA        18.1490   41.7130    9.7820 C.3    36  VAL36       0.1561
     44  C         18.3370   40.3470   10.5490 C.2    36  VAL36       0.2260
     45  O         19.1210   40.1700   11.5260 O.2    36  VAL36      -0.2867
     46  CB        16.9970   42.6090   10.3660 C.3    36  VAL36       0.0252
     47  CG1       16.9150   43.9660    9.6380 C.3    36  VAL36       0.0019
     48  CG2       15.6540   41.8980   10.3210 C.3    36  VAL36       0.0019
     49  N         16.1070   28.4380   10.4830 N.3    65  TRP65      -0.1241
     50  CA        17.2930   29.2830   10.3570 C.3    65  TRP65       0.1605
     51  C         18.5830   28.4240   10.3490 C.2    65  TRP65       0.2264
     52  O         18.8200   27.6610   11.2940 O.2    65  TRP65      -0.2867
     53  CB        17.3260   30.3970   11.3820 C.3    65  TRP65       0.0550
     54  CG        16.1410   31.2180   11.2620 C.ar   65  TRP65       0.0003
     55  CD1       15.1410   31.2870   12.1510 C.ar   65  TRP65       0.0946
     56  CD2       15.7990   32.1300   10.2010 C.ar   65  TRP65       0.0152
     57  NE1       14.1640   32.1330   11.7060 N.ar   65  TRP65      -0.2442
     58  CE2       14.5590   32.6820   10.5210 C.ar   65  TRP65       0.0810
     59  CE3       16.4450   32.5470    9.0120 C.ar   65  TRP65       0.0012
     60  CZ2       13.9210   33.6120    9.7020 C.ar   65  TRP65       0.0191
     61  CZ3       15.8230   33.4300    8.1750 C.ar   65  TRP65       0.0001
     62  CH2       14.5790   33.9770    8.5240 C.ar   65  TRP65       0.0015
     63  N         21.5750   29.6880   10.6770 N.3    67  PHE67      -0.1227
     64  CA        22.6120   30.3740   11.4660 C.3    67  PHE67       0.1736
     65  C         22.1810   30.6530   12.9200 C.2    67  PHE67       0.2596
     66  O         22.8840   31.3340   13.6520 O.2    67  PHE67      -0.2718
     67  CB        22.9690   31.7050   10.7690 C.3    67  PHE67       0.0547
     68  CG        21.8380   32.6880   10.7710 C.ar   67  PHE67      -0.0202
     69  CD1       20.9540   32.7390    9.7140 C.ar   67  PHE67      -0.0042
     70  CD2       21.6400   33.5300   11.8440 C.ar   67  PHE67      -0.0042
     71  CE1       19.8990   33.6330    9.7140 C.ar   67  PHE67      -0.0003
     72  CE2       20.6040   34.4410   11.8450 C.ar   67  PHE67      -0.0003
     73  CZ        19.7230   34.4890   10.7870 C.ar   67  PHE67      -0.0000
     74  N         21.0640   30.0930   13.3530 N.am   68  SER68      -0.1952
     75  CA        20.5180   30.3880   14.6720 C.3    68  SER68       0.1924
     76  C         19.7070   29.1970   15.0990 C.2    68  SER68       0.2314
     77  O         19.1590   28.5190   14.2640 O.2    68  SER68      -0.2863
     78  CB        19.6610   31.6710   14.5860 C.3    68  SER68       0.2116
     79  OG        18.6770   31.7680   15.5910 O.3    68  SER68      -0.2180
     80  N         16.7590   29.2530   16.2370 N.3    70  SER70      -0.1217
     81  CA        15.3800   29.6420   16.2130 C.3    70  SER70       0.1889
     82  C         14.6180   29.0700   15.0590 C.2    70  SER70       0.2288
     83  O         15.1900   28.5550   14.1340 O.2    70  SER70      -0.2866
     84  CB        15.2850   31.1660   16.0530 C.3    70  SER70       0.2089
     85  OG        16.1170   31.8360   16.9570 O.3    70  SER70      -0.2183
     86  N         11.0360   30.5280   12.5980 N.3    72  THR72      -0.1218
     87  CA         9.9440   31.4600   12.3830 C.3    72  THR72       0.1862
     88  C          8.8680   30.8530   11.5810 C.2    72  THR72       0.2287
     89  O          9.1810   30.1410   10.6320 O.2    72  THR72      -0.2866
     90  CB        10.4040   32.7020   11.6440 C.3    72  THR72       0.1770
     91  OG1       11.5110   33.3030   12.3380 O.3    72  THR72      -0.2211
     92  CG2        9.3490   33.7270   11.5400 C.3    72  THR72       0.0375
     93  N          5.2830   31.9010    9.3610 N.3    74  PHE74      -0.1241
     94  CA         4.5840   32.9930    8.7250 C.3    74  PHE74       0.1605
     95  C          3.2780   32.4880    8.2390 C.2    74  PHE74       0.2264
     96  O          3.1930   31.3570    7.8320 O.2    74  PHE74      -0.2867
     97  CB         5.3330   33.4000    7.4690 C.3    74  PHE74       0.0534
     98  CG         6.6670   34.0300    7.6980 C.ar   74  PHE74      -0.0203
     99  CD1        7.7390   33.3120    8.0090 C.ar   74  PHE74      -0.0042
    100  CD2        6.8150   35.4080    7.5640 C.ar   74  PHE74      -0.0042
    101  CE1        9.0090   33.9370    8.1940 C.ar   74  PHE74      -0.0003
    102  CE2        8.0520   36.0540    7.7620 C.ar   74  PHE74      -0.0003
    103  CZ         9.1650   35.3060    8.0520 C.ar   74  PHE74      -0.0000
    104  N          3.9180   36.9350   11.5940 N.3    92  TRP92      -0.1241
    105  CA         4.7460   35.8480   12.0560 C.3    92  TRP92       0.1605
    106  C          4.9020   35.6450   13.5770 C.2    92  TRP92       0.2264
    107  O          4.6630   36.5570   14.3960 O.2    92  TRP92      -0.2867
    108  CB         6.1280   35.9920   11.4220 C.3    92  TRP92       0.0550
    109  CG         6.6670   37.3840   11.5660 C.ar   92  TRP92       0.0003
    110  CD1        6.6210   38.3700   10.5910 C.ar   92  TRP92       0.0946
    111  CD2        7.3980   37.9460   12.6820 C.ar   92  TRP92       0.0152
    112  NE1        7.3040   39.4980   11.0340 N.ar   92  TRP92      -0.2442
    113  CE2        7.7790   39.2800   12.3070 C.ar   92  TRP92       0.0810
    114  CE3        7.7940   37.4520   13.9420 C.ar   92  TRP92       0.0012
    115  CZ2        8.4270   40.1540   13.1870 C.ar   92  TRP92       0.0191
    116  CZ3        8.4660   38.2850   14.8160 C.ar   92  TRP92       0.0001
    117  CH2        8.8050   39.6370   14.4100 C.ar   92  TRP92       0.0015
    118  N          8.2720   34.1820   15.9830 N.3    94  LEU94      -0.1245
    119  CA         9.6640   33.7810   16.0860 C.3    94  LEU94       0.1561
    120  C          9.8830   33.1630   17.4540 C.2    94  LEU94       0.2260
    121  O          9.7240   33.8130   18.4680 O.2    94  LEU94      -0.2867
    122  CB        10.5360   35.0080   15.9330 C.3    94  LEU94       0.0270
    123  CG        12.0020   34.9300   16.1700 C.3    94  LEU94       0.0019
    124  CD1       12.6830   33.9190   15.2660 C.3    94  LEU94       0.0001
    125  CD2       12.6320   36.2740   15.8820 C.3    94  LEU94       0.0001
    126  N         12.4290   31.4210   20.0040 N.3    96  SER96      -0.1217
    127  CA        13.7770   31.1570   20.4470 C.3    96  SER96       0.1889
    128  C         13.8670   29.8570   21.1970 C.2    96  SER96       0.2288
    129  O         12.9530   29.4400   21.8830 O.2    96  SER96      -0.2866
    130  CB        14.2910   32.3170   21.3520 C.3    96  SER96       0.2089
    131  OG        14.3110   33.5430   20.6230 O.3    96  SER96      -0.2183
    132  N          4.7010   41.4330    8.1930 N.3   113  ASN113     -0.1240
    133  CA         5.5410   41.6790    6.9950 C.3   113  ASN113      0.1653
    134  C          4.6740   41.7500    5.8030 C.2   113  ASN113      0.2266
    135  O          3.7350   41.0250    5.6800 O.2   113  ASN113     -0.2867
    136  CB         6.5920   40.5840    6.7900 C.3   113  ASN113      0.1155
    137  CG         7.8920   40.8710    7.5100 C.2   113  ASN113      0.2627
    138  OD1        8.5050   40.0000    8.1050 O.2   113  ASN113     -0.2716
    139  ND2        8.3360   42.0720    7.4260 N.am  113  ASN113     -0.0877
@<TRIPOS>BOND
     1     1     2    1
     2    20    19    2
     3    23    24    1
     4    19    18    1
     5     2     3    1
     6     2     5    1
     7     4     3    2
     8    24    25    1
     9    24    27    1
    10    25    26    2
    11    18    17    1
    12    18    21    1
    13     5     6    1
    14    27    28    1
    15    29    28   ar
    16    29    31   ar
    17     6     7    2
    18     6     8   am
    19    28    30   ar
    20    21    22    1
    21    31    33   ar
    22    30    32   ar
    23    35    36    1
    24    11    12    2
    25    11    10    1
    26    33    32   ar
    27    33    34    1
    28     9    10    1
    29   135   134    2
    30   134   133    1
    31    36    37    1
    32    36    39    1
    33    37    38    2
    34    10    13    1
    35   136   133    1
    36   136   137    1
    37   133   132    1
    38    13    14    1
    39   139   137   am
    40    97    98    1
    41    97    94    1
    42    39    41    1
    43    39    40    1
    44   137   138    2
    45   100    98   ar
    46   100   102   ar
    47    98    99   ar
    48   102   103   ar
    49    96    95    2
    50    99   101   ar
    51   103   101   ar
    52    61    62   ar
    53    61    59   ar
    54    95    94    1
    55    42    43    1
    56    14    15    1
    57    14    16    1
    58    62    60   ar
    59    94    93    1
    60    59    56   ar
    61    47    46    1
    62    60    58   ar
    63    71    69   ar
    64    71    73   ar
    65    69    68   ar
    66    43    46    1
    67    43    44    1
    68    56    58   ar
    69    56    54   ar
    70    48    46    1
    71    51    50    1
    72    51    52    2
    73    50    49    1
    74    50    53    1
    75    58    57   ar
    76    44    45    2
    77   110   112   ar
    78   110   109   ar
    79    89    88    2
    80    63    64    1
    81    67    68    1
    82    67    64    1
    83    68    70   ar
    84    73    72   ar
    85   112   113   ar
    86    54    53    1
    87    54    55   ar
    88   108   109    1
    89   108   105    1
    90    64    65    1
    91    92    90    1
    92   109   111   ar
    93    88    87    1
    94   104   105    1
    95    90    91    1
    96    90    87    1
    97    57    55   ar
    98    70    72   ar
    99   105   106    1
   100   113   111   ar
   101   113   115   ar
   102    87    86    1
   103   111   114   ar
   104    65    74   am
   105    65    66    2
   106   115   117   ar
   107    74    75    1
   108   106   107    2
   109   114   116   ar
   110    83    82    2
   111    77    76    2
   112   117   116   ar
   113    78    75    1
   114    78    79    1
   115    75    76    1
   116    82    81    1
   117   124   123    1
   118   125   123    1
   119   122   119    1
   120   122   123    1
   121   118   119    1
   122    84    81    1
   123    84    85    1
   124   119   120    1
   125    81    80    1
   126   120   121    2
   127   126   127    1
   128   127   128    1
   129   127   130    1
   130   131   130    1
   131   128   129    2
