@<TRIPOS>MOLECULE
tmp/5hlnB01.pdb
 167 159 0 0 0
SMALL
GASTEIGER

@<TRIPOS>ATOM
      1  N         45.3110  -20.3690  -10.5760 N.3    26  ILE26      -0.1231
      2  CA        44.9250  -19.8650   -9.2680 C.3    26  ILE26       0.1696
      3  C         46.1510  -19.5360   -8.4250 C.2    26  ILE26       0.2632
      4  O         46.0460  -18.6750   -7.5630 O.2    26  ILE26      -0.2714
      5  CB        44.0870  -20.9070   -8.5120 C.3    26  ILE26       0.0266
      6  CG1       42.7920  -21.1470   -9.2790 C.3    26  ILE26       0.0019
      7  CG2       43.8320  -20.4850   -7.0480 C.3    26  ILE26       0.0020
      8  CD1       41.9560  -22.2610   -8.6910 C.3    26  ILE26       0.0001
      9  N         47.2800  -20.2340   -8.6130 N.am   27  GLY27      -0.1718
     10  CA        48.5000  -19.9620   -7.8220 C.2    27  GLY27       0.1480
     11  C         49.5590  -21.0470   -7.8770 C.2    27  GLY27       0.2820
     12  O         49.2740  -22.1560   -8.2910 O.2    27  GLY27      -0.2669
     13  N         50.7860  -20.6990   -7.4910 N.am   28  ASN28      -0.1937
     14  CA        51.9430  -21.6100   -7.5000 C.3    28  ASN28       0.1691
     15  C         52.5600  -21.7050   -6.1140 C.2    28  ASN28       0.2292
     16  O         52.3510  -20.8170   -5.2670 O.2    28  ASN28      -0.2864
     17  CB        53.0260  -21.1260   -8.4630 C.3    28  ASN28       0.1181
     18  CG        52.4640  -20.6110   -9.7770 C.2    28  ASN28       0.2629
     19  OD1       51.2920  -20.8090  -10.1070 O.2    28  ASN28      -0.2716
     20  ND2       53.3100  -19.9410  -10.5400 N.am   28  ASN28      -0.0877
     21  N         53.2240  -26.8960   -3.4150 N.3    31  PHE31      -0.1241
     22  CA        52.1510  -27.6910   -3.9230 C.3    31  PHE31       0.1605
     23  C         52.1120  -27.9250   -5.4320 C.2    31  PHE31       0.2264
     24  O         51.2930  -28.7110   -5.8880 O.2    31  PHE31      -0.2867
     25  CB        50.8270  -27.0770   -3.4470 C.3    31  PHE31       0.0534
     26  CG        50.4850  -25.7250   -4.0520 C.ar   31  PHE31      -0.0203
     27  CD1       50.0200  -25.6110   -5.3740 C.ar   31  PHE31      -0.0042
     28  CD2       50.5200  -24.5800   -3.2670 C.ar   31  PHE31      -0.0042
     29  CE1       49.6530  -24.3790   -5.8920 C.ar   31  PHE31      -0.0003
     30  CE2       50.1460  -23.3480   -3.7870 C.ar   31  PHE31      -0.0003
     31  CZ        49.7060  -23.2440   -5.0940 C.ar   31  PHE31      -0.0000
     32  N         47.9500  -24.8910   -9.2360 N.3    34  VAL34      -0.1245
     33  CA        46.5460  -25.1860   -9.3240 C.3    34  VAL34       0.1561
     34  C         45.9080  -24.3030  -10.3890 C.2    34  VAL34       0.2260
     35  O         46.2290  -23.1270  -10.5040 O.2    34  VAL34      -0.2867
     36  CB        45.8720  -24.9420   -7.9840 C.3    34  VAL34       0.0252
     37  CG1       44.3660  -25.1310   -8.1050 C.3    34  VAL34       0.0019
     38  CG2       46.4540  -25.8830   -6.9380 C.3    34  VAL34       0.0019
     39  N         39.1920  -27.9220   -9.4630 N.3    47  ALA47      -0.1245
     40  CA        40.5740  -27.5410   -9.1920 C.3    47  ALA47       0.1562
     41  C         41.5280  -28.5680   -9.8030 C.2    47  ALA47       0.2260
     42  O         41.4570  -29.7390   -9.4480 O.2    47  ALA47      -0.2867
     43  CB        40.7870  -27.4580   -7.6890 C.3    47  ALA47       0.0290
     44  N         45.1830  -29.5710   -9.6310 N.3    49  LYS49      -0.1245
     45  CA        46.5020  -29.5140   -9.0330 C.3    49  LYS49       0.1561
     46  C         47.4810  -30.3280   -9.8730 C.2    49  LYS49       0.2260
     47  O         47.2830  -31.5120  -10.0600 O.2    49  LYS49      -0.2867
     48  CB        46.4350  -30.0630   -7.6160 C.3    49  LYS49       0.0271
     49  CG        47.7090  -29.8880   -6.8300 C.3    49  LYS49       0.0035
     50  CD        47.5320  -30.4400   -5.4330 C.3    49  LYS49       0.0206
     51  CE        48.8220  -30.2970   -4.6620 C.3    49  LYS49       0.1093
     52  NZ        48.9770  -31.2630   -3.5580 N.3    49  LYS49      -0.1314
     53  N         38.9470  -32.5860    0.6680 N.3    74  VAL74      -0.1245
     54  CA        38.6800  -32.3550   -0.7590 C.3    74  VAL74       0.1561
     55  C         38.4410  -33.7030   -1.4030 C.2    74  VAL74       0.2260
     56  O         39.1700  -34.6600   -1.0890 O.2    74  VAL74      -0.2867
     57  CB        39.8140  -31.7110   -1.5980 C.3    74  VAL74       0.0252
     58  CG1       39.2090  -30.7800   -2.6520 C.3    74  VAL74       0.0019
     59  CG2       40.8180  -30.9600   -0.7750 C.3    74  VAL74       0.0019
     60  N         40.2540  -32.0700   -8.5550 N.3    96  LEU96      -0.1231
     61  CA        39.5240  -32.0850   -7.3010 C.3    96  LEU96       0.1693
     62  C         38.3620  -31.1090   -7.3600 C.2    96  LEU96       0.2592
     63  O         38.2770  -30.2830   -8.2650 O.2    96  LEU96      -0.2718
     64  CB        40.4700  -31.7040   -6.1570 C.3    96  LEU96       0.0284
     65  CG        41.8490  -32.3660   -6.2250 C.3    96  LEU96       0.0019
     66  CD1       42.8580  -31.5750   -7.0500 C.3    96  LEU96       0.0001
     67  CD2       42.3770  -32.5570   -4.8230 C.3    96  LEU96       0.0001
     68  N         37.4720  -31.2070   -6.3790 N.am   97  ASP97      -0.1960
     69  CA        36.4720  -30.1760   -6.1540 C.3    97  ASP97       0.1840
     70  C         37.1610  -28.8240   -6.0430 C.2    97  ASP97       0.2622
     71  O         38.1250  -28.6800   -5.3170 O.2    97  ASP97      -0.2715
     72  CB        35.7220  -30.4220   -4.8410 C.3    97  ASP97       0.1450
     73  CG        34.7550  -31.5750   -4.9180 C.2    97  ASP97       0.3671
     74  OD1       34.2060  -31.8260   -6.0190 O.co2  97  ASP97      -0.2456
     75  OD2       34.5450  -32.2190   -3.8640 O.co2  97  ASP97      -0.2456
     76  N         36.6640  -27.8500   -6.7910 N.am   98  TYR98      -0.1960
     77  CA        36.9630  -26.4430   -6.5580 C.3    98  TYR98       0.1771
     78  C         36.1540  -25.9250   -5.3540 C.2    98  TYR98       0.2619
     79  O         34.9190  -25.8520   -5.3850 O.2    98  TYR98      -0.2715
     80  CB        36.6070  -25.6240   -7.7990 C.3    98  TYR98       0.0574
     81  CG        36.9060  -24.1720   -7.6340 C.ar   98  TYR98      -0.0198
     82  CD1       38.1870  -23.6810   -7.8820 C.ar   98  TYR98      -0.0009
     83  CD2       35.9250  -23.2860   -7.1950 C.ar   98  TYR98      -0.0009
     84  CE1       38.4840  -22.3430   -7.7190 C.ar   98  TYR98       0.0417
     85  CE2       36.2150  -21.9490   -7.0240 C.ar   98  TYR98       0.0417
     86  CZ        37.5010  -21.4870   -7.2890 C.ar   98  TYR98       0.1957
     87  OH        37.8150  -20.1670   -7.1340 O.3    98  TYR98      -0.2866
     88  N         36.8560  -25.5810   -4.2900 N.am   99  VAL99      -0.1964
     89  CA        36.2600  -24.8530   -3.1910 C.3    99  VAL99       0.1712
     90  C         36.6370  -23.4050   -3.5100 C.2    99  VAL99       0.2458
     91  O         37.7270  -23.1770   -4.0210 O.2    99  VAL99      -0.2730
     92  CB        36.8390  -25.3250   -1.8530 C.3    99  VAL99       0.0289
     93  CG1       36.0830  -24.7010   -0.7000 C.3    99  VAL99       0.0023
     94  CG2       36.7960  -26.8430   -1.7400 C.3    99  VAL99       0.0023
     95  N         35.7490  -22.4220   -3.2410 N.am  100  PRO100     -0.2716
     96  CA        36.0080  -21.0730   -3.7800 C.3   100  PRO100      0.1536
     97  C         36.8930  -20.1290   -2.9490 C.2   100  PRO100      0.2598
     98  O         37.5110  -19.2400   -3.5280 O.2   100  PRO100     -0.2715
     99  CB        34.6060  -20.5050   -3.9370 C.3   100  PRO100      0.0310
    100  CG        33.8540  -21.1230   -2.8050 C.3   100  PRO100      0.0237
    101  CD        34.4910  -22.4470   -2.4700 C.3   100  PRO100      0.0939
    102  N         36.9720  -20.2970   -1.6340 N.am  101  GLU101     -0.1964
    103  CA        37.8260  -19.4150   -0.8210 C.3   101  GLU101      0.1733
    104  C         38.7510  -20.2720    0.0410 C.2   101  GLU101      0.2617
    105  O         38.6960  -21.4970   -0.0540 O.2   101  GLU101     -0.2715
    106  CB        36.9530  -18.4280    0.0080 C.3   101  GLU101      0.0429
    107  CG        37.5390  -17.0200    0.2410 C.3   101  GLU101      0.1163
    108  CD        37.8860  -16.2500   -1.0460 C.2   101  GLU101      0.3649
    109  OE1       36.9930  -16.0130   -1.8910 O.co2 101  GLU101     -0.2457
    110  OE2       39.0590  -15.8650   -1.2230 O.co2 101  GLU101     -0.2457
    111  N         39.6330  -19.6260    0.8160 N.am  102  THR102     -0.1951
    112  CA        40.4450  -20.2970    1.8380 C.3   102  THR102      0.1897
    113  C         40.4660  -19.5490    3.1700 C.2   102  THR102      0.2313
    114  O         40.2700  -18.3450    3.2110 O.2   102  THR102     -0.2863
    115  CB        41.9180  -20.5020    1.3950 C.3   102  THR102      0.1794
    116  OG1       42.7890  -19.5350    2.0240 O.3   102  THR102     -0.2208
    117  CG2       42.0620  -20.4730   -0.1430 C.3   102  THR102      0.0378
    118  N         42.9270  -16.7140    3.4160 N.3   105  ARG105     -0.1245
    119  CA        42.3230  -15.5640    2.7460 C.3   105  ARG105      0.1563
    120  C         41.2370  -14.8420    3.5710 C.2   105  ARG105      0.2260
    121  O         41.1320  -13.6120    3.5100 O.2   105  ARG105     -0.2867
    122  CB        41.7250  -15.9850    1.3970 C.3   105  ARG105      0.0307
    123  CG        42.7030  -15.9860    0.2250 C.3   105  ARG105      0.0489
    124  CD        41.8910  -15.8530   -1.0370 C.3   105  ARG105      0.2205
    125  NE        42.6330  -15.5770   -2.2540 N.pl3 105  ARG105     -0.0865
    126  CZ        42.0650  -15.1380   -3.3830 C.cat 105  ARG105      0.5346
    127  NH1       40.7440  -14.9000   -3.4560 N.pl3 105  ARG105      0.1354
    128  NH2       42.8200  -14.9280   -4.4600 N.pl3 105  ARG105      0.1354
    129  N         46.5350  -21.8560    4.8020 N.3   149  GLN149     -0.1231
    130  CA        46.5980  -21.8520    3.3210 C.3   149  GLN149      0.1698
    131  C         46.0070  -23.1280    2.7080 C.2   149  GLN149      0.2592
    132  O         45.5050  -23.0990    1.5790 O.2   149  GLN149     -0.2718
    133  CB        48.0400  -21.6240    2.8140 C.3   149  GLN149      0.0381
    134  CG        48.6440  -20.2610    3.1860 C.3   149  GLN149      0.0905
    135  CD        49.3600  -20.2550    4.5400 C.2   149  GLN149      0.2608
    136  OE1       48.7340  -20.2300    5.6100 O.2   149  GLN149     -0.2717
    137  NE2       50.6820  -20.2860    4.4950 N.am  149  GLN149     -0.0878
    138  N         46.0670  -24.2160    3.4900 N.am  150  ASN150     -0.1974
    139  CA        45.6080  -25.5600    3.1180 C.3   150  ASN150      0.1688
    140  C         44.1970  -25.9200    3.5480 C.2   150  ASN150      0.2292
    141  O         43.7940  -27.0760    3.3810 O.2   150  ASN150     -0.2864
    142  CB        46.5750  -26.6040    3.6980 C.3   150  ASN150      0.1181
    143  CG        47.8210  -26.7660    2.8520 C.2   150  ASN150      0.2629
    144  OD1       47.7770  -26.6240    1.6210 O.2   150  ASN150     -0.2716
    145  ND2       48.9370  -27.0920    3.4950 N.am  150  ASN150     -0.0877
    146  N         40.6450  -25.0320    2.6080 N.3   152  LEU152     -0.1245
    147  CA        39.6670  -24.4260    1.7220 C.3   152  LEU152      0.1561
    148  C         38.3690  -24.3020    2.5010 C.2   152  LEU152      0.2260
    149  O         38.1480  -25.0340    3.4660 O.2   152  LEU152     -0.2867
    150  CB        39.4380  -25.3010    0.5020 C.3   152  LEU152      0.0270
    151  CG        40.6760  -25.8030   -0.2410 C.3   152  LEU152      0.0019
    152  CD1       40.5240  -27.2520   -0.6570 C.3   152  LEU152      0.0001
    153  CD2       40.9300  -24.9290   -1.4480 C.3   152  LEU152      0.0001
    154  N         43.2240  -29.8490    2.4540 N.3   163  CYS163     -0.1221
    155  CA        43.8810  -30.1480    1.1490 C.3   163  CYS163      0.1808
    156  C         45.4220  -30.2460    1.1810 C.2   163  CYS163      0.2601
    157  O         46.0150  -30.2430    2.2520 O.2   163  CYS163     -0.2717
    158  CB        43.4230  -29.1420    0.1090 C.3   163  CYS163      0.0970
    159  SG        44.0160  -27.4810    0.3870 S.3   163  CYS163     -0.0800
    160  N         46.0510  -30.4030    0.0090 N.am  164  ASP164     -0.1973
    161  CA        47.5090  -30.6230   -0.1260 C.3   164  ASP164      0.1709
    162  C         48.0190  -31.7890    0.7220 C.2   164  ASP164      0.2293
    163  O         48.4160  -31.6140    1.8630 O.2   164  ASP164     -0.2864
    164  CB        48.2970  -29.3460    0.1980 C.3   164  ASP164      0.1436
    165  CG        49.8140  -29.4680   -0.0900 C.2   164  ASP164      0.3671
    166  OD1       50.2140  -30.1670   -1.0610 O.co2 164  ASP164     -0.2456
    167  OD2       50.6050  -28.8400    0.6650 O.co2 164  ASP164     -0.2456
@<TRIPOS>BOND
     1     1     2    1
     2    20    18   am
     3    35    34    2
     4    34    33    1
     5    19    18    2
     6    47    46    2
     7    46    45    1
     8    41    42    2
     9    41    40    1
    10    18    17    1
    11    44    45    1
    12    39    40    1
    13    33    32    1
    14    33    36    1
    15     6     8    1
    16     6     5    1
    17     2     5    1
    18     2     3    1
    19    40    43    1
    20    45    48    1
    21     9     3    1
    22     9    10    2
    23    60    61    1
    24     5     7    1
    25    17    14    1
    26     3     4    2
    27    12    11    2
    28    63    62    2
    29    37    36    1
    30    36    38    1
    31    82    84   ar
    32    82    81   ar
    33    11    10    1
    34    11    13   am
    35    80    81    1
    36    80    77    1
    37    84    86   ar
    38    81    83   ar
    39    48    49    1
    40    14    13    1
    41    14    15    1
    42    62    61    1
    43    62    68   am
    44    61    64    1
    45    86    87    1
    46    86    85   ar
    47    83    85   ar
    48    66    65    1
    49    49    50    1
    50    76    77    1
    51    76    70   am
    52    77    78    1
    53    68    69    1
    54    65    64    1
    55    65    67    1
    56    69    70    1
    57    69    72    1
    58    15    16    2
    59    70    71    2
    60    74    73   ar
    61    29    27   ar
    62    29    31   ar
    63    24    23    2
    64    50    51    1
    65    23    22    1
    66    79    78    2
    67    27    26   ar
    68    78    88   am
    69    31    30   ar
    70    73    72    1
    71    73    75   ar
    72    51    52    1
    73   128   126    1
    74    88    89    1
    75    26    25    1
    76    26    28   ar
    77    91    90    2
    78    99    96    1
    79    99   100    1
    80    22    25    1
    81    22    21    1
    82    30    28   ar
    83    96    95    1
    84    96    97    1
    85    98    97    2
    86    90    95   am
    87    90    89    1
    88   127   126    1
    89   126   125    2
    90    95   101    1
    91    89    92    1
    92    97   102   am
    93   100   101    1
    94    58    57    1
    95   125   124    1
    96   109   108   ar
    97    92    94    1
    98    92    93    1
    99   102   103    1
   100    57    59    1
   101    57    54    1
   102   153   151    1
   103    55    56    2
   104    55    54    1
   105   110   108   ar
   106   166   165   ar
   107   108   107    1
   108   124   123    1
   109   103   106    1
   110   103   104    1
   111    54    53    1
   112   152   151    1
   113   151   150    1
   114   117   115    1
   115   161   160    1
   116   161   164    1
   117   161   162    1
   118   165   164    1
   119   165   167   ar
   120   105   104    2
   121   106   107    1
   122   160   156   am
   123   104   111   am
   124   158   159    1
   125   158   155    1
   126   123   122    1
   127   150   147    1
   128   162   163    2
   129   111   112    1
   130   155   156    1
   131   155   154    1
   132   156   157    2
   133   115   112    1
   134   115   116    1
   135   122   119    1
   136   132   131    2
   137   144   143    2
   138   147   148    1
   139   147   146    1
   140   112   113    1
   141   148   149    2
   142   131   130    1
   143   131   138   am
   144   119   118    1
   145   119   120    1
   146   133   134    1
   147   133   130    1
   148   143   145   am
   149   143   142    1
   150   139   138    1
   151   139   140    1
   152   139   142    1
   153   113   114    2
   154   134   135    1
   155   130   129    1
   156   141   140    2
   157   121   120    2
   158   137   135   am
   159   135   136    2
