@<TRIPOS>MOLECULE
tmp/5hlpA00.pdb
 150 141 0 0 0
SMALL
GASTEIGER

@<TRIPOS>ATOM
      1  N         18.0660   25.9100  -19.0550 N.3    27  ILE27      -0.1231
      2  CA        16.9840   26.7990  -19.6100 C.3    27  ILE27       0.1692
      3  C         16.2250   27.5690  -18.5510 C.2    27  ILE27       0.2592
      4  O         15.3010   28.3200  -18.8860 O.2    27  ILE27      -0.2718
      5  CB        15.9580   26.0560  -20.4940 C.3    27  ILE27       0.0266
      6  CG1       15.2820   24.8910  -19.7460 C.3    27  ILE27       0.0019
      7  CG2       16.6450   25.5430  -21.7490 C.3    27  ILE27       0.0020
      8  CD1       13.9520   24.4940  -20.3410 C.3    27  ILE27       0.0001
      9  N         16.6540   27.4560  -17.2950 N.am   28  GLY28      -0.1957
     10  CA        15.8770   27.9310  -16.1810 C.3    28  GLY28       0.1869
     11  C         16.5390   27.7210  -14.8650 C.2    28  GLY28       0.2309
     12  O         17.4860   26.9230  -14.7560 O.2    28  GLY28      -0.2863
     13  N         14.5660   26.7790   -5.9380 N.3    32  PHE32      -0.1241
     14  CA        14.5000   25.3200   -5.9890 C.3    32  PHE32       0.1605
     15  C         15.7490   24.6000   -6.5490 C.2    32  PHE32       0.2264
     16  O         16.1420   23.5470   -6.0380 O.2    32  PHE32      -0.2867
     17  CB        13.2450   24.9170   -6.7670 C.3    32  PHE32       0.0534
     18  CG        13.2430   25.3390   -8.2120 C.ar   32  PHE32      -0.0203
     19  CD1       13.9000   24.5730   -9.1780 C.ar   32  PHE32      -0.0042
     20  CD2       12.5570   26.4750   -8.6170 C.ar   32  PHE32      -0.0042
     21  CE1       13.8810   24.9370  -10.5140 C.ar   32  PHE32      -0.0003
     22  CE2       12.5370   26.8500   -9.9450 C.ar   32  PHE32      -0.0003
     23  CZ        13.1860   26.0760  -10.9000 C.ar   32  PHE32      -0.0000
     24  N         16.6030   24.1140  -14.2030 N.3    35  VAL35      -0.1245
     25  CA        15.7990   23.4220  -15.1710 C.3    35  VAL35       0.1561
     26  C         16.6020   23.2410  -16.4740 C.2    35  VAL35       0.2260
     27  O         17.2660   24.1610  -16.9260 O.2    35  VAL35      -0.2867
     28  CB        14.5160   24.2060  -15.5060 C.3    35  VAL35       0.0252
     29  CG1       13.5750   23.3490  -16.3400 C.3    35  VAL35       0.0019
     30  CG2       13.8350   24.7130  -14.2220 C.3    35  VAL35       0.0019
     31  N         11.9140   18.5880  -20.4980 N.3    48  ALA48      -0.1245
     32  CA        12.4910   19.4260  -19.4930 C.3    48  ALA48       0.1562
     33  C         12.7380   18.5660  -18.2710 C.2    48  ALA48       0.2260
     34  O         12.0250   17.5800  -18.0300 O.2    48  ALA48      -0.2867
     35  CB        11.5510   20.5600  -19.1510 C.3    48  ALA48       0.0290
     36  N         13.3360   19.3360  -14.2070 N.3    50  LYS50      -0.1245
     37  CA        13.4640   20.2160  -13.0800 C.3    50  LYS50       0.1561
     38  C         14.2340   19.4950  -11.9950 C.2    50  LYS50       0.2260
     39  O         13.7800   18.4870  -11.5020 O.2    50  LYS50      -0.2867
     40  CB        12.0760   20.6420  -12.5830 C.3    50  LYS50       0.0271
     41  CG        12.1070   21.6600  -11.4480 C.3    50  LYS50       0.0035
     42  CD        10.7910   22.4120  -11.3110 C.3    50  LYS50       0.0206
     43  CE        10.8180   23.3070  -10.0920 C.3    50  LYS50       0.1093
     44  NZ         9.5100   23.2780   -9.3860 N.3    50  LYS50      -0.1314
     45  N          0.7480   19.4160  -18.0570 N.3    75  VAL75      -0.1245
     46  CA         2.0390   18.8850  -18.4300 C.3    75  VAL75       0.1561
     47  C          2.2540   17.5400  -17.7220 C.2    75  VAL75       0.2260
     48  O          1.9470   17.3750  -16.5430 O.2    75  VAL75      -0.2867
     49  CB         3.2180   19.8590  -18.1010 C.3    75  VAL75       0.0252
     50  CG1        3.4460   19.9310  -16.6080 C.3    75  VAL75       0.0019
     51  CG2        4.5150   19.4270  -18.7820 C.3    75  VAL75       0.0019
     52  N          9.8560   16.2700  -17.4100 N.3    92  LEU92      -0.1231
     53  CA         8.5600   16.7370  -17.8910 C.3    92  LEU92       0.1693
     54  C          8.5660   16.8380  -19.3720 C.2    92  LEU92       0.2592
     55  O          9.6330   16.9230  -19.9750 O.2    92  LEU92      -0.2718
     56  CB         8.2660   18.0810  -17.2800 C.3    92  LEU92       0.0284
     57  CG         8.2000   18.0350  -15.7440 C.3    92  LEU92       0.0019
     58  CD1        8.6830   19.3470  -15.1560 C.3    92  LEU92       0.0001
     59  CD2        6.8120   17.7080  -15.2470 C.3    92  LEU92       0.0001
     60  N          7.3980   16.8460  -19.9730 N.am   93  ASP93      -0.1960
     61  CA         7.3380   17.1460  -21.4140 C.3    93  ASP93       0.1840
     62  C          7.7830   18.6000  -21.7010 C.2    93  ASP93       0.2622
     63  O          7.5070   19.5200  -20.8970 O.2    93  ASP93      -0.2715
     64  CB         5.9370   16.9540  -21.9900 C.3    93  ASP93       0.1450
     65  CG         5.6310   15.4970  -22.4200 C.2    93  ASP93       0.3671
     66  OD1        6.5570   14.7260  -22.8430 O.co2  93  ASP93      -0.2456
     67  OD2        4.4250   15.1380  -22.3810 O.co2  93  ASP93      -0.2456
     68  N          8.4530   18.7750  -22.8430 N.am   94  TYR94      -0.1960
     69  CA         8.9830   20.0590  -23.2590 C.3    94  TYR94       0.1771
     70  C          8.1520   20.6590  -24.3520 C.2    94  TYR94       0.2619
     71  O          7.8650   20.0050  -25.3260 O.2    94  TYR94      -0.2715
     72  CB        10.4060   19.9640  -23.7330 C.3    94  TYR94       0.0574
     73  CG        10.9910   21.2960  -24.1420 C.ar   94  TYR94      -0.0198
     74  CD1       11.4540   22.2020  -23.1830 C.ar   94  TYR94      -0.0009
     75  CD2       11.0750   21.6590  -25.4860 C.ar   94  TYR94      -0.0009
     76  CE1       11.9950   23.4200  -23.5650 C.ar   94  TYR94       0.0417
     77  CE2       11.6270   22.8640  -25.8740 C.ar   94  TYR94       0.0417
     78  CZ        12.0840   23.7340  -24.9250 C.ar   94  TYR94       0.1957
     79  OH        12.6470   24.9300  -25.3280 O.3    94  TYR94      -0.2866
     80  N          7.7310   21.8980  -24.1430 N.am   95  VAL95      -0.1964
     81  CA         6.8840   22.5950  -25.0850 C.3    95  VAL95       0.1712
     82  C          7.5690   23.9480  -25.2430 C.2    95  VAL95       0.2458
     83  O          7.8530   24.6010  -24.2520 O.2    95  VAL95      -0.2730
     84  CB         5.4600   22.7240  -24.5520 C.3    95  VAL95       0.0289
     85  CG1        4.5930   23.4330  -25.5830 C.3    95  VAL95       0.0023
     86  CG2        4.8770   21.3540  -24.2080 C.3    95  VAL95       0.0023
     87  N          7.9190   24.3270  -26.4680 N.am   96  PRO96      -0.2727
     88  CA         8.9010   25.4330  -26.5830 C.3    96  PRO96       0.1402
     89  C          8.3410   26.8620  -26.3050 C.2    96  PRO96       0.2269
     90  O          9.1230   27.7560  -25.9630 O.2    96  PRO96      -0.2865
     91  CB         9.4510   25.2720  -28.0080 C.3    96  PRO96       0.0296
     92  CG         8.3620   24.5590  -28.7600 C.3    96  PRO96       0.0237
     93  CD         7.4120   23.8960  -27.7860 C.3    96  PRO96       0.0939
     94  N          4.9990   29.5740  -24.6190 N.3    98  THR98      -0.1218
     95  CA         3.9690   29.8180  -23.5840 C.3    98  THR98       0.1862
     96  C          2.9920   30.8530  -24.0820 C.2    98  THR98       0.2287
     97  O          3.2970   31.5910  -25.0330 O.2    98  THR98      -0.2866
     98  CB         4.5480   30.4240  -22.2950 C.3    98  THR98       0.1770
     99  OG1        5.2810   31.5650  -22.6920 O.3    98  THR98      -0.2211
    100  CG2        5.4650   29.4880  -21.6110 C.3    98  THR98       0.0375
    101  N          4.6310   34.2880  -23.9820 N.3   101  ARG101     -0.1245
    102  CA         5.4970   34.6690  -25.1120 C.3   101  ARG101      0.1563
    103  C          4.7660   34.9140  -26.3950 C.2   101  ARG101      0.2260
    104  O          5.0980   35.7980  -27.1420 O.2   101  ARG101     -0.2867
    105  CB         6.4930   33.6050  -25.4010 C.3   101  ARG101      0.0307
    106  CG         7.5000   33.4070  -24.2830 C.3   101  ARG101      0.0489
    107  CD         8.2610   32.1130  -24.5630 C.3   101  ARG101      0.2205
    108  NE         9.7010   32.3310  -24.4850 N.pl3 101  ARG101     -0.0865
    109  CZ        10.5660   32.1490  -25.4730 C.cat 101  ARG101      0.5346
    110  NH1       11.8230   32.3840  -25.2140 N.pl3 101  ARG101      0.1354
    111  NH2       10.2120   31.7290  -26.6910 N.pl3 101  ARG101      0.1354
    112  N          2.7790   32.8010  -18.1480 N.3   145  GLN145     -0.1231
    113  CA         4.1080   32.2040  -18.2320 C.3   145  GLN145      0.1698
    114  C          4.1540   30.7350  -17.8410 C.2   145  GLN145      0.2592
    115  O          5.2190   30.0930  -17.9780 O.2   145  GLN145     -0.2718
    116  CB         5.1140   32.9500  -17.3220 C.3   145  GLN145      0.0381
    117  CG         5.3280   34.4360  -17.5820 C.3   145  GLN145      0.0905
    118  CD         4.2370   35.4000  -17.0100 C.2   145  GLN145      0.2608
    119  OE1        3.2040   34.9750  -16.5010 O.2   145  GLN145     -0.2717
    120  NE2        4.4640   36.7090  -17.1510 N.am  145  GLN145     -0.0878
    121  N          3.0480   30.2400  -17.2770 N.am  146  ASN146     -0.1974
    122  CA         2.9000   28.8930  -16.7440 C.3   146  ASN146      0.1688
    123  C          1.9060   28.1660  -17.5370 C.2   146  ASN146      0.2292
    124  O          1.5340   27.0620  -17.1670 O.2   146  ASN146     -0.2864
    125  CB         2.4820   28.8980  -15.2470 C.3   146  ASN146      0.1181
    126  CG         3.6470   29.2440  -14.2940 C.2   146  ASN146      0.2629
    127  OD1        4.7890   29.0460  -14.6190 O.2   146  ASN146     -0.2716
    128  ND2        3.3370   29.7280  -13.1170 N.am  146  ASN146     -0.0877
    129  N          1.9100   26.4180  -21.0140 N.3   148  LEU148     -0.1245
    130  CA         2.6430   25.9170  -22.1680 C.3   148  LEU148      0.1561
    131  C          1.7540   25.8860  -23.3840 C.2   148  LEU148      0.2260
    132  O          0.5740   25.5920  -23.2770 O.2   148  LEU148     -0.2867
    133  CB         3.1720   24.5280  -21.8840 C.3   148  LEU148      0.0270
    134  CG         4.1420   24.4370  -20.7210 C.3   148  LEU148      0.0019
    135  CD1        4.5240   22.9800  -20.4700 C.3   148  LEU148      0.0001
    136  CD2        5.3830   25.2520  -20.9800 C.3   148  LEU148      0.0001
    137  N          1.4640   24.1570  -16.4720 N.3   159  CYS159     -0.1221
    138  CA         2.6840   23.6410  -15.8810 C.3   159  CYS159      0.1808
    139  C          3.0720   24.4410  -14.6320 C.2   159  CYS159      0.2601
    140  O          2.3390   25.3190  -14.1980 O.2   159  CYS159     -0.2717
    141  CB         3.7780   23.6330  -16.9290 C.3   159  CYS159      0.0970
    142  SG         4.5530   25.2370  -17.0990 S.3   159  CYS159     -0.0800
    143  N          4.1900   24.0710  -14.0210 N.am  160  ASP160     -0.1973
    144  CA         4.7290   24.6630  -12.7680 C.3   160  ASP160      0.1709
    145  C          3.8430   24.5040  -11.5530 C.2   160  ASP160      0.2293
    146  O          3.1800   25.4620  -11.0940 O.2   160  ASP160     -0.2864
    147  CB         5.1120   26.1350  -12.9440 C.3   160  ASP160      0.1436
    148  CG         6.1080   26.6280  -11.8580 C.2   160  ASP160      0.3671
    149  OD1        5.9210   26.2770  -10.6490 O.co2 160  ASP160     -0.2456
    150  OD2        7.0770   27.3630  -12.2420 O.co2 160  ASP160     -0.2456
@<TRIPOS>BOND
     1    92    91    1
     2    92    93    1
     3    91    88    1
     4    93    87    1
     5   104   103    2
     6   111   109    1
     7    88    87    1
     8    88    89    1
     9    87    82   am
    10   103   102    1
    11    89    90    2
    12    77    75   ar
    13    77    78   ar
    14    85    84    1
    15    75    73   ar
    16   109   110    1
    17   109   108    2
    18   105   102    1
    19   105   106    1
    20    79    78    1
    21    71    70    2
    22    82    81    1
    23    82    83    2
    24   102   101    1
    25    81    84    1
    26    81    80    1
    27    97    96    2
    28    78    76   ar
    29    94    95    1
    30   107   108    1
    31   107   106    1
    32    84    86    1
    33    70    80   am
    34    70    69    1
    35    73    72    1
    36    73    74   ar
    37    96    95    1
    38    72    69    1
    39    95    98    1
    40    76    74   ar
    41   131   132    2
    42   131   130    1
    43    69    68    1
    44    68    62   am
    45    66    65   ar
    46    99    98    1
    47    65    67   ar
    48    65    64    1
    49    98   100    1
    50   130   133    1
    51   130   129    1
    52    64    61    1
    53   133   134    1
    54     7     5    1
    55    62    61    1
    56    62    63    2
    57    61    60    1
    58   136   134    1
    59   134   135    1
    60    31    32    1
    61     5     6    1
    62     5     2    1
    63     8     6    1
    64    55    54    2
    65    60    54   am
    66     2     1    1
    67     2     3    1
    68    32    35    1
    69    32    33    1
    70    54    53    1
    71     4     3    2
    72    51    49    1
    73     3     9   am
    74    46    49    1
    75    46    45    1
    76    46    47    1
    77    33    34    2
    78   113   112    1
    79   113   114    1
    80   113   116    1
    81    49    50    1
    82   115   114    2
    83    53    52    1
    84    53    56    1
    85   114   121   am
    86    47    48    2
    87   117   116    1
    88   117   118    1
    89   123   124    2
    90   123   122    1
    91     9    10    1
    92    56    57    1
    93   121   122    1
    94   120   118   am
    95   142   141    1
    96   118   119    2
    97   141   138    1
    98    27    26    2
    99   122   125    1
   100    26    25    1
   101   137   138    1
   102    29    28    1
   103    10    11    1
   104   138   139    1
   105    57    59    1
   106    57    58    1
   107    28    25    1
   108    28    30    1
   109   125   126    1
   110    25    24    1
   111    11    12    2
   112   139   140    2
   113   139   143   am
   114   127   126    2
   115   126   128   am
   116    36    37    1
   117   143   144    1
   118    37    40    1
   119    37    38    1
   120   147   144    1
   121   147   148    1
   122   144   145    1
   123    40    41    1
   124   150   148   ar
   125    38    39    2
   126   148   149   ar
   127   145   146    2
   128    41    42    1
   129    42    43    1
   130    23    21   ar
   131    23    22   ar
   132    21    19   ar
   133    43    44    1
   134    22    20   ar
   135    19    18   ar
   136    20    18   ar
   137    18    17    1
   138    17    14    1
   139    15    16    2
   140    15    14    1
   141    14    13    1
