@<TRIPOS>MOLECULE
tmp/5hlsA00.pdb
 126 122 0 0 0
SMALL
GASTEIGER

@<TRIPOS>ATOM
      1  N          3.6430   -0.5870    0.2140 N.3    40  TRP40      -0.1228
      2  CA         3.3300   -1.8730    0.8270 C.3    40  TRP40       0.1722
      3  C          4.5560   -2.6730    1.2810 C.2    40  TRP40       0.2437
      4  O          4.5390   -3.1740    2.3840 O.2    40  TRP40      -0.2733
      5  CB         2.3610   -2.7040   -0.0220 C.3    40  TRP40       0.0563
      6  CG         2.8050   -2.9330   -1.3880 C.ar   40  TRP40       0.0003
      7  CD1        2.4900   -2.1880   -2.5000 C.ar   40  TRP40       0.0946
      8  CD2        3.5540   -4.0530   -1.8550 C.ar   40  TRP40       0.0152
      9  NE1        3.1430   -2.6970   -3.6010 N.ar   40  TRP40      -0.2442
     10  CE2        3.7320   -3.8860   -3.2490 C.ar   40  TRP40       0.0810
     11  CE3        4.0830   -5.1910   -1.2350 C.ar   40  TRP40       0.0012
     12  CZ2        4.4470   -4.7960   -4.0190 C.ar   40  TRP40       0.0191
     13  CZ3        4.8200   -6.0770   -2.0020 C.ar   40  TRP40       0.0001
     14  CH2        5.0020   -5.8750   -3.3700 C.ar   40  TRP40       0.0015
     15  N          5.6270   -2.7880    0.4690 N.am   41  PRO41      -0.2718
     16  CA         6.7730   -3.5730    0.9380 C.3    41  PRO41       0.1535
     17  C          7.4540   -3.0310    2.1770 C.2    41  PRO41       0.2598
     18  O          8.3270   -3.7260    2.7580 O.2    41  PRO41      -0.2715
     19  CB         7.7640   -3.4960   -0.2340 C.3    41  PRO41       0.0310
     20  CG         7.0350   -2.8640   -1.3680 C.3    41  PRO41       0.0237
     21  CD         5.9760   -2.0280   -0.7480 C.3    41  PRO41       0.0939
     22  N          7.1890   -1.7570    2.4900 N.am   42  PHE42      -0.1974
     23  CA         7.8530   -1.0950    3.6250 C.3    42  PHE42       0.1639
     24  C          6.9400   -0.9570    4.8150 C.2    42  PHE42       0.2290
     25  O          7.3410   -0.3560    5.7790 O.2    42  PHE42      -0.2864
     26  CB         8.3940    0.2790    3.2350 C.3    42  PHE42       0.0560
     27  CG         9.2750    0.2520    1.9900 C.ar   42  PHE42      -0.0200
     28  CD1       10.6060   -0.0280    2.0850 C.ar   42  PHE42      -0.0042
     29  CD2        8.7140    0.3810    0.7390 C.ar   42  PHE42      -0.0042
     30  CE1       11.4290   -0.0000    0.9550 C.ar   42  PHE42      -0.0003
     31  CE2        9.5010    0.3390   -0.3970 C.ar   42  PHE42      -0.0003
     32  CZ        10.8500    0.1240   -0.2900 C.ar   42  PHE42      -0.0000
     33  N          5.8860   -3.3620    6.8650 N.3    44  GLN44      -0.1245
     34  CA         6.1940   -4.3150    7.9120 C.3    44  GLN44       0.1566
     35  C          7.6380   -4.7010    7.7620 C.2    44  GLN44       0.2260
     36  O          8.2500   -4.4820    6.7030 O.2    44  GLN44      -0.2867
     37  CB         5.2680   -5.5470    7.8390 C.3    44  GLN44       0.0367
     38  CG         5.1640   -6.2840    6.5120 C.3    44  GLN44       0.0905
     39  CD         4.5520   -5.4620    5.3740 C.2    44  GLN44       0.2608
     40  OE1        3.4410   -4.9150    5.4800 O.2    44  GLN44      -0.2717
     41  NE2        5.2710   -5.4140    4.2400 N.am   44  GLN44      -0.0878
     42  N         10.8200   -6.9170    6.8050 N.3    46  VAL46      -0.1245
     43  CA        11.0230   -7.8850    5.7400 C.3    46  VAL46       0.1561
     44  C         10.8690   -9.3050    6.2970 C.2    46  VAL46       0.2260
     45  O         11.6220   -9.7080    7.1930 O.2    46  VAL46      -0.2867
     46  CB        12.3990   -7.7220    5.0960 C.3    46  VAL46       0.0252
     47  CG1       12.6100   -8.8220    4.0660 C.3    46  VAL46       0.0019
     48  CG2       12.4940   -6.3440    4.4610 C.3    46  VAL46       0.0019
     49  N          9.4980  -14.4980    1.8320 N.3    51  LEU51      -0.1245
     50  CA         9.9590  -13.9390    0.5740 C.3    51  LEU51       0.1561
     51  C         11.0770  -14.7970   -0.0450 C.2    51  LEU51       0.2260
     52  O         11.5120  -14.5270   -1.1610 O.2    51  LEU51      -0.2867
     53  CB        10.4260  -12.4840    0.8020 C.3    51  LEU51       0.0270
     54  CG         9.3700  -11.3660    0.9720 C.3    51  LEU51       0.0019
     55  CD1        9.9890  -10.0780    1.5020 C.3    51  LEU51       0.0001
     56  CD2        8.6460  -11.0770   -0.3510 C.3    51  LEU51       0.0001
     57  N         14.2400  -14.9780    0.9200 N.3    53  LEU53      -0.1245
     58  CA        15.4920  -14.1980    0.9350 C.3    53  LEU53       0.1561
     59  C         16.3400  -14.5860    2.1380 C.2    53  LEU53       0.2260
     60  O         16.5480  -13.8120    3.0810 O.2    53  LEU53      -0.2867
     61  CB        15.2120  -12.6900    0.9600 C.3    53  LEU53       0.0270
     62  CG        14.2090  -12.2150   -0.0940 C.3    53  LEU53       0.0019
     63  CD1       13.8680  -10.7420    0.0870 C.3    53  LEU53       0.0001
     64  CD2       14.7510  -12.4920   -1.4910 C.3    53  LEU53       0.0001
     65  N         18.9680  -12.0960    3.3760 N.3    56  TYR56      -0.1241
     66  CA        18.5880  -10.7100    3.6750 C.3    56  TYR56       0.1605
     67  C         19.2170  -10.2310    4.9700 C.2    56  TYR56       0.2264
     68  O         19.8610   -9.1850    5.0190 O.2    56  TYR56      -0.2867
     69  CB        17.0520  -10.5740    3.7470 C.3    56  TYR56       0.0534
     70  CG        16.6070   -9.1310    3.8990 C.ar   56  TYR56      -0.0201
     71  CD1       16.6030   -8.2690    2.7960 C.ar   56  TYR56      -0.0009
     72  CD2       16.4570   -8.5670    5.1570 C.ar   56  TYR56      -0.0009
     73  CE1       16.3310   -6.9160    2.9360 C.ar   56  TYR56       0.0417
     74  CE2       16.2380   -7.2030    5.3090 C.ar   56  TYR56       0.0417
     75  CZ        16.1080   -6.4020    4.1970 C.ar   56  TYR56       0.1957
     76  OH        15.8730   -5.0780    4.3460 O.3    56  TYR56      -0.2866
     77  N         17.2070   -0.8400    1.8460 N.3    95  CYS95      -0.1235
     78  CA        16.6490   -1.2390    0.5410 C.3    95  CYS95       0.1677
     79  C         17.6760   -1.0470   -0.5730 C.2    95  CYS95       0.2270
     80  O         17.7830   -1.8820   -1.4650 O.2    95  CYS95      -0.2867
     81  CB        15.3490   -0.4810    0.2430 C.3    95  CYS95       0.0956
     82  SG        14.5340   -0.8800   -1.3310 S.3    95  CYS95      -0.0801
     83  N         20.4720   -3.8670   -0.1990 N.3    98  TYR98      -0.1227
     84  CA        20.1030   -5.2410   -0.5330 C.3    98  TYR98       0.1736
     85  C         19.7650   -5.4150   -2.0330 C.2    98  TYR98       0.2595
     86  O         20.1460   -6.4120   -2.6480 O.2    98  TYR98      -0.2718
     87  CB        18.9540   -5.7570    0.3810 C.3    98  TYR98       0.0548
     88  CG        18.6060   -7.2270    0.1370 C.ar   98  TYR98      -0.0200
     89  CD1       19.3340   -8.2480    0.7370 C.ar   98  TYR98      -0.0009
     90  CD2       17.6380   -7.5920   -0.8080 C.ar   98  TYR98      -0.0009
     91  CE1       19.1130   -9.5820    0.4210 C.ar   98  TYR98       0.0417
     92  CE2       17.3950   -8.9270   -1.1190 C.ar   98  TYR98       0.0417
     93  CZ        18.1330   -9.9180   -0.4990 C.ar   98  TYR98       0.1957
     94  OH        17.9050  -11.2480   -0.8140 O.3    98  TYR98      -0.2866
     95  N         19.0930   -4.4250   -2.6220 N.am   99  ASN99      -0.1974
     96  CA        18.7870   -4.4220   -4.0410 C.3    99  ASN99       0.1688
     97  C         19.7700   -3.6230   -4.8800 C.2    99  ASN99       0.2292
     98  O         20.8830   -3.3420   -4.4550 O.2    99  ASN99      -0.2864
     99  CB        17.3360   -3.9640   -4.1770 C.3    99  ASN99       0.1181
    100  CG        16.4150   -4.7850   -3.2870 C.2    99  ASN99       0.2629
    101  OD1       16.3930   -6.0020   -3.4170 O.2    99  ASN99      -0.2716
    102  ND2       15.8440   -4.1650   -2.2490 N.am   99  ASN99      -0.0877
    103  N         12.7330   -2.9300   -9.3990 N.3   104  ASP104     -0.1225
    104  CA        11.4380   -2.2940   -9.0830 C.3   104  ASP104      0.1805
    105  C         11.3530   -1.8550   -7.6340 C.2   104  ASP104      0.2597
    106  O         10.7930   -0.8000   -7.3480 O.2   104  ASP104     -0.2718
    107  CB        10.2490   -3.1540   -9.5040 C.3   104  ASP104      0.1424
    108  CG         9.8360   -2.8970  -10.9430 C.2   104  ASP104      0.3668
    109  OD1       10.5870   -2.2440  -11.7160 O.co2 104  ASP104     -0.2456
    110  OD2        8.7740   -3.4140  -11.3320 O.co2 104  ASP104     -0.2456
    111  N         11.8910   -2.6440   -6.7040 N.am  105  ILE105     -0.1980
    112  CA        11.8240   -2.2670   -5.2900 C.3   105  ILE105      0.1595
    113  C         12.6020   -0.9640   -5.0410 C.2   105  ILE105      0.2287
    114  O         12.2370   -0.1530   -4.1870 O.2   105  ILE105     -0.2864
    115  CB        12.2860   -3.4180   -4.3500 C.3   105  ILE105      0.0276
    116  CG1       12.1620   -3.0270   -2.8590 C.3   105  ILE105      0.0022
    117  CG2       13.7260   -3.8200   -4.5900 C.3   105  ILE105      0.0022
    118  CD1       10.7520   -2.7720   -2.4030 C.3   105  ILE105      0.0001
    119  N         10.5610    1.9450   -6.1610 N.3   108  MET108     -0.1245
    120  CA         9.5740    2.2140   -5.1170 C.3   108  MET108      0.1570
    121  C         10.2170    3.0050   -3.9810 C.2   108  MET108      0.2261
    122  O          9.7070    4.0410   -3.5750 O.2   108  MET108     -0.2867
    123  CB         9.0380    0.9150   -4.5670 C.3   108  MET108      0.0387
    124  CG         8.2690    0.1390   -5.6020 C.3   108  MET108      0.0595
    125  SD         8.0600   -1.5940   -5.1850 S.3   108  MET108     -0.1393
    126  CE         6.4060   -1.5080   -4.4840 C.3   108  MET108      0.0692
@<TRIPOS>BOND
     1   109   108   ar
     2   110   108   ar
     3   108   107    1
     4   107   104    1
     5   103   104    1
     6   104   105    1
     7   105   106    2
     8   105   111   am
     9   111   112    1
    10   119   120    1
    11   124   125    1
    12   124   123    1
    13   112   113    1
    14   112   115    1
    15   125   126    1
    16   120   123    1
    17   120   121    1
    18   113   114    2
    19    97    98    2
    20    97    96    1
    21   117   115    1
    22   115   116    1
    23    99    96    1
    24    99   100    1
    25    96    95    1
    26    12    14   ar
    27    12    10   ar
    28   121   122    2
    29     9    10   ar
    30     9     7   ar
    31   101   100    2
    32    14    13   ar
    33   100   102   am
    34    10     8   ar
    35   116   118    1
    36    86    85    2
    37    95    85   am
    38     7     6   ar
    39    85    84    1
    40    13    11   ar
    41     8     6   ar
    42     8    11   ar
    43    64    62    1
    44    80    79    2
    45     6     5    1
    46    20    21    1
    47    20    19    1
    48    82    81    1
    49    52    51    2
    50    92    90   ar
    51    92    93   ar
    52    94    93    1
    53    90    88   ar
    54    21    15    1
    55    79    78    1
    56    84    83    1
    57    84    87    1
    58    93    91   ar
    59    31    32   ar
    60    31    29   ar
    61    56    54    1
    62    32    30   ar
    63    19    16    1
    64    62    63    1
    65    62    61    1
    66    51    50    1
    67     5     2    1
    68    88    87    1
    69    88    89   ar
    70     1     2    1
    71    81    78    1
    72    91    89   ar
    73    15    16    1
    74    15     3   am
    75    78    77    1
    76    50    53    1
    77    50    49    1
    78    29    27   ar
    79    53    54    1
    80     2     3    1
    81    57    58    1
    82    58    61    1
    83    58    59    1
    84    16    17    1
    85    30    28   ar
    86    54    55    1
    87     3     4    2
    88    27    28   ar
    89    27    26    1
    90    59    60    2
    91    17    22   am
    92    17    18    2
    93    22    23    1
    94    71    73   ar
    95    71    70   ar
    96    73    75   ar
    97    26    23    1
    98    65    66    1
    99    23    24    1
   100    66    69    1
   101    66    67    1
   102    69    70    1
   103    70    72   ar
   104    47    46    1
   105    75    76    1
   106    75    74   ar
   107    41    39   am
   108    48    46    1
   109    24    25    2
   110    67    68    2
   111    46    43    1
   112    72    74   ar
   113    39    40    2
   114    39    38    1
   115    43    44    1
   116    43    42    1
   117    44    45    2
   118    38    37    1
   119    36    35    2
   120    33    34    1
   121    35    34    1
   122    37    34    1
