@<TRIPOS>MOLECULE
tmp/5hlwA00.pdb
 188 180 0 0 0
SMALL
GASTEIGER

@<TRIPOS>ATOM
      1  N         17.4180  -18.9350   55.8250 N.3    27  ILE27      -0.1231
      2  CA        17.1340  -17.9940   56.9100 C.3    27  ILE27       0.1692
      3  C         15.7420  -17.3640   56.7040 C.2    27  ILE27       0.2592
      4  O         14.9040  -17.4240   57.6030 O.2    27  ILE27      -0.2718
      5  CB        18.2860  -16.9450   57.0270 C.3    27  ILE27       0.0266
      6  CG1       19.5690  -17.6030   57.5920 C.3    27  ILE27       0.0019
      7  CG2       17.8670  -15.7270   57.8660 C.3    27  ILE27       0.0020
      8  CD1       20.8800  -16.9710   57.1720 C.3    27  ILE27       0.0001
      9  N         15.5180  -16.7840   55.5200 N.am   28  GLY28      -0.1957
     10  CA        14.2680  -16.1190   55.1660 C.3    28  GLY28       0.1869
     11  C         14.1100  -15.9020   53.6760 C.2    28  GLY28       0.2309
     12  O         15.0870  -15.9910   52.9260 O.2    28  GLY28      -0.2863
     13  N         17.5490  -15.4050   51.7760 N.3    34  VAL34      -0.1245
     14  CA        18.7630  -15.3590   52.5990 C.3    34  VAL34       0.1561
     15  C         19.1380  -16.7820   53.0590 C.2    34  VAL34       0.2260
     16  O         18.2860  -17.5070   53.5740 O.2    34  VAL34      -0.2867
     17  CB        18.5850  -14.3880   53.8150 C.3    34  VAL34       0.0252
     18  CG1       19.8980  -14.1890   54.5720 C.3    34  VAL34       0.0019
     19  CG2       18.0110  -13.0380   53.3810 C.3    34  VAL34       0.0019
     20  N         25.5950  -14.4210   56.1610 N.3    48  ALA48      -0.1245
     21  CA        24.2340  -14.5230   55.6350 C.3    48  ALA48       0.1562
     22  C         24.3120  -14.0110   54.1970 C.2    48  ALA48       0.2260
     23  O         24.7160  -12.8720   53.9450 O.2    48  ALA48      -0.2867
     24  CB        23.2640  -13.6920   56.4660 C.3    48  ALA48       0.0290
     25  N         22.4730  -13.2780   50.7170 N.3    50  LYS50      -0.1245
     26  CA        21.1820  -12.9780   50.1100 C.3    50  LYS50       0.1561
     27  C         21.3230  -13.1380   48.5980 C.2    50  LYS50       0.2260
     28  O         22.2240  -12.5450   48.0020 O.2    50  LYS50      -0.2867
     29  CB        20.7200  -11.5570   50.4780 C.3    50  LYS50       0.0271
     30  CG        19.2460  -11.2950   50.1810 C.3    50  LYS50       0.0035
     31  CD        18.8710   -9.8310   50.3820 C.3    50  LYS50       0.0206
     32  CE        17.4180   -9.5570   50.0680 C.3    50  LYS50       0.1093
     33  NZ        16.4930  -10.2260   51.0230 N.3    50  LYS50      -0.1314
     34  N         24.9510   -2.5860   60.1180 N.3    79  LEU79      -0.1245
     35  CA        25.2830   -3.8810   59.5300 C.3    79  LEU79       0.1561
     36  C         26.1180   -3.6930   58.2580 C.2    79  LEU79       0.2260
     37  O         25.6680   -3.0420   57.3200 O.2    79  LEU79      -0.2867
     38  CB        24.0460   -4.7520   59.2650 C.3    79  LEU79       0.0270
     39  CG        24.3690   -6.1870   58.7770 C.3    79  LEU79       0.0019
     40  CD1       25.0530   -6.9800   59.8570 C.3    79  LEU79       0.0001
     41  CD2       23.1130   -6.9160   58.3530 C.3    79  LEU79       0.0001
     42  N         26.6130  -10.6820   53.7830 N.3    91  LEU91      -0.1231
     43  CA        26.5320   -9.9180   55.0270 C.3    91  LEU91       0.1678
     44  C         27.0140  -10.7370   56.2260 C.2    91  LEU91       0.2434
     45  O         26.8070  -11.9520   56.2420 O.2    91  LEU91      -0.2733
     46  CB        25.0520   -9.5170   55.2400 C.3    91  LEU91       0.0284
     47  CG        24.3650   -8.8250   54.0400 C.3    91  LEU91       0.0019
     48  CD1       22.8810   -9.0790   54.0390 C.3    91  LEU91       0.0001
     49  CD2       24.6810   -7.3530   53.9850 C.3    91  LEU91       0.0001
     50  N         27.6100  -10.1190   57.2660 N.am   92  PRO92      -0.2718
     51  CA        27.9900  -10.9130   58.4420 C.3    92  PRO92       0.1535
     52  C         26.7600  -11.4790   59.1510 C.2    92  PRO92       0.2599
     53  O         25.7230  -10.8130   59.2560 O.2    92  PRO92      -0.2715
     54  CB        28.7740   -9.9300   59.3230 C.3    92  PRO92       0.0310
     55  CG        28.3640   -8.5860   58.8740 C.3    92  PRO92       0.0237
     56  CD        27.9320   -8.6880   57.4430 C.3    92  PRO92       0.0939
     57  N         26.8600  -12.7490   59.5640 N.am   93  TYR93      -0.1960
     58  CA        25.8190  -13.4320   60.3010 C.3    93  TYR93       0.1771
     59  C         25.7770  -12.8340   61.7230 C.2    93  TYR93       0.2619
     60  O         26.8150  -12.6350   62.3570 O.2    93  TYR93      -0.2715
     61  CB        26.1170  -14.9400   60.3650 C.3    93  TYR93       0.0574
     62  CG        25.0270  -15.7410   61.0300 C.ar   93  TYR93      -0.0198
     63  CD1       23.8190  -15.9770   60.3860 C.ar   93  TYR93      -0.0009
     64  CD2       25.1920  -16.2460   62.3160 C.ar   93  TYR93      -0.0009
     65  CE1       22.8100  -16.7150   60.9940 C.ar   93  TYR93       0.0417
     66  CE2       24.1910  -16.9900   62.9320 C.ar   93  TYR93       0.0417
     67  CZ        23.0080  -17.2350   62.2600 C.ar   93  TYR93       0.1957
     68  OH        22.0290  -17.9890   62.8520 O.3    93  TYR93      -0.2866
     69  N         24.5740  -12.5380   62.1980 N.am   94  MET94      -0.1963
     70  CA        24.3750  -11.9310   63.5100 C.3    94  MET94       0.1736
     71  C         23.8370  -13.0210   64.4090 C.2    94  MET94       0.2616
     72  O         22.6810  -13.4050   64.2810 O.2    94  MET94      -0.2715
     73  CB        23.4230  -10.7230   63.3930 C.3    94  MET94       0.0427
     74  CG        23.9810   -9.5950   62.5100 C.3    94  MET94       0.0599
     75  SD        25.2470   -8.6450   63.3750 S.3    94  MET94      -0.1393
     76  CE        26.6970   -9.1320   62.5060 C.3    94  MET94       0.0692
     77  N         24.6960  -13.5490   65.2900 N.am   95  LYS95      -0.1963
     78  CA        24.3960  -14.6670   66.1940 C.3    95  LYS95       0.1728
     79  C         23.0310  -14.5760   66.8900 C.2    95  LYS95       0.2616
     80  O         22.2800  -15.5520   66.8950 O.2    95  LYS95      -0.2715
     81  CB        25.5150  -14.8020   67.2560 C.3    95  LYS95       0.0311
     82  CG        25.4470  -16.0930   68.0860 C.3    95  LYS95       0.0038
     83  CD        26.3220  -16.0370   69.3350 C.3    95  LYS95       0.0206
     84  CE        26.2330  -17.2820   70.2010 C.3    95  LYS95       0.1093
     85  NZ        26.8830  -17.0780   71.5330 N.3    95  LYS95      -0.1314
     86  N         22.7100  -13.4220   67.4890 N.am   96  HIS96      -0.1959
     87  CA        21.4660  -13.3510   68.2450 C.3    96  HIS96       0.1787
     88  C         20.2440  -12.8530   67.4500 C.2    96  HIS96       0.2621
     89  O         19.1570  -12.7920   68.0110 O.2    96  HIS96      -0.2715
     90  CB        21.6810  -12.5710   69.5420 C.3    96  HIS96       0.0785
     91  CG        22.5160  -13.3660   70.5010 C.ar   96  HIS96       0.0821
     92  ND1       23.8430  -13.0430   70.7510 N.ar   96  HIS96      -0.2267
     93  CD2       22.2080  -14.4940   71.1770 C.ar   96  HIS96       0.1154
     94  CE1       24.2820  -13.9670   71.5870 C.ar   96  HIS96       0.1986
     95  NE2       23.3310  -14.8510   71.8840 N.ar   96  HIS96      -0.2212
     96  N         20.3980  -12.6380   66.1490 N.am   97  GLY97      -0.1940
     97  CA        19.2910  -12.2410   65.2800 C.3    97  GLY97       0.2014
     98  C         18.7300  -10.8600   65.5500 C.2    97  GLY97       0.2638
     99  O         19.4320  -10.0060   66.0960 O.2    97  GLY97      -0.2714
    100  N         17.4530  -10.6410   65.2160 N.am   98  ASP98      -0.1971
    101  CA        16.8370   -9.3160   65.3690 C.3    98  ASP98       0.1709
    102  C         16.5680   -8.9190   66.8370 C.2    98  ASP98       0.2293
    103  O         16.2710   -9.7560   67.6910 O.2    98  ASP98      -0.2864
    104  CB        15.5790   -9.1490   64.4960 C.3    98  ASP98       0.1436
    105  CG        14.3270   -9.7740   65.0690 C.2    98  ASP98       0.3671
    106  OD1       14.1050  -10.9660   64.8300 O.co2  98  ASP98      -0.2456
    107  OD2       13.5990   -9.0800   65.7980 O.co2  98  ASP98      -0.2456
    108  N         12.0410  -12.5760   73.9650 N.3   105  ASN105     -0.1240
    109  CA        12.3590  -13.9130   74.4770 C.3   105  ASN105      0.1653
    110  C         12.2460  -13.9780   76.0040 C.2   105  ASN105      0.2266
    111  O         13.0280  -13.3430   76.7060 O.2   105  ASN105     -0.2867
    112  CB        13.7540  -14.3540   73.9880 C.3   105  ASN105      0.1155
    113  CG        14.0180  -15.8370   74.1400 C.2   105  ASN105      0.2627
    114  OD1       13.8040  -16.4440   75.1950 O.2   105  ASN105     -0.2716
    115  ND2       14.5060  -16.4480   73.0830 N.am  105  ASN105     -0.0877
    116  N         15.2380  -14.5760   78.2700 N.3   108  HIS108     -0.1241
    117  CA        16.2070  -13.4930   78.4400 C.3   108  HIS108      0.1621
    118  C         15.7740  -12.6060   79.5790 C.2   108  HIS108      0.2264
    119  O         14.5840  -12.3460   79.7590 O.2   108  HIS108     -0.2867
    120  CB        16.4280  -12.7070   77.1450 C.3   108  HIS108      0.0745
    121  CG        17.0220  -13.5370   76.0530 C.ar  108  HIS108      0.0817
    122  ND1       16.9430  -13.1490   74.7310 N.ar  108  HIS108     -0.2268
    123  CD2       17.6560  -14.7310   76.1190 C.ar  108  HIS108      0.1154
    124  CE1       17.5440  -14.1020   74.0400 C.ar  108  HIS108      0.1986
    125  NE2       17.9890  -15.0690   74.8380 N.ar  108  HIS108     -0.2212
    126  N         12.6960   -4.6600   64.8530 N.3   142  ARG142     -0.1231
    127  CA        12.7090   -5.8170   63.9480 C.3   142  ARG142      0.1694
    128  C         13.8310   -5.6880   62.9150 C.2   142  ARG142      0.2592
    129  O         14.2890   -6.7070   62.4130 O.2   142  ARG142     -0.2718
    130  CB        11.3360   -6.0050   63.2380 C.3   142  ARG142      0.0321
    131  CG        10.9900   -4.8630   62.2620 C.3   142  ARG142      0.0489
    132  CD         9.7070   -5.0570   61.4440 C.3   142  ARG142      0.2205
    133  NE         9.3790   -3.7920   60.7790 N.pl3 142  ARG142     -0.0865
    134  CZ         8.6360   -2.8260   61.3110 C.cat 142  ARG142      0.5346
    135  NH1        8.4710   -1.6820   60.6700 N.pl3 142  ARG142      0.1354
    136  NH2        8.0360   -3.0060   62.4810 N.pl3 142  ARG142      0.1354
    137  N         14.2860   -4.4370   62.6290 N.am  143  ASN143     -0.1974
    138  CA        15.3110   -4.1180   61.6360 C.3   143  ASN143      0.1688
    139  C         16.7060   -3.8220   62.2120 C.2   143  ASN143      0.2292
    140  O         17.5570   -3.2800   61.5140 O.2   143  ASN143     -0.2864
    141  CB        14.8370   -2.9840   60.7230 C.3   143  ASN143      0.1181
    142  CG        13.8130   -3.4780   59.7370 C.2   143  ASN143      0.2629
    143  OD1       13.7770   -4.6610   59.4170 O.2   143  ASN143     -0.2716
    144  ND2       12.9500   -2.5940   59.2410 N.am  143  ASN143     -0.0877
    145  N         19.8960   -5.8280   64.4790 N.3   145  MET145     -0.1245
    146  CA        20.3880   -7.1700   64.7900 C.3   145  MET145      0.1570
    147  C         21.4140   -7.1360   65.9050 C.2   145  MET145      0.2261
    148  O         22.0160   -6.0840   66.1540 O.2   145  MET145     -0.2867
    149  CB        21.0470   -7.7820   63.5520 C.3   145  MET145      0.0387
    150  CG        20.2280   -7.7080   62.3280 C.3   145  MET145      0.0595
    151  SD        19.6460   -9.3270   61.8740 S.3   145  MET145     -0.1393
    152  CE        19.2860   -9.0340   60.1930 C.3   145  MET145      0.0692
    153  N         20.1170   -2.6030   60.6720 N.3   155  ALA155     -0.1231
    154  CA        20.0620   -3.3980   59.4330 C.3   155  ALA155      0.1694
    155  C         18.9880   -2.9010   58.4630 C.2   155  ALA155      0.2592
    156  O         18.6980   -1.7090   58.4590 O.2   155  ALA155     -0.2718
    157  CB        19.8820   -4.8760   59.7680 C.3   155  ALA155      0.0304
    158  N         18.4470   -3.7850   57.5980 N.am  156  ASP156     -0.1974
    159  CA        17.4730   -3.4740   56.5350 C.3   156  ASP156      0.1709
    160  C         18.0440   -2.3450   55.6600 C.2   156  ASP156      0.2293
    161  O         17.3670   -1.3710   55.3440 O.2   156  ASP156     -0.2864
    162  CB        16.0820   -3.1400   57.1140 C.3   156  ASP156      0.1436
    163  CG        15.0340   -2.8680   56.0460 C.2   156  ASP156      0.3671
    164  OD1       14.7810   -3.7740   55.2190 O.co2 156  ASP156     -0.2456
    165  OD2       14.4990   -1.7360   56.0150 O.co2 156  ASP156     -0.2456
    166  N         20.2550   -5.3020   51.1280 N.3   160  ALA160     -0.1245
    167  CA        19.5490   -6.1670   52.0720 C.3   160  ALA160      0.1562
    168  C         18.1270   -5.6670   52.3480 C.2   160  ALA160      0.2260
    169  O         17.3170   -6.4430   52.8550 O.2   160  ALA160     -0.2867
    170  CB        20.3330   -6.2750   53.3710 C.3   160  ALA160      0.0290
    171  N         10.1490   -8.3440   55.2710 N.3   164  HIS164     -0.1226
    172  CA        10.2040   -9.6950   55.8330 C.3   164  HIS164      0.1752
    173  C          8.9210  -10.0680   56.5550 C.2   164  HIS164      0.2596
    174  O          8.5390  -11.2380   56.5650 O.2   164  HIS164     -0.2718
    175  CB        11.4220   -9.8440   56.7470 C.3   164  HIS164      0.0759
    176  CG        12.7230   -9.6750   56.0240 C.ar  164  HIS164      0.0818
    177  ND1       13.2870  -10.7130   55.3000 N.ar  164  HIS164     -0.2268
    178  CD2       13.5250   -8.5890   55.9300 C.ar  164  HIS164      0.1154
    179  CE1       14.4130  -10.2300   54.8000 C.ar  164  HIS164      0.1986
    180  NE2       14.6020   -8.9580   55.1570 N.ar  164  HIS164     -0.2212
    181  N          8.2610   -9.0700   57.1560 N.am  165  ASP165     -0.1974
    182  CA         6.9810   -9.2100   57.8460 C.3   165  ASP165      0.1709
    183  C          5.9170   -8.4040   57.0860 C.2   165  ASP165      0.2293
    184  O          6.2700   -7.6080   56.2140 O.2   165  ASP165     -0.2864
    185  CB         7.1030   -8.7630   59.3110 C.3   165  ASP165      0.1436
    186  CG         7.6080   -9.8390   60.2620 C.2   165  ASP165      0.3671
    187  OD1        6.9900  -10.9300   60.3120 O.co2 165  ASP165     -0.2456
    188  OD2        8.5860   -9.5720   60.9960 O.co2 165  ASP165     -0.2456
@<TRIPOS>BOND
     1    28    27    2
     2    27    26    1
     3    32    31    1
     4    32    33    1
     5    26    29    1
     6    26    25    1
     7    30    31    1
     8    30    29    1
     9   166   167    1
    10    13    14    1
    11   167   168    1
    12   167   170    1
    13   168   169    2
    14    14    15    1
    15    14    17    1
    16    12    11    2
    17    15    16    2
    18    19    17    1
    19    11    10    1
    20    42    43    1
    21    17    18    1
    22    23    22    2
    23    49    47    1
    24    48    47    1
    25    47    46    1
    26    22    21    1
    27   179   180   ar
    28   179   177   ar
    29    43    46    1
    30    43    44    1
    31   180   178   ar
    32    10     9    1
    33   164   163   ar
    34   171   172    1
    35   177   176   ar
    36   161   160    2
    37     9     3   am
    38    21    20    1
    39    21    24    1
    40   160   159    1
    41     1     2    1
    42   172   173    1
    43   172   175    1
    44   178   176   ar
    45   165   163   ar
    46   176   175    1
    47   163   162    1
    48   184   183    2
    49    44    45    2
    50    44    50   am
    51   159   162    1
    52   159   158    1
    53   173   174    2
    54   173   181   am
    55     3     2    1
    56     3     4    2
    57     2     5    1
    58     5     6    1
    59     5     7    1
    60   183   182    1
    61   181   182    1
    62     8     6    1
    63    50    56    1
    64    50    51    1
    65    37    36    2
    66    56    55    1
    67   158   155   am
    68   182   185    1
    69    36    35    1
    70    41    39    1
    71    51    52    1
    72    51    54    1
    73   156   155    2
    74   155   154    1
    75    39    38    1
    76    39    40    1
    77    55    54    1
    78    52    53    2
    79    52    57   am
    80   144   142   am
    81    38    35    1
    82   185   186    1
    83   143   142    2
    84   154   157    1
    85   154   153    1
    86    35    34    1
    87    57    58    1
    88   142   141    1
    89   152   151    1
    90   186   187   ar
    91   186   188   ar
    92    58    61    1
    93    58    59    1
    94    61    62    1
    95    63    65   ar
    96    63    62   ar
    97   135   134    1
    98   141   138    1
    99   133   134    2
   100   133   132    1
   101    65    67   ar
   102    62    64   ar
   103   134   136    1
   104   132   131    1
   105   140   139    2
   106   138   139    1
   107   138   137    1
   108    59    69   am
   109    59    60    2
   110   151   150    1
   111    69    70    1
   112    67    68    1
   113    67    66   ar
   114   131   130    1
   115    64    66   ar
   116   150   149    1
   117   129   128    2
   118    76    75    1
   119    74    75    1
   120    74    73    1
   121   137   128   am
   122   128   127    1
   123   130   127    1
   124    73    70    1
   125    70    71    1
   126   149   146    1
   127   127   126    1
   128    72    71    2
   129    71    77   am
   130   145   146    1
   131   104   105    1
   132   104   101    1
   133   146   147    1
   134   106   105   ar
   135   105   107   ar
   136   100   101    1
   137   100    98   am
   138    97    98    1
   139    97    96    1
   140    77    78    1
   141   101   102    1
   142    98    99    2
   143   147   148    2
   144    96    88   am
   145    78    79    1
   146    78    81    1
   147   102   103    2
   148    79    80    2
   149    79    86   am
   150    81    82    1
   151    88    89    2
   152    88    87    1
   153    86    87    1
   154    82    83    1
   155    87    90    1
   156    83    84    1
   157    90    91    1
   158    84    85    1
   159    91    92   ar
   160    91    93   ar
   161    92    94   ar
   162    93    95   ar
   163    94    95   ar
   164   115   113   am
   165   108   109    1
   166   112   113    1
   167   112   109    1
   168   124   122   ar
   169   124   125   ar
   170   113   114    2
   171   109   110    1
   172   122   121   ar
   173   125   123   ar
   174   110   111    2
   175   121   123   ar
   176   121   120    1
   177   120   117    1
   178   116   117    1
   179   117   118    1
   180   118   119    2
