@<TRIPOS>MOLECULE
tmp/5hm0A00.pdb
 134 130 0 0 0
SMALL
GASTEIGER

@<TRIPOS>ATOM
      1  N         -3.3660    0.4670    0.4440 N.3    40  TRP40      -0.1228
      2  CA        -3.1580    1.7970    1.0100 C.3    40  TRP40       0.1722
      3  C         -4.3810    2.6240    1.4340 C.2    40  TRP40       0.2437
      4  O         -4.3400    3.2550    2.5050 O.2    40  TRP40      -0.2733
      5  CB        -2.1900    2.6220    0.1270 C.3    40  TRP40       0.0563
      6  CG        -2.6910    2.9450   -1.2440 C.ar   40  TRP40       0.0003
      7  CD1       -2.4560    2.2390   -2.3930 C.ar   40  TRP40       0.0946
      8  CD2       -3.4270    4.1120   -1.6390 C.ar   40  TRP40       0.0152
      9  NE1       -3.0680    2.8490   -3.4600 N.ar   40  TRP40      -0.2442
     10  CE2       -3.7060    3.9790   -3.0220 C.ar   40  TRP40       0.0810
     11  CE3       -3.9490    5.2190   -0.9440 C.ar   40  TRP40       0.0012
     12  CZ2       -4.3830    4.9570   -3.7410 C.ar   40  TRP40       0.0191
     13  CZ3       -4.6710    6.1780   -1.6730 C.ar   40  TRP40       0.0001
     14  CH2       -4.9100    6.0160   -3.0310 C.ar   40  TRP40       0.0015
     15  N         -5.4520    2.6750    0.6160 N.am   41  PRO41      -0.2718
     16  CA        -6.6230    3.4670    1.0280 C.3    41  PRO41       0.1535
     17  C         -7.2590    2.9670    2.3290 C.2    41  PRO41       0.2598
     18  O         -8.0560    3.6940    2.9400 O.2    41  PRO41      -0.2715
     19  CB        -7.6000    3.3030   -0.1320 C.3    41  PRO41       0.0310
     20  CG        -6.7540    2.7960   -1.2920 C.3    41  PRO41       0.0237
     21  CD        -5.6900    1.9640   -0.6630 C.3    41  PRO41       0.0939
     22  N         -6.9330    1.7310    2.7170 N.am   42  PHE42      -0.1974
     23  CA        -7.6300    1.0120    3.7960 C.3    42  PHE42       0.1639
     24  C         -6.7520    0.9190    5.0270 C.2    42  PHE42       0.2290
     25  O         -7.1160    0.3090    6.0300 O.2    42  PHE42      -0.2864
     26  CB        -8.0490   -0.3680    3.2780 C.3    42  PHE42       0.0560
     27  CG        -8.9380   -0.2950    2.0720 C.ar   42  PHE42      -0.0200
     28  CD1      -10.3180   -0.0910    2.2200 C.ar   42  PHE42      -0.0042
     29  CD2       -8.4520   -0.5400    0.8120 C.ar   42  PHE42      -0.0042
     30  CE1      -11.1200    0.0600    1.1520 C.ar   42  PHE42      -0.0003
     31  CE2       -9.2860   -0.4430   -0.2810 C.ar   42  PHE42      -0.0003
     32  CZ       -10.6160   -0.1390   -0.1150 C.ar   42  PHE42      -0.0000
     33  N         -5.7410    3.2200    7.1340 N.3    44  GLN44      -0.1245
     34  CA        -5.9940    4.2140    8.1580 C.3    44  GLN44       0.1566
     35  C         -7.4260    4.7090    7.9530 C.2    44  GLN44       0.2260
     36  O         -8.0090    4.4930    6.8950 O.2    44  GLN44      -0.2867
     37  CB        -5.0030    5.3910    8.0710 C.3    44  GLN44       0.0367
     38  CG        -5.0110    6.1140    6.7480 C.3    44  GLN44       0.0905
     39  CD        -4.2800    5.3290    5.6510 C.2    44  GLN44       0.2608
     40  OE1       -3.1390    4.8270    5.8400 O.2    44  GLN44      -0.2717
     41  NE2       -4.9540    5.1720    4.5070 N.am   44  GLN44      -0.0878
     42  N        -10.5730    6.8890    6.9540 N.3    46  VAL46      -0.1231
     43  CA       -10.7680    7.8330    5.8560 C.3    46  VAL46       0.1692
     44  C        -10.6370    9.2720    6.3610 C.2    46  VAL46       0.2592
     45  O        -11.3730    9.6950    7.2570 O.2    46  VAL46      -0.2718
     46  CB       -12.1470    7.6490    5.1800 C.3    46  VAL46       0.0266
     47  CG1      -12.4030    8.7550    4.1610 C.3    46  VAL46       0.0020
     48  CG2      -12.2050    6.3120    4.4810 C.3    46  VAL46       0.0020
     49  N         -9.6510    9.9980    5.8270 N.am   47  ASP47      -0.1974
     50  CA        -9.4860   11.4050    6.1460 C.3    47  ASP47       0.1709
     51  C        -10.3010   12.2550    5.1980 C.2    47  ASP47       0.2293
     52  O         -9.8690   12.6360    4.1090 O.2    47  ASP47      -0.2864
     53  CB        -8.0160   11.7980    6.1120 C.3    47  ASP47       0.1436
     54  CG        -7.7890   13.1940    6.6570 C.2    47  ASP47       0.3671
     55  OD1       -8.7240   14.0040    6.6300 O.co2  47  ASP47      -0.2456
     56  OD2       -6.6200   13.5400    6.9760 O.co2  47  ASP47      -0.2456
     57  N         -9.2100   14.4050    1.8950 N.3    51  LEU51      -0.1245
     58  CA        -9.6860   13.9030    0.6210 C.3    51  LEU51       0.1561
     59  C        -10.7430   14.7940   -0.0070 C.2    51  LEU51       0.2260
     60  O        -11.1870   14.5550   -1.1470 O.2    51  LEU51      -0.2867
     61  CB       -10.2480   12.4840    0.8020 C.3    51  LEU51       0.0270
     62  CG        -9.2030   11.3820    1.0060 C.3    51  LEU51       0.0019
     63  CD1       -9.8920   10.1450    1.5350 C.3    51  LEU51       0.0001
     64  CD2       -8.3660   11.0180   -0.2270 C.3    51  LEU51       0.0001
     65  N        -13.9360   15.0490    0.8900 N.3    53  LEU53      -0.1245
     66  CA       -15.1250   14.2540    0.7730 C.3    53  LEU53       0.1561
     67  C        -16.0580   14.5640    1.9360 C.2    53  LEU53       0.2260
     68  O        -16.2560   13.7620    2.8680 O.2    53  LEU53      -0.2867
     69  CB       -14.7360   12.7630    0.7510 C.3    53  LEU53       0.0270
     70  CG       -13.8920   12.4260   -0.5240 C.3    53  LEU53       0.0019
     71  CD1      -13.5030   10.9410   -0.4260 C.3    53  LEU53       0.0001
     72  CD2      -14.5810   12.7100   -1.8470 C.3    53  LEU53       0.0001
     73  N        -18.6450   12.0840    3.3570 N.3    56  TYR56      -0.1241
     74  CA       -18.2960   10.7140    3.6840 C.3    56  TYR56       0.1605
     75  C        -18.9210   10.2650    4.9960 C.2    56  TYR56       0.2264
     76  O        -19.6330    9.2560    5.0420 O.2    56  TYR56      -0.2867
     77  CB       -16.7430   10.5290    3.7260 C.3    56  TYR56       0.0534
     78  CG       -16.3810    9.0790    3.9540 C.ar   56  TYR56      -0.0201
     79  CD1      -16.4110    8.1600    2.9020 C.ar   56  TYR56      -0.0009
     80  CD2      -16.1980    8.5920    5.2300 C.ar   56  TYR56      -0.0009
     81  CE1      -16.1230    6.8180    3.1140 C.ar   56  TYR56       0.0417
     82  CE2      -15.9370    7.2430    5.4680 C.ar   56  TYR56       0.0417
     83  CZ       -15.9570    6.3420    4.3980 C.ar   56  TYR56       0.1957
     84  OH       -15.7070    5.0040    4.6070 O.3    56  TYR56      -0.2866
     85  N        -17.0260    0.7410    1.8920 N.3    95  CYS95      -0.1235
     86  CA       -16.5020    1.1040    0.5790 C.3    95  CYS95       0.1677
     87  C        -17.5740    0.9480   -0.5310 C.2    95  CYS95       0.2270
     88  O        -17.7800    1.8590   -1.3590 O.2    95  CYS95      -0.2867
     89  CB       -15.2160    0.3130    0.2990 C.3    95  CYS95       0.0956
     90  SG       -14.3570    0.8290   -1.1920 S.3    95  CYS95      -0.0801
     91  N        -20.3720    3.7790   -0.0070 N.3    98  TYR98      -0.1227
     92  CA       -20.0340    5.1590   -0.3650 C.3    98  TYR98       0.1736
     93  C        -19.7920    5.3400   -1.8840 C.2    98  TYR98       0.2595
     94  O        -20.0910    6.3980   -2.4530 O.2    98  TYR98      -0.2718
     95  CB       -18.8070    5.6380    0.4270 C.3    98  TYR98       0.0548
     96  CG       -18.4260    7.0740    0.1220 C.ar   98  TYR98      -0.0200
     97  CD1      -19.1980    8.1270    0.6020 C.ar   98  TYR98      -0.0009
     98  CD2      -17.3320    7.3750   -0.6940 C.ar   98  TYR98      -0.0009
     99  CE1      -18.8960    9.4310    0.2880 C.ar   98  TYR98       0.0417
    100  CE2      -16.9970    8.6890   -0.9950 C.ar   98  TYR98       0.0417
    101  CZ       -17.8240    9.7110   -0.5560 C.ar   98  TYR98       0.1957
    102  OH       -17.5580   11.0240   -0.9200 O.3    98  TYR98      -0.2866
    103  N        -19.1900    4.3340   -2.5170 N.am   99  ASN99      -0.1974
    104  CA       -18.8080    4.4170   -3.9160 C.3    99  ASN99       0.1688
    105  C        -19.7720    3.5960   -4.7790 C.2    99  ASN99       0.2292
    106  O        -20.8120    3.1360   -4.2870 O.2    99  ASN99      -0.2864
    107  CB       -17.3530    3.9650   -4.0640 C.3    99  ASN99       0.1181
    108  CG       -16.4050    4.7300   -3.1360 C.2    99  ASN99       0.2629
    109  OD1      -16.0610    5.8680   -3.3950 O.2    99  ASN99      -0.2716
    110  ND2      -16.0410    4.1240   -2.0330 N.am   99  ASN99      -0.0877
    111  N        -12.5300    3.0400   -9.2180 N.3   104  ASP104     -0.1225
    112  CA       -11.2130    2.4630   -8.9450 C.3   104  ASP104      0.1805
    113  C        -11.1830    1.8810   -7.5050 C.2   104  ASP104      0.2597
    114  O        -10.6410    0.8030   -7.2670 O.2   104  ASP104     -0.2718
    115  CB       -10.1200    3.5310   -9.1120 C.3   104  ASP104      0.1424
    116  CG        -9.6530    3.6980  -10.5620 C.2   104  ASP104      0.3668
    117  OD1       -9.8400    2.7690  -11.3930 O.co2 104  ASP104     -0.2456
    118  OD2       -9.0060    4.7520  -10.8270 O.co2 104  ASP104     -0.2456
    119  N        -11.7450    2.6140   -6.5550 N.am  105  ILE105     -0.1980
    120  CA       -11.5890    2.2040   -5.1310 C.3   105  ILE105      0.1595
    121  C        -12.3780    0.9180   -4.8890 C.2   105  ILE105      0.2287
    122  O        -12.0010    0.0830   -4.0480 O.2   105  ILE105     -0.2864
    123  CB       -11.9860    3.3410   -4.1530 C.3   105  ILE105      0.0276
    124  CG1      -11.7340    2.9620   -2.6740 C.3   105  ILE105      0.0022
    125  CG2      -13.4480    3.7170   -4.2990 C.3   105  ILE105      0.0022
    126  CD1      -10.2840    2.7810   -2.3230 C.3   105  ILE105      0.0001
    127  N        -10.4580   -1.9830   -6.0400 N.3   108  MET108     -0.1245
    128  CA        -9.4210   -2.2570   -5.0430 C.3   108  MET108      0.1570
    129  C        -10.0390   -3.1010   -3.9310 C.2   108  MET108      0.2261
    130  O         -9.5330   -4.1320   -3.5490 O.2   108  MET108     -0.2867
    131  CB        -8.8710   -0.9320   -4.5080 C.3   108  MET108      0.0387
    132  CG        -8.0950   -0.1280   -5.5600 C.3   108  MET108      0.0595
    133  SD        -7.6830    1.5660   -5.0840 S.3   108  MET108     -0.1393
    134  CE        -6.0650    1.2710   -4.3950 C.3   108  MET108      0.0692
@<TRIPOS>BOND
     1   117   116   ar
     2   118   116   ar
     3   116   115    1
     4   111   112    1
     5   115   112    1
     6   112   113    1
     7   113   114    2
     8   113   119   am
     9   119   120    1
    10   127   128    1
    11   132   133    1
    12   132   131    1
    13   120   121    1
    14   120   123    1
    15   133   134    1
    16   128   131    1
    17   128   129    1
    18   121   122    2
    19   105   106    2
    20   105   104    1
    21   125   123    1
    22   123   124    1
    23   107   104    1
    24   107   108    1
    25   129   130    2
    26   104   103    1
    27    12    14   ar
    28    12    10   ar
    29     9    10   ar
    30     9     7   ar
    31   109   108    2
    32   108   110   am
    33    14    13   ar
    34    10     8   ar
    35   124   126    1
    36   103    93   am
    37    94    93    2
    38     7     6   ar
    39    93    92    1
    40    72    70    1
    41    13    11   ar
    42     8     6   ar
    43     8    11   ar
    44    88    87    2
    45    20    21    1
    46    20    19    1
    47     6     5    1
    48    90    89    1
    49    60    59    2
    50   100    98   ar
    51   100   101   ar
    52   102   101    1
    53    98    96   ar
    54    21    15    1
    55   101    99   ar
    56    87    86    1
    57    70    71    1
    58    70    69    1
    59    92    91    1
    60    92    95    1
    61    31    32   ar
    62    31    29   ar
    63    64    62    1
    64    19    16    1
    65    32    30   ar
    66    59    58    1
    67    96    95    1
    68    96    97   ar
    69     5     2    1
    70    99    97   ar
    71    89    86    1
    72     1     2    1
    73    86    85    1
    74    15    16    1
    75    15     3   am
    76    58    61    1
    77    58    57    1
    78    69    66    1
    79    66    65    1
    80    66    67    1
    81    61    62    1
    82    29    27   ar
    83    62    63    1
    84     2     3    1
    85    16    17    1
    86    30    28   ar
    87     3     4    2
    88    67    68    2
    89    27    28   ar
    90    27    26    1
    91    17    22   am
    92    17    18    2
    93    22    23    1
    94    79    81   ar
    95    79    78   ar
    96    81    83   ar
    97    26    23    1
    98    73    74    1
    99    74    77    1
   100    74    75    1
   101    77    78    1
   102    23    24    1
   103    78    80   ar
   104    52    51    2
   105    47    46    1
   106    83    84    1
   107    83    82   ar
   108    48    46    1
   109    41    39   am
   110    75    76    2
   111    24    25    2
   112    46    43    1
   113    51    50    1
   114    80    82   ar
   115    39    40    2
   116    39    38    1
   117    49    50    1
   118    49    44   am
   119    43    44    1
   120    43    42    1
   121    53    50    1
   122    53    54    1
   123    44    45    2
   124    55    54   ar
   125    54    56   ar
   126    38    37    1
   127    36    35    2
   128    33    34    1
   129    35    34    1
   130    37    34    1
