@<TRIPOS>MOLECULE
tmp/5hmaA00.pdb
 131 127 0 0 0
SMALL
GASTEIGER

@<TRIPOS>ATOM
      1  N        537.3610  212.6680  127.9060 N.3    22  VAL22      -0.1245
      2  CA       538.5920  213.4150  128.1780 C.3    22  VAL22       0.1561
      3  C        539.2340  213.8070  126.8510 C.2    22  VAL22       0.2260
      4  O        540.2490  214.4940  126.8130 O.2    22  VAL22      -0.2867
      5  CB       539.5860  212.6040  129.0170 C.3    22  VAL22       0.0252
      6  CG1      538.9380  212.1430  130.3210 C.3    22  VAL22       0.0019
      7  CG2      540.1100  211.4050  128.2100 C.3    22  VAL22       0.0019
      8  N        547.7420  209.1460  122.6990 N.3    39  HIS39      -0.1226
      9  CA       548.0510  209.5140  124.0880 C.3    39  HIS39       0.1752
     10  C        546.7890  209.7000  124.9410 C.2    39  HIS39       0.2596
     11  O        546.8530  209.6430  126.1620 O.2    39  HIS39      -0.2718
     12  CB       548.9030  210.7910  124.1430 C.3    39  HIS39       0.0759
     13  CG       548.1380  212.0550  123.8720 C.ar   39  HIS39       0.0818
     14  ND1      548.0450  212.6190  122.6160 N.ar   39  HIS39      -0.2268
     15  CD2      547.4450  212.8720  124.7010 C.ar   39  HIS39       0.1154
     16  CE1      547.3220  213.7230  122.6830 C.ar   39  HIS39       0.1986
     17  NE2      546.9500  213.9020  123.9390 N.ar   39  HIS39      -0.2212
     18  N        545.6420  209.9050  124.3040 N.am   40  SER40      -0.1952
     19  CA       544.4000  210.1060  125.0440 C.3    40  SER40       0.1924
     20  C        543.8190  208.8000  125.5900 C.2    40  SER40       0.2314
     21  O        543.0510  208.8130  126.5520 O.2    40  SER40      -0.2863
     22  CB       543.3500  210.7920  124.1560 C.3    40  SER40       0.2116
     23  OG       543.8190  212.0360  123.6910 O.3    40  SER40      -0.2180
     24  N        555.8080  218.4690  116.0250 N.3   126  LEU126     -0.1231
     25  CA       555.2640  218.4800  117.3810 C.3   126  LEU126      0.1693
     26  C        555.7910  217.2940  118.1690 C.2   126  LEU126      0.2592
     27  O        555.8400  216.1720  117.6590 O.2   126  LEU126     -0.2718
     28  CB       553.7330  218.4480  117.3660 C.3   126  LEU126      0.0284
     29  CG       553.0340  218.3520  118.7260 C.3   126  LEU126      0.0019
     30  CD1      553.3260  219.5860  119.5480 C.3   126  LEU126      0.0001
     31  CD2      551.5330  218.1560  118.5730 C.3   126  LEU126      0.0001
     32  N        556.1860  217.5420  119.4140 N.am  127  ALA127     -0.1966
     33  CA       556.6150  216.4650  120.2900 C.3   127  ALA127      0.1728
     34  C        555.4780  216.0510  121.2180 C.2   127  ALA127      0.2616
     35  O        554.9530  216.8630  121.9760 O.2   127  ALA127     -0.2715
     36  CB       557.8450  216.8800  121.0940 C.3   127  ALA127      0.0334
     37  N        555.0930  214.7810  121.1260 N.am  128  VAL128     -0.1977
     38  CA       554.1170  214.1850  122.0290 C.3   128  VAL128      0.1596
     39  C        554.8340  213.1140  122.8350 C.2   128  VAL128      0.2287
     40  O        555.1840  212.0550  122.3040 O.2   128  VAL128     -0.2864
     41  CB       552.9260  213.5910  121.2650 C.3   128  VAL128      0.0276
     42  CG1      551.9580  212.8950  122.2340 C.3   128  VAL128      0.0022
     43  CG2      552.2260  214.6680  120.4530 C.3   128  VAL128      0.0022
     44  N        549.0130  223.2870  111.0890 N.3   138  ARG138     -0.1245
     45  CA       548.6400  224.1590  112.2020 C.3   138  ARG138      0.1563
     46  C        547.4620  225.0290  111.8240 C.2   138  ARG138      0.2260
     47  O        547.4040  225.5720  110.7200 O.2   138  ARG138     -0.2867
     48  CB       549.8020  225.0390  112.6200 C.3   138  ARG138      0.0307
     49  CG       550.9060  224.2500  113.2460 C.3   138  ARG138      0.0489
     50  CD       551.9090  225.1700  113.8560 C.3   138  ARG138      0.2205
     51  NE       551.3840  225.8360  115.0390 N.pl3 138  ARG138     -0.0865
     52  CZ       552.1440  226.5470  115.8600 C.cat 138  ARG138      0.5346
     53  NH1      551.6190  227.1360  116.9250 N.pl3 138  ARG138      0.1354
     54  NH2      553.4380  226.6600  115.6030 N.pl3 138  ARG138      0.1354
     55  N        541.7500  221.8480  124.8280 N.3   145  TRP145     -0.1241
     56  CA       542.2030  220.4850  125.0430 C.3   145  TRP145      0.1605
     57  C        541.1060  219.4590  124.7250 C.2   145  TRP145      0.2264
     58  O        541.3990  218.3350  124.3200 O.2   145  TRP145     -0.2867
     59  CB       542.6920  220.3140  126.4870 C.3   145  TRP145      0.0550
     60  CG       541.6200  220.4350  127.5070 C.ar  145  TRP145      0.0003
     61  CD1      541.1830  221.5790  128.1030 C.ar  145  TRP145      0.0946
     62  CD2      540.8460  219.3640  128.0720 C.ar  145  TRP145      0.0152
     63  NE1      540.1860  221.2900  129.0030 N.ar  145  TRP145     -0.2442
     64  CE2      539.9620  219.9390  129.0070 C.ar  145  TRP145      0.0810
     65  CE3      540.8190  217.9780  127.8800 C.ar  145  TRP145      0.0012
     66  CZ2      539.0560  219.1760  129.7450 C.ar  145  TRP145      0.0191
     67  CZ3      539.9200  217.2230  128.6120 C.ar  145  TRP145      0.0001
     68  CH2      539.0500  217.8240  129.5330 C.ar  145  TRP145      0.0015
     69  N        540.9860  217.7810  121.2470 N.3   148  THR148     -0.1218
     70  CA       542.0340  216.8290  120.9050 C.3   148  THR148      0.1862
     71  C        541.4120  215.4970  120.5130 C.2   148  THR148      0.2287
     72  O        540.5110  215.0120  121.1950 O.2   148  THR148     -0.2866
     73  CB       543.0130  216.6610  122.0810 C.3   148  THR148      0.1770
     74  OG1      543.8020  217.8510  122.1950 O.3   148  THR148     -0.2211
     75  CG2      543.9150  215.4740  121.8770 C.3   148  THR148      0.0375
     76  N        545.1570  217.9000  117.4740 N.3   164  ILE164     -0.1231
     77  CA       545.9360  217.7870  118.7000 C.3   164  ILE164      0.1692
     78  C        546.1080  219.1840  119.2690 C.2   164  ILE164      0.2592
     79  O        546.7130  220.0480  118.6210 O.2   164  ILE164     -0.2718
     80  CB       547.3090  217.1540  118.4610 C.3   164  ILE164      0.0266
     81  CG1      547.1750  215.7680  117.8090 C.3   164  ILE164      0.0019
     82  CG2      548.1090  217.1100  119.7770 C.3   164  ILE164      0.0020
     83  CD1      548.5230  215.0930  117.5110 C.3   164  ILE164      0.0001
     84  N        545.5740  219.4180  120.4650 N.am  165  ALA165     -0.1966
     85  CA       545.8370  220.6790  121.1590 C.3   165  ALA165      0.1728
     86  C        547.1710  220.5960  121.8680 C.2   165  ALA165      0.2616
     87  O        547.3920  219.6840  122.6620 O.2   165  ALA165     -0.2715
     88  CB       544.7330  220.9950  122.1490 C.3   165  ALA165      0.0334
     89  N        548.0690  221.5320  121.5860 N.am  166  ALA166     -0.1963
     90  CA       549.3480  221.5490  122.2860 C.3   166  ALA166      0.1728
     91  C        549.4960  222.8490  123.0530 C.2   166  ALA166      0.2617
     92  O        548.8030  223.8240  122.7750 O.2   166  ALA166     -0.2715
     93  CB       550.5010  221.3620  121.3220 C.3   166  ALA166      0.0334
     94  N        550.3910  222.8440  124.0320 N.am  167  THR167     -0.1937
     95  CA       550.6850  224.0140  124.8480 C.3   167  THR167      0.2028
     96  C        551.9380  224.7030  124.3290 C.2   167  THR167      0.2643
     97  O        552.9380  224.0410  124.0880 O.2   167  THR167     -0.2714
     98  CB       550.9030  223.6240  126.3210 C.3   167  THR167      0.1808
     99  OG1      549.6940  223.0830  126.8620 O.3   167  THR167     -0.2208
    100  CG2      551.2940  224.8240  127.1360 C.3   167  THR167      0.0379
    101  N        551.8820  226.0220  124.1480 N.am  168  GLY168     -0.1940
    102  CA       553.0620  226.7900  123.7920 C.3   168  GLY168      0.1998
    103  C        553.9750  226.9700  124.9910 C.2   168  GLY168      0.2480
    104  O        553.6760  226.4840  126.0760 O.2   168  GLY168     -0.2729
    105  N        555.1010  227.6730  124.8100 N.am  169  PRO169     -0.2726
    106  CA       556.0420  227.9320  125.9170 C.3   169  PRO169      0.1402
    107  C        555.4580  228.8310  127.0180 C.2   169  PRO169      0.2269
    108  O        556.0500  228.9920  128.0890 O.2   169  PRO169     -0.2865
    109  CB       557.2240  228.6380  125.2270 C.3   169  PRO169      0.0296
    110  CG       557.0630  228.3650  123.7640 C.3   169  PRO169      0.0237
    111  CD       555.5830  228.2030  123.5250 C.3   169  PRO169      0.0939
    112  N        547.8680  225.9330  121.2970 N.3   174  GLU174     -0.1245
    113  CA       548.1950  225.9520  119.8790 C.3   174  GLU174      0.1567
    114  C        547.5500  224.7590  119.1970 C.2   174  GLU174      0.2260
    115  O        547.5230  223.6600  119.7560 O.2   174  GLU174     -0.2867
    116  CB       549.7140  225.9200  119.6680 C.3   174  GLU174      0.0388
    117  CG       550.4820  227.0610  120.3270 C.3   174  GLU174      0.1160
    118  CD       550.1090  228.4300  119.7680 C.2   174  GLU174      0.3649
    119  OE1      549.6000  228.4990  118.6240 O.co2 174  GLU174     -0.2457
    120  OE2      550.3240  229.4390  120.4760 O.co2 174  GLU174     -0.2457
    121  N        547.2660  221.8200  116.3940 N.3   176  PHE176     -0.1241
    122  CA       547.9310  220.9750  115.4100 C.3   176  PHE176      0.1605
    123  C        546.9400  219.9960  114.8120 C.2   176  PHE176      0.2264
    124  O        545.8750  219.7510  115.3900 O.2   176  PHE176     -0.2867
    125  CB       549.1020  220.2400  116.0490 C.3   176  PHE176      0.0534
    126  CG       550.2450  221.1380  116.3760 C.ar  176  PHE176     -0.0203
    127  CD1      550.2040  221.9490  117.5030 C.ar  176  PHE176     -0.0042
    128  CD2      551.3480  221.2110  115.5360 C.ar  176  PHE176     -0.0042
    129  CE1      551.2500  222.8080  117.7980 C.ar  176  PHE176     -0.0003
    130  CE2      552.4160  222.0680  115.8330 C.ar  176  PHE176     -0.0003
    131  CZ       552.3610  222.8670  116.9620 C.ar  176  PHE176     -0.0000
@<TRIPOS>BOND
     1    47    46    2
     2    44    45    1
     3    46    45    1
     4    45    48    1
     5    48    49    1
     6    49    50    1
     7    50    51    1
     8   123   124    2
     9   123   122    1
    10    51    52    2
    11   122   125    1
    12   122   121    1
    13   128   130   ar
    14   128   126   ar
    15    54    52    1
    16   130   131   ar
    17    52    53    1
    18    24    25    1
    19   125   126    1
    20   126   127   ar
    21   131   129   ar
    22    28    25    1
    23    28    29    1
    24    25    26    1
    25    76    77    1
    26   127   129   ar
    27    83    81    1
    28    27    26    2
    29    81    80    1
    30    26    32   am
    31    80    77    1
    32    80    82    1
    33    31    29    1
    34    79    78    2
    35   119   118   ar
    36    77    78    1
    37    29    30    1
    38   114   115    2
    39   114   113    1
    40    78    84   am
    41    32    33    1
    42   116   113    1
    43   116   117    1
    44   118   117    1
    45   118   120   ar
    46   113   112    1
    47    33    36    1
    48    33    34    1
    49    43    41    1
    50    84    85    1
    51    71    70    1
    52    71    72    2
    53    70    69    1
    54    70    73    1
    55    37    34   am
    56    37    38    1
    57    85    86    1
    58    85    88    1
    59    34    35    2
    60    41    38    1
    61    41    42    1
    62    93    90    1
    63    89    86   am
    64    89    90    1
    65    86    87    2
    66    75    73    1
    67    38    39    1
    68    73    74    1
    69    90    91    1
    70    40    39    2
    71    14    16   ar
    72    14    13   ar
    73    16    17   ar
    74     8     9    1
    75    92    91    2
    76    91    94   am
    77   111   110    1
    78   111   105    1
    79    23    22    1
    80   110   109    1
    81   102   101    1
    82   102   103    1
    83    13    12    1
    84    13    15   ar
    85    17    15   ar
    86    94    95    1
    87    97    96    2
    88     9    12    1
    89     9    10    1
    90   101    96   am
    91    22    19    1
    92    18    10   am
    93    18    19    1
    94    58    57    2
    95    96    95    1
    96    57    56    1
    97   105   103   am
    98   105   106    1
    99    55    56    1
   100    95    98    1
   101    10    11    2
   102   103   104    2
   103    56    59    1
   104    19    20    1
   105   109   106    1
   106    20    21    2
   107   106   107    1
   108    98    99    1
   109    98   100    1
   110    59    60    1
   111     4     3    2
   112     3     2    1
   113   107   108    2
   114    60    62   ar
   115    60    61   ar
   116    65    62   ar
   117    65    67   ar
   118     1     2    1
   119    62    64   ar
   120    61    63   ar
   121     2     5    1
   122     7     5    1
   123    67    68   ar
   124    63    64   ar
   125    64    66   ar
   126     5     6    1
   127    68    66   ar
