@<TRIPOS>MOLECULE
tmp/5hmcA00.pdb
 85 79 0 0 0
SMALL
GASTEIGER

@<TRIPOS>ATOM
      1  N         24.7700   -8.9370  -12.7670 N.3     1  ARG1       -0.1231
      2  CA        24.4950  -10.0080  -13.7230 C.3     1  ARG1        0.1694
      3  C         24.8550  -11.3670  -13.1420 C.2     1  ARG1        0.2591
      4  O         25.4630  -12.2010  -13.8160 O.2     1  ARG1       -0.2718
      5  CB        25.2640   -9.7880  -15.0250 C.3     1  ARG1        0.0321
      6  CG        24.9390  -10.8950  -16.0430 C.3     1  ARG1        0.0489
      7  CD        25.7200  -10.7770  -17.3030 C.3     1  ARG1        0.2205
      8  NE        27.1780  -10.7190  -17.0810 N.pl3   1  ARG1       -0.0865
      9  CZ        27.9270  -11.8220  -16.9550 C.cat   1  ARG1        0.5346
     10  NH1       27.3460  -13.0120  -17.0090 N.pl3   1  ARG1        0.1354
     11  NH2       29.2260  -11.7250  -16.7600 N.pl3   1  ARG1        0.1354
     12  N         24.4750  -11.5870  -11.8840 N.am    2  LEU2       -0.1980
     13  CA        24.7800  -12.8280  -11.1880 C.3     2  LEU2        0.1596
     14  C         23.5450  -13.6290  -10.8240 C.2     2  LEU2        0.2287
     15  O         23.6770  -14.7310  -10.2780 O.2     2  LEU2       -0.2864
     16  CB        25.5880  -12.5370   -9.9210 C.3     2  LEU2        0.0297
     17  CG        27.0350  -12.2000  -10.2470 C.3     2  LEU2        0.0022
     18  CD1       27.7620  -11.8420   -8.9840 C.3     2  LEU2        0.0001
     19  CD2       27.7060  -13.3750  -10.9630 C.3     2  LEU2        0.0001
     20  N         21.8090  -14.7320   -5.9290 N.3     6  VAL6       -0.1245
     21  CA        22.9720  -14.0310   -5.4000 C.3     6  VAL6        0.1561
     22  C         22.5540  -12.7170   -4.7490 C.2     6  VAL6        0.2260
     23  O         23.0260  -12.3740   -3.6560 O.2     6  VAL6       -0.2867
     24  CB        24.0230  -13.8180   -6.4970 C.3     6  VAL6        0.0252
     25  CG1       25.1450  -12.9340   -5.9750 C.3     6  VAL6        0.0019
     26  CG2       24.5790  -15.1530   -6.9310 C.3     6  VAL6        0.0019
     27  N         29.4090  -21.2180   -3.3900 N.3    48  GLU48      -0.1231
     28  CA        29.0800  -21.4890   -4.7840 C.3    48  GLU48       0.1699
     29  C         29.0760  -20.2010   -5.6000 C.2    48  GLU48       0.2592
     30  O         29.5740  -20.1660   -6.7380 O.2    48  GLU48      -0.2718
     31  CB        27.7180  -22.1830   -4.8660 C.3    48  GLU48       0.0402
     32  CG        27.3440  -22.6380   -6.2680 C.3    48  GLU48       0.1161
     33  CD        27.8380  -24.0360   -6.5570 C.2    48  GLU48       0.3649
     34  OE1       28.2090  -24.7340   -5.5800 O.co2  48  GLU48      -0.2457
     35  OE2       27.8480  -24.4350   -7.7450 O.co2  48  GLU48      -0.2457
     36  N         28.5340  -19.1240   -5.0230 N.am   49  SER49      -0.1952
     37  CA        28.3730  -17.8770   -5.7650 C.3    49  SER49       0.1924
     38  C         29.7240  -17.2690   -6.1230 C.2    49  SER49       0.2314
     39  O         29.9550  -16.8550   -7.2700 O.2    49  SER49      -0.2863
     40  CB        27.5480  -16.8860   -4.9380 C.3    49  SER49       0.2116
     41  OG        26.2710  -17.3910   -4.6070 O.3    49  SER49      -0.2180
     42  N         31.7760  -19.5870   -8.6420 N.3    52  SER52      -0.1202
     43  CA        31.2380  -19.6670  -10.0000 C.3    52  SER52       0.2020
     44  C         31.4010  -18.3470  -10.7300 C.2    52  SER52       0.2618
     45  O         31.6490  -18.3330  -11.9390 O.2    52  SER52      -0.2717
     46  CB        29.7630  -20.0570   -9.9840 C.3    52  SER52       0.2103
     47  OG        29.5810  -21.3710   -9.4890 O.3    52  SER52      -0.2182
     48  N         31.2410  -17.2310  -10.0170 N.am   53  ALA53      -0.1979
     49  CA        31.5040  -15.9240  -10.6110 C.3    53  ALA53       0.1597
     50  C         32.9230  -15.8540  -11.1560 C.2    53  ALA53       0.2287
     51  O         33.1440  -15.4330  -12.2990 O.2    53  ALA53      -0.2864
     52  CB        31.2830  -14.8150   -9.5760 C.3    53  ALA53       0.0319
     53  N         33.3390  -18.3600  -14.1390 N.3    56  ASP56      -0.1239
     54  CA        32.6880  -17.8470  -15.3370 C.3    56  ASP56       0.1674
     55  C         33.5180  -16.7350  -15.9640 C.2    56  ASP56       0.2266
     56  O         33.7030  -16.6980  -17.1810 O.2    56  ASP56      -0.2867
     57  CB        31.2950  -17.3510  -14.9670 C.3    56  ASP56       0.1410
     58  CG        30.3770  -17.2720  -16.1480 C.2    56  ASP56       0.3668
     59  OD1       30.4020  -18.1940  -16.9930 O.co2  56  ASP56      -0.2456
     60  OD2       29.6220  -16.2860  -16.2160 O.co2  56  ASP56      -0.2456
     61  N         30.8990  -21.3250  -21.1470 N.3    64  THR64      -0.1203
     62  CA        30.2190  -21.0850  -19.8770 C.3    64  THR64       0.1994
     63  C         30.3890  -22.2710  -18.9250 C.2    64  THR64       0.2618
     64  O         30.6970  -23.3940  -19.3380 O.2    64  THR64      -0.2717
     65  CB        28.7380  -20.7960  -20.1160 C.3    64  THR64       0.1784
     66  OG1       28.1490  -20.3140  -18.9030 O.3    64  THR64      -0.2211
     67  CG2       28.0200  -22.0600  -20.6110 C.3    64  THR64       0.0376
     68  N         30.1650  -22.0120  -17.6340 N.am   65  VAL65      -0.1965
     69  CA        30.4130  -23.0010  -16.5860 C.3    65  VAL65       0.1727
     70  C         29.0970  -23.4630  -15.9660 C.2    65  VAL65       0.2616
     71  O         28.1120  -22.7190  -15.8910 O.2    65  VAL65      -0.2715
     72  CB        31.3590  -22.4540  -15.4940 C.3    65  VAL65       0.0290
     73  CG1       32.5560  -21.7860  -16.1210 C.3    65  VAL65       0.0023
     74  CG2       30.6330  -21.4840  -14.5750 C.3    65  VAL65       0.0023
     75  N         29.0940  -24.7100  -15.5110 N.am   66  VAL66      -0.1963
     76  CA        27.9820  -25.2960  -14.7670 C.3    66  VAL66       0.1727
     77  C         28.5430  -25.8960  -13.4830 C.2    66  VAL66       0.2616
     78  O         29.6050  -26.5290  -13.5070 O.2    66  VAL66      -0.2715
     79  CB        27.2450  -26.3690  -15.6080 C.3    66  VAL66       0.0290
     80  CG1       28.2390  -27.3100  -16.2290 C.3    66  VAL66       0.0023
     81  CG2       26.2590  -27.1560  -14.7600 C.3    66  VAL66       0.0023
     82  N         27.8510  -25.6800  -12.3630 N.am   67  GLY67      -0.1955
     83  CA        28.2720  -26.2880  -11.1090 C.3    67  GLY67       0.1869
     84  C         28.1750  -27.8070  -11.1530 C.2    67  GLY67       0.2309
     85  O         27.1950  -28.3750  -11.6410 O.2    67  GLY67      -0.2863
@<TRIPOS>BOND
     1    61    62    1
     2    67    65    1
     3    65    62    1
     4    65    66    1
     5    62    63    1
     6    64    63    2
     7    63    68   am
     8    68    69    1
     9     7     8    1
    10     7     6    1
    11    56    55    2
    12     8     9    2
    13    10     9    1
    14    59    58   ar
    15     9    11    1
    16    69    70    1
    17    69    72    1
    18    80    79    1
    19    60    58   ar
    20    58    57    1
    21    73    72    1
    22     6     5    1
    23    70    71    2
    24    70    75   am
    25    55    54    1
    26    79    76    1
    27    79    81    1
    28    75    76    1
    29    72    74    1
    30    54    57    1
    31    54    53    1
    32     5     2    1
    33    76    77    1
    34     4     3    2
    35     2     3    1
    36     2     1    1
    37    78    77    2
    38    77    82   am
    39     3    12   am
    40    82    83    1
    41    51    50    2
    42    45    44    2
    43    12    13    1
    44    85    84    2
    45    13    14    1
    46    13    16    1
    47    50    49    1
    48    84    83    1
    49    19    17    1
    50    14    15    2
    51    44    48   am
    52    44    43    1
    53    49    48    1
    54    49    52    1
    55    17    16    1
    56    17    18    1
    57    43    46    1
    58    43    42    1
    59    46    47    1
    60    35    33   ar
    61    39    38    2
    62    26    24    1
    63    30    29    2
    64    33    32    1
    65    33    34   ar
    66    24    25    1
    67    24    21    1
    68    32    31    1
    69    38    37    1
    70    20    21    1
    71    37    36    1
    72    37    40    1
    73    29    36   am
    74    29    28    1
    75    21    22    1
    76    40    41    1
    77    31    28    1
    78    28    27    1
    79    22    23    2
