@<TRIPOS>MOLECULE
tmp/5hmiB01.pdb
 180 173 0 0 0
SMALL
GASTEIGER

@<TRIPOS>ATOM
      1  N        -19.4370    3.4420    5.8640 N.3     5  GLN5       -0.1245
      2  CA       -18.2960    2.6650    6.3510 C.3     5  GLN5        0.1566
      3  C        -18.3820    1.1780    5.9300 C.2     5  GLN5        0.2260
      4  O        -17.5360    0.3780    6.3560 O.2     5  GLN5       -0.2867
      5  CB       -18.1480    2.8250    7.8710 C.3     5  GLN5        0.0367
      6  CG       -17.6430    4.1950    8.2620 C.3     5  GLN5        0.0905
      7  CD       -17.3000    4.2850    9.7260 C.2     5  GLN5        0.2608
      8  OE1      -18.1780    4.1710   10.5950 O.2     5  GLN5       -0.2717
      9  NE2      -16.0240    4.5180   10.0210 N.am    5  GLN5       -0.0878
     10  N        -14.4010    1.1900    7.6730 N.3    32  LYS32      -0.1245
     11  CA       -14.1590    0.9320    9.0950 C.3    32  LYS32       0.1561
     12  C        -12.8580    0.1450    9.2920 C.2    32  LYS32       0.2260
     13  O        -12.0590    0.4990   10.1700 O.2    32  LYS32      -0.2867
     14  CB       -15.3420    0.1960    9.7380 C.3    32  LYS32       0.0271
     15  CG       -16.2110    1.1180   10.5700 C.3    32  LYS32       0.0035
     16  CD       -17.5750    0.5120   10.8560 C.3    32  LYS32       0.0206
     17  CE       -18.4870    1.5090   11.5280 C.3    32  LYS32       0.1093
     18  NZ       -19.9150    1.1240   11.3960 N.3    32  LYS32      -0.1314
     19  N         -9.8220    2.4610    8.7080 N.3    35  LEU35      -0.1231
     20  CA        -9.6060    3.2670    9.9230 C.3    35  LEU35       0.1693
     21  C         -8.9450    2.4770   11.0410 C.2    35  LEU35       0.2592
     22  O         -8.0700    3.0120   11.7090 O.2    35  LEU35      -0.2718
     23  CB       -10.9050    3.9090   10.4420 C.3    35  LEU35       0.0284
     24  CG       -11.5450    4.9440    9.5050 C.3    35  LEU35       0.0019
     25  CD1      -12.9350    5.3320    9.9970 C.3    35  LEU35       0.0001
     26  CD2      -10.6710    6.1820    9.3800 C.3    35  LEU35       0.0001
     27  N         -9.3570    1.2100   11.2550 N.am   36  TYR36      -0.1976
     28  CA        -8.7980    0.3670   12.3060 C.3    36  TYR36       0.1639
     29  C         -7.3230    0.1010   12.0410 C.2    36  TYR36       0.2290
     30  O         -6.5160    0.3120   12.9320 O.2    36  TYR36      -0.2864
     31  CB        -9.5630   -0.9590   12.4580 C.3    36  TYR36       0.0560
     32  CG        -8.8570   -1.9240   13.3790 C.ar   36  TYR36      -0.0198
     33  CD1       -8.7300   -1.6520   14.7400 C.ar   36  TYR36      -0.0009
     34  CD2       -8.2640   -3.0820   12.8880 C.ar   36  TYR36      -0.0009
     35  CE1       -8.0290   -2.5040   15.5850 C.ar   36  TYR36       0.0417
     36  CE2       -7.5790   -3.9570   13.7330 C.ar   36  TYR36       0.0417
     37  CZ        -7.4570   -3.6600   15.0820 C.ar   36  TYR36       0.1957
     38  OH        -6.7720   -4.5000   15.9340 O.3    36  TYR36      -0.2866
     39  N         -5.2910    1.7660   10.0780 N.3    38  LEU38      -0.1231
     40  CA        -4.5590    3.0450   10.1540 C.3    38  LEU38       0.1693
     41  C         -4.2750    3.3930   11.6050 C.2    38  LEU38       0.2593
     42  O         -3.2040    3.9030   11.9230 O.2    38  LEU38      -0.2718
     43  CB        -5.3520    4.1870    9.5240 C.3    38  LEU38       0.0284
     44  CG        -5.2980    4.3120    7.9960 C.3    38  LEU38       0.0019
     45  CD1       -6.3830    5.2300    7.5290 C.3    38  LEU38       0.0001
     46  CD2       -3.9320    4.8230    7.5200 C.3    38  LEU38       0.0001
     47  N         -5.2420    3.1260   12.4790 N.am   39  GLY39      -0.1942
     48  CA        -5.0560    3.3390   13.9040 C.3    39  GLY39       0.2014
     49  C         -3.9700    2.4460   14.4590 C.2    39  GLY39       0.2638
     50  O         -3.1550    2.9060   15.2570 O.2    39  GLY39      -0.2714
     51  N         -3.9030    1.1790   13.9790 N.am   40  GLN40      -0.1977
     52  CA        -2.8570    0.2240   14.3900 C.3    40  GLN40       0.1601
     53  C         -1.4970    0.7420   14.0070 C.2    40  GLN40       0.2287
     54  O         -0.5510    0.6130   14.7890 O.2    40  GLN40      -0.2864
     55  CB        -3.0880   -1.1740   13.7810 C.3    40  GLN40       0.0394
     56  CG        -4.3570   -1.8790   14.3150 C.3    40  GLN40       0.0908
     57  CD        -4.2750   -2.0560   15.8150 C.2    40  GLN40       0.2608
     58  OE1       -3.5580   -2.9240   16.3320 O.2    40  GLN40      -0.2717
     59  NE2       -4.9040   -1.1500   16.5450 N.am   40  GLN40      -0.0878
     60  N         -0.6110    4.1470   13.4110 N.3    42  ILE42      -0.1231
     61  CA        -0.3380    5.3260   14.2500 C.3    42  ILE42       0.1692
     62  C          0.1110    4.9050   15.6470 C.2    42  ILE42       0.2591
     63  O          1.0660    5.4800   16.1820 O.2    42  ILE42      -0.2718
     64  CB        -1.5930    6.2370   14.2670 C.3    42  ILE42       0.0266
     65  CG1       -1.7540    6.9580   12.9110 C.3    42  ILE42       0.0019
     66  CG2       -1.6130    7.2280   15.4460 C.3    42  ILE42       0.0020
     67  CD1       -3.1670    7.2820   12.5930 C.3    42  ILE42       0.0001
     68  N         -0.5780    3.8950   16.2370 N.am   43  MET43      -0.1979
     69  CA        -0.2530    3.3810   17.5690 C.3    43  MET43       0.1605
     70  C          1.1000    2.6760   17.6300 C.2    43  MET43       0.2287
     71  O          1.9100    3.0380   18.4820 O.2    43  MET43      -0.2864
     72  CB        -1.3690    2.4780   18.1170 C.3    43  MET43       0.0413
     73  CG        -2.6570    3.2130   18.4420 C.3    43  MET43       0.0598
     74  SD        -2.5110    4.6920   19.4770 S.3    43  MET43      -0.1393
     75  CE        -2.5710    3.9660   21.1050 C.3    43  MET43       0.0692
     76  N          2.0910   10.3660   17.4380 N.3    48  TYR48      -0.1241
     77  CA         1.3130   11.3250   18.2120 C.3    48  TYR48       0.1605
     78  C          2.1880   11.8630   19.3240 C.2    48  TYR48       0.2264
     79  O          3.1600   11.2070   19.7060 O.2    48  TYR48      -0.2867
     80  CB         0.0060   10.6950   18.7440 C.3    48  TYR48       0.0534
     81  CG         0.1840    9.4280   19.5550 C.ar   48  TYR48      -0.0201
     82  CD1        0.2560    8.1820   18.9350 C.ar   48  TYR48      -0.0009
     83  CD2        0.2390    9.4690   20.9460 C.ar   48  TYR48      -0.0009
     84  CE1        0.3880    7.0080   19.6800 C.ar   48  TYR48       0.0417
     85  CE2        0.3670    8.3030   21.7020 C.ar   48  TYR48       0.0417
     86  CZ         0.4540    7.0760   21.0640 C.ar   48  TYR48       0.1957
     87  OH         0.5840    5.9260   21.8080 O.3    48  TYR48      -0.2866
     88  N         -2.7400   13.8790   22.5550 N.3    53  GLN53      -0.1231
     89  CA        -3.0040   12.5760   21.9350 C.3    53  GLN53       0.1698
     90  C         -3.9470   12.6120   20.7210 C.2    53  GLN53       0.2592
     91  O         -3.8930   11.6920   19.9080 O.2    53  GLN53      -0.2718
     92  CB        -3.5180   11.5560   22.9620 C.3    53  GLN53       0.0381
     93  CG        -2.4390   10.9400   23.8510 C.3    53  GLN53       0.0905
     94  CD        -2.9170    9.6830   24.5530 C.2    53  GLN53       0.2608
     95  OE1       -4.1050    9.5080   24.8650 O.2    53  GLN53      -0.2717
     96  NE2       -1.9980    8.7560   24.7820 N.am   53  GLN53      -0.0878
     97  N         -4.7910   13.6560   20.5880 N.am   54  HIS54      -0.1976
     98  CA        -5.6840   13.8020   19.4300 C.3    54  HIS54       0.1656
     99  C         -4.9380   14.2830   18.1630 C.2    54  HIS54       0.2291
    100  O         -5.4980   14.1660   17.0790 O.2    54  HIS54      -0.2864
    101  CB        -6.8900   14.7160   19.7250 C.3    54  HIS54       0.0771
    102  CG        -6.5110   16.0800   20.2160 C.ar   54  HIS54       0.0820
    103  ND1       -6.5740   17.1910   19.3880 N.ar   54  HIS54      -0.2267
    104  CD2       -6.0620   16.4690   21.4370 C.ar   54  HIS54       0.1154
    105  CE1       -6.1550   18.2110   20.1240 C.ar   54  HIS54       0.1986
    106  NE2       -5.8340   17.8250   21.3650 N.ar   54  HIS54      -0.2212
    107  N         -2.1190   13.8580   15.3880 N.3    56  VAL56      -0.1245
    108  CA        -1.2190   12.9360   14.7040 C.3    56  VAL56       0.1561
    109  C         -0.0980   13.7810   14.1130 C.2    56  VAL56       0.2260
    110  O         -0.3610   14.7880   13.4580 O.2    56  VAL56      -0.2867
    111  CB        -1.9400   12.0610   13.6320 C.3    56  VAL56       0.0252
    112  CG1       -0.9480   11.2910   12.7570 C.3    56  VAL56       0.0019
    113  CG2       -2.9160   11.0900   14.2860 C.3    56  VAL56       0.0019
    114  N          2.8070    8.0730    6.1650 N.3    63  LEU63      -0.1245
    115  CA         1.4340    8.5400    6.3880 C.3    63  LEU63       0.1561
    116  C          1.2550   10.0150    5.9910 C.2    63  LEU63       0.2260
    117  O          0.2630   10.3390    5.3480 O.2    63  LEU63      -0.2867
    118  CB         0.9910    8.2880    7.8380 C.3    63  LEU63       0.0270
    119  CG        -0.4700    8.6750    8.1750 C.3    63  LEU63       0.0019
    120  CD1       -1.4770    7.9860    7.2400 C.3    63  LEU63       0.0001
    121  CD2       -0.7860    8.3630    9.6250 C.3    63  LEU63       0.0001
    122  N         -1.2130   11.2650    3.0400 N.3    67  PHE67      -0.1241
    123  CA        -2.2730   12.2010    3.4470 C.3    67  PHE67       0.1605
    124  C         -2.0460   13.6200    2.9370 C.2    67  PHE67       0.2264
    125  O         -3.0150   14.3430    2.7200 O.2    67  PHE67      -0.2867
    126  CB        -2.5050   12.1800    4.9760 C.3    67  PHE67       0.0534
    127  CG        -3.3800   11.0670    5.5200 C.ar   67  PHE67      -0.0203
    128  CD1       -3.7050    9.9620    4.7360 C.ar   67  PHE67      -0.0042
    129  CD2       -3.9310   11.1540    6.7930 C.ar   67  PHE67      -0.0042
    130  CE1       -4.5390    8.9540    5.2310 C.ar   67  PHE67      -0.0003
    131  CE2       -4.7670   10.1430    7.2860 C.ar   67  PHE67      -0.0003
    132  CZ        -5.0620    9.0500    6.5070 C.ar   67  PHE67      -0.0000
    133  N         -2.5530   16.5670   11.8460 N.3    72  PHE72      -0.1241
    134  CA        -4.0010   16.6520   11.7800 C.3    72  PHE72       0.1605
    135  C         -4.5690   16.1250   13.0770 C.2    72  PHE72       0.2264
    136  O         -3.9040   15.3690   13.8180 O.2    72  PHE72      -0.2867
    137  CB        -4.5820   15.8940   10.5520 C.3    72  PHE72       0.0534
    138  CG        -4.3670   14.3970   10.5640 C.ar   72  PHE72      -0.0203
    139  CD1       -3.2230   13.8390   10.0040 C.ar   72  PHE72      -0.0042
    140  CD2       -5.3270   13.5430   11.1050 C.ar   72  PHE72      -0.0042
    141  CE1       -3.0270   12.4570   10.0110 C.ar   72  PHE72      -0.0003
    142  CE2       -5.1170   12.1630   11.1400 C.ar   72  PHE72      -0.0003
    143  CZ        -3.9630   11.6290   10.6010 C.ar   72  PHE72      -0.0000
    144  N         -7.3160   13.8950   14.9610 N.3    74  VAL74      -0.1245
    145  CA        -8.1030   12.6670   14.8390 C.3    74  VAL74       0.1561
    146  C         -9.6440   12.9480   14.8770 C.2    74  VAL74       0.2260
    147  O        -10.4360   12.0960   14.4620 O.2    74  VAL74      -0.2867
    148  CB        -7.5600   11.7080   15.9320 C.3    74  VAL74       0.0252
    149  CG1       -8.6220   11.0110   16.7700 C.3    74  VAL74       0.0019
    150  CG2       -6.5210   10.7430   15.3600 C.3    74  VAL74       0.0019
    151  N        -12.8640   14.3380   11.1500 N.3    77  HIS77      -0.1241
    152  CA       -13.3210   13.1710   10.3840 C.3    77  HIS77       0.1621
    153  C        -13.4830   13.4060    8.8840 C.2    77  HIS77       0.2264
    154  O        -13.0130   12.5760    8.1010 O.2    77  HIS77      -0.2867
    155  CB       -14.6000   12.5850   10.9710 C.3    77  HIS77       0.0745
    156  CG       -14.4700   12.0730   12.3770 C.ar   77  HIS77       0.0817
    157  ND1      -15.5770   11.6340   13.0820 N.ar   77  HIS77      -0.2268
    158  CD2      -13.3690   11.9220   13.1530 C.ar   77  HIS77       0.1154
    159  CE1      -15.1180   11.2580   14.2680 C.ar   77  HIS77       0.1986
    160  NE2      -13.7920   11.4080   14.3480 N.ar   77  HIS77      -0.2212
    161  N        -10.1370   13.8270    7.2480 N.3    80  ILE80      -0.1231
    162  CA        -9.4750   12.5120    7.2420 C.3    80  ILE80       0.1692
    163  C        -10.0350   11.6420    6.1200 C.2    80  ILE80       0.2592
    164  O         -9.2500   11.0670    5.3690 O.2    80  ILE80      -0.2718
    165  CB        -9.4770   11.8200    8.6340 C.3    80  ILE80       0.0266
    166  CG1       -8.5510   12.5770    9.5960 C.3    80  ILE80       0.0019
    167  CG2       -9.0280   10.3550    8.5400 C.3    80  ILE80       0.0020
    168  CD1       -8.9120   12.3910   11.0920 C.3    80  ILE80       0.0001
    169  N        -11.3690   11.5820    5.9750 N.am   81  TYR81      -0.1976
    170  CA       -11.9580   10.8310    4.8690 C.3    81  TYR81       0.1639
    171  C        -11.4290   11.3470    3.5210 C.2    81  TYR81       0.2290
    172  O        -11.0210   10.5290    2.7090 O.2    81  TYR81      -0.2864
    173  CB       -13.4930   10.8480    4.8940 C.3    81  TYR81       0.0560
    174  CG       -14.1080    9.9490    5.9430 C.ar   81  TYR81      -0.0198
    175  CD1      -13.7580    8.6030    6.0310 C.ar   81  TYR81      -0.0009
    176  CD2      -15.1020   10.4190    6.7950 C.ar   81  TYR81      -0.0009
    177  CE1      -14.3510    7.7610    6.9740 C.ar   81  TYR81       0.0417
    178  CE2      -15.6820    9.5940    7.7530 C.ar   81  TYR81       0.0417
    179  CZ       -15.3150    8.2610    7.8290 C.ar   81  TYR81       0.1957
    180  OH       -15.8980    7.4380    8.7660 O.3    81  TYR81      -0.2866
@<TRIPOS>BOND
     1   172   171    2
     2   125   124    2
     3   124   123    1
     4   122   123    1
     5   123   126    1
     6   171   170    1
     7   128   130   ar
     8   128   127   ar
     9   170   173    1
    10   170   169    1
    11   173   174    1
    12   126   127    1
    13   130   132   ar
    14   117   116    2
    15   164   163    2
    16   127   129   ar
    17     1     2    1
    18     3     2    1
    19     3     4    2
    20   174   175   ar
    21   174   176   ar
    22   169   163   am
    23   116   115    1
    24   175   177   ar
    25   163   162    1
    26   114   115    1
    27     2     5    1
    28   115   118    1
    29   132   131   ar
    30   129   131   ar
    31   176   178   ar
    32   177   179   ar
    33   120   119    1
    34   162   161    1
    35   162   165    1
    36    46    44    1
    37    45    44    1
    38    10    11    1
    39   178   179   ar
    40   179   180    1
    41   118   119    1
    42     5     6    1
    43    44    43    1
    44   154   153    2
    45   119   121    1
    46     6     7    1
    47   167   165    1
    48   165   166    1
    49    19    20    1
    50   153   152    1
    51    11    12    1
    52    11    14    1
    53    12    13    2
    54    26    24    1
    55    24    25    1
    56    24    23    1
    57    43    40    1
    58   166   168    1
    59     7     9   am
    60     7     8    2
    61    14    15    1
    62    20    23    1
    63    20    21    1
    64   139   141   ar
    65   139   138   ar
    66   141   143   ar
    67    39    40    1
    68    40    41    1
    69   152   155    1
    70   152   151    1
    71   137   138    1
    72   137   134    1
    73   138   140   ar
    74    15    16    1
    75   143   142   ar
    76    16    17    1
    77   155   156    1
    78    21    27   am
    79    21    22    2
    80   140   142   ar
    81    27    28    1
    82    18    17    1
    83    41    42    2
    84    41    47   am
    85   134   133    1
    86   134   135    1
    87    29    28    1
    88    29    30    2
    89    28    31    1
    90   156   157   ar
    91   156   158   ar
    92    31    32    1
    93    47    48    1
    94    67    65    1
    95   112   111    1
    96    34    32   ar
    97    34    36   ar
    98    65    64    1
    99   135   136    2
   100   157   159   ar
   101   158   160   ar
   102    32    33   ar
   103    60    61    1
   104   110   109    2
   105   111   113    1
   106   111   108    1
   107    36    37   ar
   108    55    56    1
   109    55    52    1
   110    48    49    1
   111    51    52    1
   112    51    49   am
   113    53    52    1
   114    53    54    2
   115   109   108    1
   116    61    64    1
   117    61    62    1
   118    64    66    1
   119   159   160   ar
   120    56    57    1
   121    49    50    2
   122   147   146    2
   123   108   107    1
   124    33    35   ar
   125   145   146    1
   126   145   144    1
   127   145   148    1
   128    37    35   ar
   129    37    38    1
   130   150   148    1
   131    62    63    2
   132    62    68   am
   133    57    58    2
   134    57    59   am
   135   148   149    1
   136    68    69    1
   137   100    99    2
   138    76    77    1
   139    69    70    1
   140    69    72    1
   141    70    71    2
   142    72    73    1
   143    99    98    1
   144    77    80    1
   145    77    78    1
   146    73    74    1
   147    80    81    1
   148    82    81   ar
   149    82    84   ar
   150    78    79    2
   151   103   105   ar
   152   103   102   ar
   153    98   101    1
   154    98    97    1
   155    74    75    1
   156    81    83   ar
   157    84    86   ar
   158   101   102    1
   159    91    90    2
   160   105   106   ar
   161   102   104   ar
   162    97    90   am
   163    90    89    1
   164    83    85   ar
   165    86    85   ar
   166    86    87    1
   167   106   104   ar
   168    89    88    1
   169    89    92    1
   170    92    93    1
   171    93    94    1
   172    94    96   am
   173    94    95    2
