@<TRIPOS>MOLECULE
tmp/5hmkA00.pdb
 170 164 0 0 0
SMALL
GASTEIGER

@<TRIPOS>ATOM
      1  N         12.5960    0.2950   24.6730 N.3    29  LEU29      -0.1231
      2  CA        13.4380    0.4370   23.4750 C.3    29  LEU29       0.1693
      3  C         12.6900    1.0980   22.3140 C.2    29  LEU29       0.2592
      4  O         13.2340    2.0040   21.6890 O.2    29  LEU29      -0.2718
      5  CB        14.0250   -0.9050   23.0320 C.3    29  LEU29       0.0284
      6  CG        15.0450   -1.5630   23.9670 C.3    29  LEU29       0.0019
      7  CD1       15.2220   -3.0250   23.6230 C.3    29  LEU29       0.0001
      8  CD2       16.3900   -0.8420   23.9270 C.3    29  LEU29       0.0001
      9  N         11.4370    0.6640   22.0530 N.am   30  TYR30      -0.1976
     10  CA        10.5860    1.2100   20.9960 C.3    30  TYR30       0.1639
     11  C         10.3340    2.6830   21.2220 C.2    30  TYR30       0.2290
     12  O         10.6670    3.4850   20.3600 O.2    30  TYR30      -0.2864
     13  CB         9.2420    0.4550   20.8800 C.3    30  TYR30       0.0560
     14  CG         8.3250    1.0890   19.8620 C.ar   30  TYR30      -0.0198
     15  CD1        8.6940    1.1730   18.5240 C.ar   30  TYR30      -0.0009
     16  CD2        7.1370    1.6980   20.2490 C.ar   30  TYR30      -0.0009
     17  CE1        7.9140    1.8630   17.5980 C.ar   30  TYR30       0.0417
     18  CE2        6.3310    2.3670   19.3230 C.ar   30  TYR30       0.0417
     19  CZ         6.7230    2.4410   17.9960 C.ar   30  TYR30       0.1957
     20  OH         5.9460    3.0860   17.0670 O.3    30  TYR30      -0.2866
     21  N         11.8270    4.7570   23.2810 N.3    32  LEU32      -0.1231
     22  CA        13.0950    5.4850   23.2770 C.3    32  LEU32       0.1693
     23  C         13.5110    5.7790   21.8280 C.2    32  LEU32       0.2593
     24  O         14.0280    6.8580   21.5400 O.2    32  LEU32      -0.2718
     25  CB        14.1890    4.6780   24.0040 C.3    32  LEU32       0.0284
     26  CG        14.3090    4.8760   25.5250 C.3    32  LEU32       0.0019
     27  CD1       15.2270    3.8500   26.1300 C.3    32  LEU32       0.0001
     28  CD2       14.8560    6.2440   25.8680 C.3    32  LEU32       0.0001
     29  N         13.2440    4.8220   20.9290 N.am   33  GLY33      -0.1942
     30  CA        13.4950    4.9610   19.5040 C.3    33  GLY33       0.2014
     31  C         12.6250    6.0400   18.8900 C.2    33  GLY33       0.2638
     32  O         13.1360    6.8650   18.1350 O.2    33  GLY33      -0.2714
     33  N         11.3100    6.0830   19.2340 N.am   34  GLN34      -0.1977
     34  CA        10.3880    7.1250   18.7450 C.3    34  GLN34       0.1601
     35  C         10.9170    8.4900   19.1610 C.2    34  GLN34       0.2287
     36  O         10.9400    9.4140   18.3400 O.2    34  GLN34      -0.2864
     37  CB         8.9580    6.9410   19.2870 C.3    34  GLN34       0.0394
     38  CG         8.2190    5.6870   18.8030 C.3    34  GLN34       0.0908
     39  CD         8.0520    5.6840   17.3100 C.2    34  GLN34       0.2608
     40  OE1        7.2500    6.4340   16.7480 O.2    34  GLN34      -0.2717
     41  NE2        8.8580    4.8830   16.6340 N.am   34  GLN34      -0.0878
     42  N         14.1390    9.3960   19.8510 N.3    36  ILE36      -0.1231
     43  CA        15.3380    9.6620   19.0470 C.3    36  ILE36       0.1692
     44  C         14.9400   10.1520   17.6560 C.2    36  ILE36       0.2591
     45  O         15.4950   11.1370   17.1690 O.2    36  ILE36      -0.2718
     46  CB        16.2800    8.4180   19.0080 C.3    36  ILE36       0.0266
     47  CG1       17.0050    8.2590   20.3710 C.3    36  ILE36       0.0019
     48  CG2       17.2990    8.5040   17.8730 C.3    36  ILE36       0.0020
     49  CD1       17.6410    6.8890   20.6510 C.3    36  ILE36       0.0001
     50  N         13.9520    9.4840   17.0510 N.am   37  MET37      -0.1979
     51  CA        13.4580    9.7700   15.7180 C.3    37  MET37       0.1605
     52  C         12.7560   11.1160   15.6030 C.2    37  MET37       0.2287
     53  O         13.0770   11.8540   14.6810 O.2    37  MET37      -0.2864
     54  CB        12.5720    8.6220   15.2000 C.3    37  MET37       0.0413
     55  CG        13.3340    7.3160   14.9430 C.3    37  MET37       0.0598
     56  SD        14.7090    7.4890   13.7820 S.3    37  MET37      -0.1393
     57  CE        13.8490    7.3700   12.1850 C.3    37  MET37       0.0692
     58  N         20.4010   12.1650   16.0480 N.3    42  TYR42      -0.1241
     59  CA        21.3690   11.4290   15.2370 C.3    42  TYR42       0.1605
     60  C         21.7920   12.2870   14.0380 C.2    42  TYR42       0.2264
     61  O         21.1840   13.3210   13.7800 O.2    42  TYR42      -0.2867
     62  CB        20.7630   10.0780   14.7630 C.3    42  TYR42       0.0534
     63  CG        19.5280   10.2210   13.8990 C.ar   42  TYR42      -0.0201
     64  CD1       18.2620   10.3470   14.4680 C.ar   42  TYR42      -0.0009
     65  CD2       19.6170   10.1680   12.5070 C.ar   42  TYR42      -0.0009
     66  CE1       17.1200   10.4740   13.6740 C.ar   42  TYR42       0.0417
     67  CE2       18.4850   10.2950   11.7020 C.ar   42  TYR42       0.0417
     68  CZ        17.2400   10.4550   12.2880 C.ar   42  TYR42       0.1957
     69  OH        16.1320   10.5780   11.4860 O.3    42  TYR42      -0.2866
     70  N         24.3780    6.9900   10.7610 N.3    47  GLN47      -0.1231
     71  CA        23.0540    6.4880   11.1590 C.3    47  GLN47       0.1698
     72  C         23.0530    5.7500   12.5040 C.2    47  GLN47       0.2592
     73  O         22.0790    5.8510   13.2510 O.2    47  GLN47      -0.2718
     74  CB        22.5050    5.5470   10.0680 C.3    47  GLN47       0.0381
     75  CG        22.0680    6.2490    8.7800 C.3    47  GLN47       0.0905
     76  CD        20.6100    6.6200    8.8360 C.2    47  GLN47       0.2608
     77  OE1       19.7500    5.8720    8.3710 O.2    47  GLN47      -0.2717
     78  NE2       20.2950    7.7620    9.4490 N.am   47  GLN47      -0.0878
     79  N         24.1310    5.0050   12.8000 N.am   48  HIS48      -0.1976
     80  CA        24.2630    4.2020   14.0150 C.3    48  HIS48       0.1656
     81  C         24.6420    4.9940   15.2710 C.2    48  HIS48       0.2291
     82  O         24.5230    4.4610   16.3770 O.2    48  HIS48      -0.2864
     83  CB        25.2570    3.0390   13.8010 C.3    48  HIS48       0.0771
     84  CG        24.9240    2.1330   12.6590 C.ar   48  HIS48       0.0820
     85  ND1       25.8780    1.7810   11.7200 N.ar   48  HIS48      -0.2267
     86  CD2       23.7490    1.5470   12.3260 C.ar   48  HIS48       0.1154
     87  CE1       25.2640    0.9800   10.8600 C.ar   48  HIS48       0.1986
     88  NE2       23.9810    0.8090   11.1810 N.ar   48  HIS48      -0.2212
     89  N         23.9770    7.8360   17.9790 N.3    50  VAL50      -0.1245
     90  CA        22.9840    8.7070   18.6110 C.3    50  VAL50       0.1561
     91  C         23.7520    9.8140   19.2910 C.2    50  VAL50       0.2260
     92  O         24.6820    9.5130   20.0140 O.2    50  VAL50      -0.2867
     93  CB        22.0530    7.9470   19.5910 C.3    50  VAL50       0.0252
     94  CG1       21.1830    8.9200   20.3980 C.3    50  VAL50       0.0019
     95  CG2       21.1800    6.9500   18.8440 C.3    50  VAL50       0.0019
     96  N         17.9790   12.7790   27.2710 N.3    57  LEU57      -0.1245
     97  CA        18.3820   11.4160   27.0010 C.3    57  LEU57       0.1561
     98  C         19.8390   11.1600   27.4250 C.2    57  LEU57       0.2260
     99  O         20.0810   10.2050   28.1460 O.2    57  LEU57      -0.2867
    100  CB        18.1200   11.0280   25.5340 C.3    57  LEU57       0.0270
    101  CG        18.3190    9.5290   25.1580 C.3    57  LEU57       0.0019
    102  CD1       17.7860    8.5650   26.2360 C.3    57  LEU57       0.0001
    103  CD2       17.7040    9.2150   23.8090 C.3    57  LEU57       0.0001
    104  N         21.1300    8.7640   30.4930 N.3    61  PHE61      -0.1241
    105  CA        22.0520    7.7110   30.0870 C.3    61  PHE61       0.1605
    106  C         23.4850    7.9200   30.5850 C.2    61  PHE61       0.2264
    107  O         24.2360    6.9530   30.7240 O.2    61  PHE61      -0.2867
    108  CB        22.0190    7.5520   28.5500 C.3    61  PHE61       0.0534
    109  CG        20.9830    6.6090   27.9740 C.ar   61  PHE61      -0.0203
    110  CD1       19.8340    6.2840   28.6880 C.ar   61  PHE61      -0.0042
    111  CD2       21.1190    6.1100   26.6790 C.ar   61  PHE61      -0.0042
    112  CE1       18.8770    5.4140   28.1470 C.ar   61  PHE61      -0.0003
    113  CE2       20.1770    5.2210   26.1500 C.ar   61  PHE61      -0.0003
    114  CZ        19.0580    4.8900   26.8810 C.ar   61  PHE61      -0.0000
    115  N         26.2780    7.3990   21.6810 N.3    66  PHE66      -0.1241
    116  CA        26.3600    5.9500   21.7460 C.3    66  PHE66       0.1605
    117  C         25.9690    5.3650   20.4260 C.2    66  PHE66       0.2264
    118  O         25.2200    5.9800   19.6670 O.2    66  PHE66      -0.2867
    119  CB        25.5020    5.3610   22.8930 C.3    66  PHE66       0.0534
    120  CG        24.0070    5.5600   22.7910 C.ar   66  PHE66      -0.0203
    121  CD1       23.1950    4.5770   22.2230 C.ar   66  PHE66      -0.0042
    122  CD2       23.4040    6.7000   23.3140 C.ar   66  PHE66      -0.0042
    123  CE1       21.8120    4.7340   22.1750 C.ar   66  PHE66      -0.0003
    124  CE2       22.0190    6.8550   23.2740 C.ar   66  PHE66      -0.0003
    125  CZ        21.2320    5.8770   22.6920 C.ar   66  PHE66      -0.0000
    126  N         24.0150    2.5280   18.2960 N.3    68  VAL68      -0.1245
    127  CA        22.8040    1.6970   18.2920 C.3    68  VAL68       0.1561
    128  C         23.1870    0.1860   18.3630 C.2    68  VAL68       0.2260
    129  O         22.3620   -0.6340   18.7560 O.2    68  VAL68      -0.2867
    130  CB        21.9110    2.0470   17.0550 C.3    68  VAL68       0.0252
    131  CG1       22.4390    1.4330   15.7520 C.3    68  VAL68       0.0019
    132  CG2       20.4650    1.6500   17.2800 C.3    68  VAL68       0.0019
    133  N         24.3390   -2.8650   22.3460 N.3    71  HIS71      -0.1241
    134  CA        23.1560   -3.4010   23.0280 C.3    71  HIS71       0.1621
    135  C         23.3450   -3.5770   24.5320 C.2    71  HIS71       0.2264
    136  O         22.5100   -3.1030   25.3140 O.2    71  HIS71      -0.2867
    137  CB        22.6700   -4.7020   22.3730 C.3    71  HIS71       0.0745
    138  CG        22.1910   -4.5540   20.9500 C.ar   71  HIS71       0.0817
    139  ND1       21.8510   -5.6580   20.1860 N.ar   71  HIS71      -0.2268
    140  CD2       22.0340   -3.4440   20.1900 C.ar   71  HIS71       0.1154
    141  CE1       21.4790   -5.1810   19.0090 C.ar   71  HIS71       0.1986
    142  NE2       21.5830   -3.8580   18.9610 N.ar   71  HIS71      -0.2212
    143  N         23.6880   -0.1810   26.1390 N.3    74  ILE74      -0.1231
    144  CA        22.3690    0.4680   26.1360 C.3    74  ILE74       0.1692
    145  C         21.5040   -0.0850   27.2950 C.2    74  ILE74       0.2592
    146  O         20.9020    0.7050   28.0210 O.2    74  ILE74      -0.2718
    147  CB        21.6770    0.4120   24.7350 C.3    74  ILE74       0.0266
    148  CG1       22.4240    1.2950   23.7220 C.3    74  ILE74       0.0019
    149  CG2       20.2060    0.8220   24.8160 C.3    74  ILE74       0.0020
    150  CD1       22.1020    1.0080   22.2450 C.3    74  ILE74       0.0001
    151  N         21.4580   -1.4250   27.4700 N.am   75  TYR75      -0.1976
    152  CA        20.7080   -2.0390   28.5700 C.3    75  TYR75       0.1639
    153  C         21.1910   -1.4810   29.9030 C.2    75  TYR75       0.2290
    154  O         20.3580   -1.0480   30.6920 O.2    75  TYR75      -0.2864
    155  CB        20.7670   -3.5820   28.5550 C.3    75  TYR75       0.0560
    156  CG        19.9660   -4.2330   27.4400 C.ar   75  TYR75      -0.0198
    157  CD1       18.6840   -3.7900   27.1250 C.ar   75  TYR75      -0.0009
    158  CD2       20.4720   -5.3200   26.7310 C.ar   75  TYR75      -0.0009
    159  CE1       17.9390   -4.3870   26.1130 C.ar   75  TYR75       0.0417
    160  CE2       19.7320   -5.9300   25.7210 C.ar   75  TYR75       0.0417
    161  CZ        18.4620   -5.4600   25.4180 C.ar   75  TYR75       0.1957
    162  OH        17.7060   -6.0300   24.4220 O.3    75  TYR75      -0.2866
    163  N         19.8210    2.0420   30.3350 N.3    78  ILE78      -0.1245
    164  CA        18.3670    1.9600   30.5780 C.3    78  ILE78       0.1561
    165  C         18.0510    1.4270   32.0040 C.2    78  ILE78       0.2260
    166  O         17.2220    2.0220   32.7010 O.2    78  ILE78      -0.2867
    167  CB        17.6390    1.1170   29.4920 C.3    78  ILE78       0.0252
    168  CG1       17.7730    1.7430   28.0940 C.3    78  ILE78       0.0019
    169  CG2       16.1540    0.8930   29.8350 C.3    78  ILE78       0.0019
    170  CD1       17.4070    0.8080   26.9760 C.3    78  ILE78       0.0001
@<TRIPOS>BOND
     1    77    76    2
     2    75    76    1
     3    75    74    1
     4    76    78   am
     5    74    71    1
     6    70    71    1
     7    87    88   ar
     8    87    85   ar
     9    71    72    1
    10    88    86   ar
    11    69    68    1
    12    67    68   ar
    13    67    65   ar
    14    85    84   ar
    15    57    56    1
    16    68    66   ar
    17    86    84   ar
    18    72    79   am
    19    72    73    2
    20    65    63   ar
    21    84    83    1
    22    79    80    1
    23    66    64   ar
    24    61    60    2
    25    56    55    1
    26    83    80    1
    27    63    64   ar
    28    63    62    1
    29    80    81    1
    30    60    59    1
    31    53    52    2
    32    62    59    1
    33    55    54    1
    34    54    51    1
    35    59    58    1
    36    81    82    2
    37    52    51    1
    38    51    50    1
    39   131   130    1
    40    41    39   am
    41    40    39    2
    42    50    44   am
    43   130   132    1
    44   130   127    1
    45    20    19    1
    46    45    44    2
    47    39    38    1
    48    17    19   ar
    49    17    15   ar
    50    44    43    1
    51    48    46    1
    52    89    90    1
    53    19    18   ar
    54    32    31    2
    55   127   126    1
    56   127   128    1
    57    36    35    2
    58   128   129    2
    59    15    14   ar
    60    90    91    1
    61    90    93    1
    62    34    35    1
    63    34    33    1
    64    34    37    1
    65    38    37    1
    66    95    93    1
    67    31    33   am
    68    31    30    1
    69   142   141   ar
    70   142   140   ar
    71    46    43    1
    72    46    47    1
    73   141   139   ar
    74    43    42    1
    75    91    92    2
    76    18    16   ar
    77    30    29    1
    78    93    94    1
    79   118   117    2
    80    14    16   ar
    81    14    13    1
    82   139   138   ar
    83   140   138   ar
    84    12    11    2
    85    47    49    1
    86   117   116    1
    87    13    10    1
    88    29    23   am
    89   138   137    1
    90    10    11    1
    91    10     9    1
    92    24    23    2
    93   115   116    1
    94     4     3    2
    95   116   119    1
    96    23    22    1
    97     9     3   am
    98   123   121   ar
    99   123   125   ar
   100   121   120   ar
   101   150   148    1
   102     3     2    1
   103   133   134    1
   104   137   134    1
   105   125   124   ar
   106   120   119    1
   107   120   122   ar
   108   134   135    1
   109     5     2    1
   110     5     6    1
   111   124   122   ar
   112    22    21    1
   113    22    25    1
   114     2     1    1
   115     7     6    1
   116   148   147    1
   117   103   101    1
   118     8     6    1
   119    25    26    1
   120   162   161    1
   121   135   136    2
   122   147   149    1
   123   147   144    1
   124   101   100    1
   125   101   102    1
   126   161   160   ar
   127   161   159   ar
   128    26    28    1
   129    26    27    1
   130   100    97    1
   131   160   158   ar
   132   159   157   ar
   133   144   143    1
   134   144   145    1
   135   113   111   ar
   136   113   114   ar
   137   111   109   ar
   138   158   156   ar
   139   114   112   ar
   140   170   168    1
   141    97    96    1
   142    97    98    1
   143   157   156   ar
   144   145   151   am
   145   145   146    2
   146    98    99    2
   147   156   155    1
   148   151   152    1
   149   109   108    1
   150   109   110   ar
   151   168   167    1
   152   112   110   ar
   153   108   105    1
   154   155   152    1
   155   152   153    1
   156   167   169    1
   157   167   164    1
   158   153   154    2
   159   105   104    1
   160   105   106    1
   161   163   164    1
   162   164   165    1
   163   106   107    2
   164   165   166    2
