@<TRIPOS>MOLECULE
tmp/5hmnA01.pdb
 138 136 0 0 0
SMALL
GASTEIGER

@<TRIPOS>ATOM
      1  N         -4.2940    4.8640  -80.8710 N.3    26  PHE26      -0.1241
      2  CA        -5.5170    4.1040  -80.6480 C.3    26  PHE26       0.1605
      3  C         -6.1120    3.5750  -81.9540 C.2    26  PHE26       0.2264
      4  O         -7.1490    2.9130  -81.9420 O.2    26  PHE26      -0.2867
      5  CB        -6.5500    4.9670  -79.9250 C.3    26  PHE26       0.0534
      6  CG        -6.1310    5.3870  -78.5450 C.ar   26  PHE26      -0.0203
      7  CD1       -5.4750    4.5030  -77.7080 C.ar   26  PHE26      -0.0042
      8  CD2       -6.3900    6.6700  -78.0870 C.ar   26  PHE26      -0.0042
      9  CE1       -5.0910    4.8870  -76.4320 C.ar   26  PHE26      -0.0003
     10  CE2       -6.0030    7.0620  -76.8130 C.ar   26  PHE26      -0.0003
     11  CZ        -5.3550    6.1680  -75.9870 C.ar   26  PHE26      -0.0000
     12  N        -10.6870   11.0710  -82.7050 N.3    32  TYR32      -0.1241
     13  CA        -9.8080   12.0400  -82.0550 C.3    32  TYR32       0.1605
     14  C         -9.4750   13.2780  -82.8900 C.2    32  TYR32       0.2264
     15  O         -9.0750   14.3040  -82.3350 O.2    32  TYR32      -0.2867
     16  CB        -8.5110   11.3470  -81.6260 C.3    32  TYR32       0.0534
     17  CG        -8.7080   10.4400  -80.4300 C.ar   32  TYR32      -0.0201
     18  CD1       -8.5990   10.9370  -79.1400 C.ar   32  TYR32      -0.0009
     19  CD2       -9.0320    9.0960  -80.5930 C.ar   32  TYR32      -0.0009
     20  CE1       -8.7930   10.1260  -78.0410 C.ar   32  TYR32       0.0417
     21  CE2       -9.2260    8.2680  -79.4910 C.ar   32  TYR32       0.0417
     22  CZ        -9.1020    8.7970  -78.2160 C.ar   32  TYR32       0.1957
     23  OH        -9.2870    8.0110  -77.1000 O.3    32  TYR32      -0.2866
     24  N         -8.5380   10.2600  -62.1610 N.3    82  TYR82      -0.1227
     25  CA        -8.8910    9.2450  -63.1380 C.3    82  TYR82       0.1736
     26  C         -8.1960    9.5060  -64.4670 C.2    82  TYR82       0.2595
     27  O         -8.4800   10.4900  -65.1410 O.2    82  TYR82      -0.2718
     28  CB       -10.4070    9.2030  -63.3160 C.3    82  TYR82       0.0548
     29  CG       -10.9050    8.2780  -64.3970 C.ar   82  TYR82      -0.0200
     30  CD1      -10.3700    7.0080  -64.5560 C.ar   82  TYR82      -0.0009
     31  CD2      -11.9390    8.6640  -65.2420 C.ar   82  TYR82      -0.0009
     32  CE1      -10.8320    6.1580  -65.5340 C.ar   82  TYR82       0.0417
     33  CE2      -12.4090    7.8190  -66.2240 C.ar   82  TYR82       0.0417
     34  CZ       -11.8530    6.5660  -66.3650 C.ar   82  TYR82       0.1957
     35  OH       -12.3160    5.7170  -67.3460 O.3    82  TYR82      -0.2866
     36  N         -7.2710    8.6240  -64.8310 N.am   83  ILE83      -0.1966
     37  CA        -6.6620    8.6670  -66.1550 C.3    83  ILE83       0.1727
     38  C         -7.6600    8.1700  -67.1860 C.2    83  ILE83       0.2616
     39  O         -8.1070    7.0240  -67.1220 O.2    83  ILE83      -0.2715
     40  CB        -5.3880    7.8030  -66.2290 C.3    83  ILE83       0.0290
     41  CG1       -4.3490    8.3160  -65.2320 C.3    83  ILE83       0.0022
     42  CG2       -4.8240    7.8020  -67.6510 C.3    83  ILE83       0.0023
     43  CD1       -3.0920    7.4540  -65.1640 C.3    83  ILE83       0.0001
     44  N         -8.0230    9.0330  -68.1300 N.am   84  TYR84      -0.1960
     45  CA        -8.9790    8.6430  -69.1510 C.3    84  TYR84       0.1771
     46  C         -8.2440    8.0460  -70.3350 C.2    84  TYR84       0.2620
     47  O         -8.5390    6.9410  -70.7390 O.2    84  TYR84      -0.2715
     48  CB        -9.8330    9.8290  -69.6030 C.3    84  TYR84       0.0574
     49  CG       -11.0550    9.4080  -70.3940 C.ar   84  TYR84      -0.0198
     50  CD1      -12.2850    9.2500  -69.7700 C.ar   84  TYR84      -0.0009
     51  CD2      -10.9730    9.1520  -71.7600 C.ar   84  TYR84      -0.0009
     52  CE1      -13.4010    8.8590  -70.4870 C.ar   84  TYR84       0.0417
     53  CE2      -12.0810    8.7620  -72.4820 C.ar   84  TYR84       0.0417
     54  CZ       -13.2890    8.6170  -71.8430 C.ar   84  TYR84       0.1957
     55  OH       -14.3910    8.2270  -72.5590 O.3    84  TYR84      -0.2866
     56  N         -7.2800    8.7750  -70.8850 N.am   85  ASP85      -0.1957
     57  CA        -6.5010    8.2830  -72.0240 C.3    85  ASP85       0.1840
     58  C         -5.0090    8.4130  -71.7590 C.2    85  ASP85       0.2621
     59  O         -4.5600    9.4180  -71.2170 O.2    85  ASP85      -0.2715
     60  CB        -6.8530    9.0580  -73.3030 C.3    85  ASP85       0.1450
     61  CG        -8.1490    8.5950  -73.9210 C.2    85  ASP85       0.3671
     62  OD1       -8.5220    7.4420  -73.6760 O.co2  85  ASP85      -0.2456
     63  OD2       -8.7920    9.3710  -74.6550 O.co2  85  ASP85      -0.2456
     64  N         -4.2480    7.4030  -72.1640 N.am   86  LEU86      -0.1977
     65  CA        -2.7920    7.4360  -72.0710 C.3    86  LEU86       0.1596
     66  C         -2.2020    6.7210  -73.2760 C.2    86  LEU86       0.2287
     67  O         -2.5400    5.5640  -73.5440 O.2    86  LEU86      -0.2864
     68  CB        -2.3130    6.7850  -70.7650 C.3    86  LEU86       0.0297
     69  CG        -0.8300    6.4220  -70.6450 C.3    86  LEU86       0.0022
     70  CD1        0.0440    7.6490  -70.7450 C.3    86  LEU86       0.0001
     71  CD2       -0.5620    5.6860  -69.3420 C.3    86  LEU86       0.0001
     72  N         -7.0520    3.8950  -63.2710 N.3   119  VAL119     -0.1231
     73  CA        -7.1410    3.8190  -64.7220 C.3   119  VAL119      0.1692
     74  C         -7.7520    2.4730  -65.1120 C.2   119  VAL119      0.2592
     75  O         -7.5900    1.4830  -64.3940 O.2   119  VAL119     -0.2718
     76  CB        -5.7440    4.0070  -65.3890 C.3   119  VAL119      0.0266
     77  CG1       -4.7730    2.9240  -64.9430 C.3   119  VAL119      0.0020
     78  CG2       -5.8510    4.0510  -66.9080 C.3   119  VAL119      0.0020
     79  N         -8.6510    2.4330  -66.0570 N.am  120  GLN120     -0.1966
     80  CA        -9.0770    1.2310  -66.7460 C.3   120  GLN120      0.1733
     81  C         -8.1880    0.6000  -67.9180 C.2   120  GLN120      0.2616
     82  O         -7.5730    1.2550  -68.8230 O.2   120  GLN120     -0.2715
     83  CB       -10.4960    1.4890  -67.2520 C.3   120  GLN120      0.0408
     84  CG       -11.5700    1.5300  -66.1950 C.3   120  GLN120      0.0908
     85  CD       -12.9600    1.3980  -66.7900 C.2   120  GLN120      0.2608
     86  OE1      -13.1480    1.5270  -68.0030 O.2   120  GLN120     -0.2717
     87  NE2      -13.9390    1.1260  -65.9410 N.am  120  GLN120     -0.0878
     88  N         -8.2970   -0.6760  -68.0100 N.am  121  ALA121     -0.1963
     89  CA        -7.6470   -1.3590  -69.1150 C.3   121  ALA121      0.1728
     90  C         -8.5730   -2.4390  -69.6520 C.2   121  ALA121      0.2616
     91  O         -9.2750   -3.0910  -68.8830 O.2   121  ALA121     -0.2715
     92  CB        -6.3270   -1.9540  -68.6680 C.3   121  ALA121      0.0334
     93  N         -8.5790   -2.6240  -70.9690 N.am  122  ASP122     -0.1971
     94  CA        -9.4190   -3.6480  -71.5840 C.3   122  ASP122      0.1709
     95  C         -8.7700   -5.0240  -71.4560 C.2   122  ASP122      0.2293
     96  O         -7.5860   -5.1270  -71.1370 O.2   122  ASP122     -0.2864
     97  CB        -9.6870   -3.3100  -73.0490 C.3   122  ASP122      0.1436
     98  CG       -10.3060   -1.9380  -73.2220 C.2   122  ASP122      0.3671
     99  OD1      -11.1020   -1.5300  -72.3500 O.co2 122  ASP122     -0.2456
    100  OD2       -9.9900   -1.2630  -74.2250 O.co2 122  ASP122     -0.2456
    101  N         -3.8390   -4.8890  -75.4110 N.3   127  ASP127     -0.1239
    102  CA        -3.7690   -4.0520  -74.2310 C.3   127  ASP127      0.1674
    103  C         -2.7660   -4.5960  -73.2360 C.2   127  ASP127      0.2266
    104  O         -2.5750   -4.0230  -72.1650 O.2   127  ASP127     -0.2867
    105  CB        -5.1490   -3.9330  -73.5880 C.3   127  ASP127      0.1410
    106  CG        -6.1410   -3.1970  -74.4710 C.2   127  ASP127      0.3668
    107  OD1       -5.8830   -2.0200  -74.8080 O.co2 127  ASP127     -0.2456
    108  OD2       -7.1720   -3.8000  -74.8350 O.co2 127  ASP127     -0.2456
    109  N          0.5310   -1.0840  -65.9240 N.3   134  TYR134     -0.1241
    110  CA        -0.3040   -0.7460  -64.7790 C.3   134  TYR134      0.1605
    111  C         -0.1410   -1.7420  -63.6340 C.2   134  TYR134      0.2264
    112  O         -0.2520   -1.3730  -62.4720 O.2   134  TYR134     -0.2867
    113  CB        -1.7750   -0.6790  -65.1900 C.3   134  TYR134      0.0534
    114  CG        -2.0940    0.3820  -66.2210 C.ar  134  TYR134     -0.0201
    115  CD1       -1.3830    1.5730  -66.2670 C.ar  134  TYR134     -0.0009
    116  CD2       -3.1060    0.1840  -67.1550 C.ar  134  TYR134     -0.0009
    117  CE1       -1.6740    2.5410  -67.2100 C.ar  134  TYR134      0.0417
    118  CE2       -3.4020    1.1440  -68.1040 C.ar  134  TYR134      0.0417
    119  CZ        -2.6860    2.3190  -68.1250 C.ar  134  TYR134      0.1957
    120  OH        -2.9810    3.2750  -69.0660 O.3   134  TYR134     -0.2866
    121  N        -17.8830   -2.9630  -66.5710 N.3   145  HIS145     -0.1241
    122  CA       -18.1560   -1.6170  -66.9860 C.3   145  HIS145      0.1621
    123  C        -19.3800   -1.5600  -67.8940 C.2   145  HIS145      0.2264
    124  O        -19.4680   -2.3180  -68.8250 O.2   145  HIS145     -0.2867
    125  CB       -16.9480   -1.0940  -67.6860 C.3   145  HIS145      0.0745
    126  CG       -17.0730    0.3060  -68.1630 C.ar  145  HIS145      0.0817
    127  ND1      -17.6070    0.6250  -69.3850 N.ar  145  HIS145     -0.2268
    128  CD2      -16.6790    1.4710  -67.6110 C.ar  145  HIS145      0.1154
    129  CE1      -17.5520    1.9290  -69.5600 C.ar  145  HIS145      0.1986
    130  NE2      -17.0080    2.4640  -68.4910 N.ar  145  HIS145     -0.2212
    131  N        -22.0290    0.7640  -70.3260 N.3   147  ASP147     -0.1239
    132  CA       -22.3750    1.9700  -71.0760 C.3   147  ASP147      0.1674
    133  C        -23.8710    2.1310  -71.2280 C.2   147  ASP147      0.2266
    134  O        -24.5100    1.3320  -71.9000 O.2   147  ASP147     -0.2867
    135  CB       -21.7740    1.9430  -72.4700 C.3   147  ASP147      0.1410
    136  CG       -20.4090    2.4800  -72.4990 C.2   147  ASP147      0.3668
    137  OD1      -20.0770    3.2640  -71.5790 O.co2 147  ASP147     -0.2456
    138  OD2      -19.6710    2.1150  -73.4410 O.co2 147  ASP147     -0.2456
@<TRIPOS>BOND
     1    14    15    2
     2    14    13    1
     3    12    13    1
     4    13    16    1
     5     3     4    2
     6     3     2    1
     7    16    17    1
     8     1     2    1
     9     2     5    1
    10    19    17   ar
    11    19    21   ar
    12    17    18   ar
    13     5     6    1
    14    21    22   ar
    15    18    20   ar
    16     6     8   ar
    17     6     7   ar
    18    22    20   ar
    19    22    23    1
    20     8    10   ar
    21     7     9   ar
    22    10    11   ar
    23     9    11   ar
    24   101   102    1
    25   108   106   ar
    26   107   106   ar
    27    63    61   ar
    28   106   105    1
    29   102   105    1
    30   102   103    1
    31   100    98   ar
    32    61    62   ar
    33    61    60    1
    34    67    66    2
    35   138   136   ar
    36    60    57    1
    37    66    65    1
    38   103   104    2
    39    98    97    1
    40    98    99   ar
    41    97    94    1
    42    55    54    1
    43   136   135    1
    44   136   137   ar
    45    53    54   ar
    46    53    51   ar
    47   135   132    1
    48    64    65    1
    49    64    58   am
    50    65    68    1
    51    57    58    1
    52    57    56    1
    53   134   133    2
    54    54    52   ar
    55    51    49   ar
    56    58    59    2
    57    94    95    1
    58    94    93    1
    59    95    96    2
    60   133   132    1
    61   132   131    1
    62    93    90   am
    63    56    46   am
    64    68    69    1
    65    70    69    1
    66    47    46    2
    67    69    71    1
    68    52    50   ar
    69    49    50   ar
    70    49    48    1
    71    46    45    1
    72    90    89    1
    73    90    91    2
    74    48    45    1
    75   129   127   ar
    76   129   130   ar
    77   127   126   ar
    78    45    44    1
    79    89    92    1
    80    89    88    1
    81   120   119    1
    82   124   123    2
    83    82    81    2
    84   130   128   ar
    85   126   125    1
    86   126   128   ar
    87    44    38   am
    88   119   118   ar
    89   119   117   ar
    90   118   116   ar
    91    88    81   am
    92    86    85    2
    93    81    80    1
    94   123   122    1
    95   125   122    1
    96    42    40    1
    97    35    34    1
    98    83    80    1
    99    83    84    1
   100   117   115   ar
   101    38    39    2
   102    38    37    1
   103   116   114   ar
   104   122   121    1
   105    78    76    1
   106    85    84    1
   107    85    87   am
   108    80    79    1
   109    34    33   ar
   110    34    32   ar
   111   115   114   ar
   112    40    37    1
   113    40    41    1
   114    33    31   ar
   115   114   113    1
   116    37    36    1
   117    79    74   am
   118   109   110    1
   119    32    30   ar
   120    76    77    1
   121    76    73    1
   122    31    29   ar
   123    41    43    1
   124   113   110    1
   125    27    26    2
   126    74    73    1
   127    74    75    2
   128    36    26   am
   129   110   111    1
   130    73    72    1
   131    30    29   ar
   132    26    25    1
   133    29    28    1
   134   111   112    2
   135    28    25    1
   136    25    24    1
