@<TRIPOS>MOLECULE
tmp/5hmnB00.pdb
 207 204 0 0 0
SMALL
GASTEIGER

@<TRIPOS>ATOM
      1  N        -25.9210    1.2560  -47.2040 N.3    28  ALA28      -0.1231
      2  CA       -26.1380    0.4330  -48.3910 C.3    28  ALA28       0.1694
      3  C        -24.8730   -0.3090  -48.8140 C.2    28  ALA28       0.2592
      4  O        -24.9390   -1.4250  -49.3230 O.2    28  ALA28      -0.2718
      5  CB       -26.6530    1.2940  -49.5410 C.3    28  ALA28       0.0304
      6  N        -23.7180    0.3170  -48.6070 N.am   29  PHE29      -0.1976
      7  CA       -22.4530   -0.2700  -49.0230 C.3    29  PHE29       0.1639
      8  C        -21.8010   -1.0180  -47.8670 C.2    29  PHE29       0.2290
      9  O        -20.7120   -1.5690  -48.0150 O.2    29  PHE29      -0.2864
     10  CB       -21.5010    0.8090  -49.5490 C.3    29  PHE29       0.0560
     11  CG       -22.0180    1.5430  -50.7510 C.ar   29  PHE29      -0.0200
     12  CD1      -22.8840    0.9240  -51.6410 C.ar   29  PHE29      -0.0042
     13  CD2      -21.6460    2.8550  -50.9870 C.ar   29  PHE29      -0.0042
     14  CE1      -23.3640    1.6010  -52.7490 C.ar   29  PHE29      -0.0003
     15  CE2      -22.1230    3.5420  -52.0950 C.ar   29  PHE29      -0.0003
     16  CZ       -22.9800    2.9130  -52.9780 C.ar   29  PHE29      -0.0000
     17  N        -20.3400    7.5010  -59.9510 N.3    87  TYR87      -0.1227
     18  CA       -19.3410    7.0080  -59.0170 C.3    87  TYR87       0.1736
     19  C        -19.9770    6.0620  -58.0080 C.2    87  TYR87       0.2595
     20  O        -19.4720    4.9650  -57.7680 O.2    87  TYR87      -0.2718
     21  CB       -18.6490    8.1650  -58.2900 C.3    87  TYR87       0.0548
     22  CG       -17.3700    7.7320  -57.6180 C.ar   87  TYR87      -0.0200
     23  CD1      -17.3850    7.1740  -56.3460 C.ar   87  TYR87      -0.0009
     24  CD2      -16.1470    7.8660  -58.2640 C.ar   87  TYR87      -0.0009
     25  CE1      -16.2150    6.7580  -55.7320 C.ar   87  TYR87       0.0417
     26  CE2      -14.9700    7.4570  -57.6570 C.ar   87  TYR87       0.0417
     27  CZ       -15.0130    6.9030  -56.3910 C.ar   87  TYR87       0.1957
     28  OH       -13.8490    6.4960  -55.7830 O.3    87  TYR87      -0.2866
     29  N        -21.0860    6.5010  -57.4210 N.am   88  ASP88      -0.1960
     30  CA       -21.8250    5.7070  -56.4380 C.3    88  ASP88       0.1840
     31  C        -23.3300    5.7670  -56.6770 C.2    88  ASP88       0.2622
     32  O        -23.8870    6.8420  -56.9050 O.2    88  ASP88      -0.2715
     33  CB       -21.5170    6.1930  -55.0160 C.3    88  ASP88       0.1450
     34  CG       -20.1980    5.6550  -54.4920 C.2    88  ASP88       0.3671
     35  OD1      -19.8050    4.5380  -54.8950 O.co2  88  ASP88      -0.2456
     36  OD2      -19.5590    6.3440  -53.6710 O.co2  88  ASP88      -0.2456
     37  N        -23.9770    4.6080  -56.6240 N.am   89  LEU89      -0.1963
     38  CA       -25.4370    4.5250  -56.6870 C.3    89  LEU89       0.1728
     39  C        -25.8930    3.5950  -55.5710 C.2    89  LEU89       0.2616
     40  O        -25.5100    2.4320  -55.5370 O.2    89  LEU89      -0.2715
     41  CB       -25.9140    4.0190  -58.0610 C.3    89  LEU89       0.0311
     42  CG       -27.3410    4.3200  -58.5390 C.3    89  LEU89       0.0022
     43  CD1      -27.5150    3.9020  -59.9940 C.3    89  LEU89       0.0001
     44  CD2      -28.4030    3.6430  -57.6800 C.3    89  LEU89       0.0001
     45  N        -26.6980    4.1110  -54.6470 N.am   90  ALA90      -0.1963
     46  CA       -27.1620    3.2970  -53.5300 C.3    90  ALA90       0.1728
     47  C        -28.6760    3.3460  -53.3520 C.2    90  ALA90       0.2616
     48  O        -29.3120    4.3810  -53.5480 O.2    90  ALA90      -0.2715
     49  CB       -26.4780    3.7290  -52.2530 C.3    90  ALA90       0.0334
     50  N        -29.2460    2.2030  -52.9860 N.am   91  VAL91      -0.1977
     51  CA       -30.6530    2.1180  -52.6220 C.3    91  VAL91       0.1596
     52  C        -30.7450    1.4440  -51.2590 C.2    91  VAL91       0.2287
     53  O        -30.0570    0.4510  -51.0090 O.2    91  VAL91      -0.2864
     54  CB       -31.4720    1.3380  -53.6730 C.3    91  VAL91       0.0276
     55  CG1      -32.9150    1.1460  -53.2190 C.3    91  VAL91       0.0022
     56  CG2      -31.4290    2.0570  -55.0110 C.3    91  VAL91       0.0022
     57  N        -35.6110   -1.2530  -49.4520 N.3    95  HIS95      -0.1226
     58  CA       -36.3130   -0.7270  -50.6180 C.3    95  HIS95       0.1752
     59  C        -35.7040   -1.2020  -51.9410 C.2    95  HIS95       0.2596
     60  O        -35.7490   -0.4910  -52.9450 O.2    95  HIS95      -0.2718
     61  CB       -36.3300    0.8020  -50.5670 C.3    95  HIS95       0.0759
     62  CG       -36.9010    1.3600  -49.2990 C.ar   95  HIS95       0.0818
     63  ND1      -36.1140    1.8630  -48.2860 N.ar   95  HIS95      -0.2268
     64  CD2      -38.1820    1.4900  -48.8780 C.ar   95  HIS95       0.1154
     65  CE1      -36.8840    2.2810  -47.2970 C.ar   95  HIS95       0.1986
     66  NE2      -38.1440    2.0660  -47.6310 N.ar   95  HIS95      -0.2212
     67  N        -35.1450   -2.4060  -51.9340 N.am   96  ARG96      -0.1966
     68  CA       -34.5560   -2.9950  -53.1340 C.3    96  ARG96       0.1729
     69  C        -35.6240   -3.5490  -54.0750 C.2    96  ARG96       0.2616
     70  O        -36.7730   -3.7450  -53.6710 O.2    96  ARG96      -0.2715
     71  CB       -33.5910   -4.1220  -52.7590 C.3    96  ARG96       0.0348
     72  CG       -32.4830   -3.7230  -51.8150 C.3    96  ARG96       0.0492
     73  CD       -31.5110   -2.7900  -52.4890 C.3    96  ARG96       0.2205
     74  NE       -30.3840   -2.4620  -51.6230 N.pl3  96  ARG96      -0.0865
     75  CZ       -29.2910   -3.2080  -51.5040 C.cat  96  ARG96       0.5346
     76  NH1      -29.1750   -4.3380  -52.1930 N.pl3  96  ARG96       0.1354
     77  NH2      -28.3150   -2.8270  -50.6910 N.pl3  96  ARG96       0.1354
     78  N        -35.2190   -3.8120  -55.3150 N.am   97  ARG97      -0.1963
     79  CA       -36.0480   -4.4880  -56.3160 C.3    97  ARG97       0.1729
     80  C        -37.3960   -3.8290  -56.4910 C.2    97  ARG97       0.2616
     81  O        -38.4360   -4.4560  -56.2720 O.2    97  ARG97      -0.2715
     82  CB       -36.2540   -5.9510  -55.9400 C.3    97  ARG97       0.0348
     83  CG       -34.9800   -6.7440  -55.8450 C.3    97  ARG97       0.0492
     84  CD       -35.2890   -8.2250  -55.9460 C.3    97  ARG97       0.2205
     85  NE       -35.7090   -8.5900  -57.2960 N.pl3  97  ARG97      -0.0865
     86  CZ       -36.0830   -9.8140  -57.6550 C.cat  97  ARG97       0.5346
     87  NH1      -36.0980  -10.7870  -56.7560 N.pl3  97  ARG97       0.1354
     88  NH2      -36.4440  -10.0640  -58.9090 N.pl3  97  ARG97       0.1354
     89  N        -37.3910   -2.5380  -56.6850 N.am   98  ARG98      -0.1963
     90  CA       -38.6050   -1.8010  -56.7830 C.3    98  ARG98       0.1729
     91  C        -38.5690   -0.5180  -57.5950 C.2    98  ARG98       0.2617
     92  O        -39.4610    0.2690  -57.5160 O.2    98  ARG98      -0.2715
     93  CB       -39.3670   -1.7010  -55.4600 C.3    98  ARG98       0.0348
     94  CG       -38.8330   -0.7980  -54.3800 C.3    98  ARG98       0.0492
     95  CD       -39.5420    0.5110  -54.4910 C.3    98  ARG98       0.2205
     96  NE       -39.9190    1.0270  -53.2090 N.pl3  98  ARG98      -0.0865
     97  CZ       -40.5240    2.1630  -53.0440 C.cat  98  ARG98       0.5346
     98  NH1      -40.8050    2.5580  -51.8370 N.pl3  98  ARG98       0.1354
     99  NH2      -40.8410    2.8900  -54.0930 N.pl3  98  ARG98       0.1354
    100  N        -37.5290   -0.3410  -58.3860 N.am   99  GLY99      -0.1940
    101  CA       -37.5170    0.7070  -59.3800 C.3    99  GLY99       0.2014
    102  C        -36.8260    1.9900  -58.9660 C.2    99  GLY99       0.2639
    103  O        -36.7850    2.9410  -59.7450 O.2    99  GLY99      -0.2714
    104  N        -36.2870    2.0230  -57.7500 N.am  100  ILE100     -0.1963
    105  CA       -35.6250    3.2260  -57.2420 C.3   100  ILE100      0.1727
    106  C        -34.3430    3.5440  -58.0160 C.2   100  ILE100      0.2616
    107  O        -34.1010    4.6900  -58.4000 O.2   100  ILE100     -0.2715
    108  CB       -35.3000    3.0920  -55.7460 C.3   100  ILE100      0.0290
    109  CG1      -36.5950    3.1030  -54.9320 C.3   100  ILE100      0.0022
    110  CG2      -34.3620    4.2240  -55.2950 C.3   100  ILE100      0.0023
    111  CD1      -36.3860    2.9120  -53.4560 C.3   100  ILE100      0.0001
    112  N        -33.5180    2.5260  -58.2480 N.am  101  ALA101     -0.1963
    113  CA       -32.2850    2.7240  -59.0030 C.3   101  ALA101      0.1728
    114  C        -32.5970    3.1610  -60.4330 C.2   101  ALA101      0.2616
    115  O        -31.8820    3.9850  -61.0140 O.2   101  ALA101     -0.2715
    116  CB       -31.4520    1.4560  -59.0030 C.3   101  ALA101      0.0334
    117  N        -33.6710    2.6110  -60.9930 N.am  102  THR102     -0.1951
    118  CA       -34.1090    2.9860  -62.3370 C.3   102  THR102      0.1897
    119  C        -34.5480    4.4470  -62.3920 C.2   102  THR102      0.2313
    120  O        -34.2350    5.1650  -63.3490 O.2   102  THR102     -0.2863
    121  CB       -35.2620    2.0930  -62.8160 C.3   102  THR102      0.1794
    122  OG1      -34.7980    0.7450  -62.9080 O.3   102  THR102     -0.2208
    123  CG2      -35.7530    2.5300  -64.1880 C.3   102  THR102      0.0378
    124  N        -21.0680    3.3580  -65.6760 N.3   122  VAL122     -0.1231
    125  CA       -20.9900    2.9840  -64.2740 C.3   122  VAL122      0.1692
    126  C        -20.2670    1.6520  -64.1920 C.2   122  VAL122      0.2592
    127  O        -20.2930    0.8610  -65.1390 O.2   122  VAL122     -0.2718
    128  CB       -22.3900    2.8930  -63.6150 C.3   122  VAL122      0.0266
    129  CG1      -23.2140    1.7600  -64.2200 C.3   122  VAL122      0.0020
    130  CG2      -22.2750    2.7290  -62.0990 C.3   122  VAL122      0.0020
    131  N        -19.5910    1.4170  -63.0780 N.am  123  GLN123     -0.1966
    132  CA       -18.8450    0.1800  -62.9030 C.3   123  GLN123      0.1733
    133  C        -19.4170   -0.6560  -61.7720 C.2   123  GLN123      0.2616
    134  O        -19.9660   -0.1360  -60.8050 O.2   123  GLN123     -0.2715
    135  CB       -17.3710    0.4760  -62.6390 C.3   123  GLN123      0.0408
    136  CG       -16.6850    1.2020  -63.7810 C.3   123  GLN123      0.0908
    137  CD       -15.3960    1.8650  -63.3520 C.2   123  GLN123      0.2608
    138  OE1      -14.6590    1.3350  -62.5190 O.2   123  GLN123     -0.2717
    139  NE2      -15.1150    3.0340  -63.9180 N.am  123  GLN123     -0.0878
    140  N        -19.3000   -1.9650  -61.9090 N.am  124  ALA124     -0.1977
    141  CA       -19.6460   -2.8840  -60.8440 C.3   124  ALA124      0.1597
    142  C        -18.4900   -3.8390  -60.7710 C.2   124  ALA124      0.2287
    143  O        -18.0220   -4.2880  -61.8070 O.2   124  ALA124     -0.2864
    144  CB       -20.9450   -3.5990  -61.1260 C.3   124  ALA124      0.0319
    145  N        -21.3770   -9.5480  -53.6510 N.3   129  GLU129     -0.1231
    146  CA       -22.1830   -8.4380  -53.1490 C.3   129  GLU129      0.1699
    147  C        -22.9110   -7.6180  -54.2180 C.2   129  GLU129      0.2592
    148  O        -23.9030   -6.9480  -53.9340 O.2   129  GLU129     -0.2718
    149  CB       -21.2830   -7.4850  -52.3540 C.3   129  GLU129      0.0402
    150  CG       -20.2560   -8.1690  -51.4650 C.3   129  GLU129      0.1161
    151  CD       -19.4100   -7.1760  -50.6910 C.2   129  GLU129      0.3649
    152  OE1      -19.6850   -5.9600  -50.7840 O.co2 129  GLU129     -0.2457
    153  OE2      -18.4710   -7.6100  -49.9880 O.co2 129  GLU129     -0.2457
    154  N        -22.3970   -7.6720  -55.4470 N.am  130  ASP130     -0.1974
    155  CA       -22.7030   -6.6760  -56.4820 C.3   130  ASP130      0.1709
    156  C        -23.5290   -7.2330  -57.6410 C.2   130  ASP130      0.2293
    157  O        -23.8650   -6.4890  -58.5610 O.2   130  ASP130     -0.2864
    158  CB       -21.4090   -6.1610  -57.0380 C.3   130  ASP130      0.1436
    159  CG       -20.7560   -5.3380  -56.0650 C.2   130  ASP130      0.3671
    160  OD1      -21.4420   -4.9820  -55.1460 O.co2 130  ASP130     -0.2456
    161  OD2      -19.5560   -5.2240  -56.0060 O.co2 130  ASP130     -0.2456
    162  N        -26.6540   -8.0550  -57.6520 N.3   132  PRO132     -0.2102
    163  CA       -27.8920   -7.2870  -57.8320 C.3   132  PRO132      0.1504
    164  C        -27.6970   -5.9940  -58.6350 C.2   132  PRO132      0.2575
    165  O        -28.6270   -5.5350  -59.2970 O.2   132  PRO132     -0.2718
    166  CB       -28.3280   -6.9770  -56.3900 C.3   132  PRO132      0.0282
    167  CG       -27.1350   -7.2860  -55.5340 C.3   132  PRO132      0.0208
    168  CD       -26.4460   -8.4000  -56.2350 C.3   132  PRO132      0.0893
    169  N        -26.5010   -5.4170  -58.5870 N.am  133  ALA133     -0.1980
    170  CA       -26.2140   -4.2240  -59.3780 C.3   133  ALA133      0.1597
    171  C        -25.9840   -4.5900  -60.8370 C.2   133  ALA133      0.2287
    172  O        -26.4270   -3.8840  -61.7450 O.2   133  ALA133     -0.2864
    173  CB       -25.0020   -3.4910  -58.8240 C.3   133  ALA133      0.0319
    174  N        -27.2320   -7.0550  -62.5210 N.3   135  ALA135     -0.1231
    175  CA       -28.4850   -7.4020  -63.1870 C.3   135  ALA135      0.1694
    176  C        -29.2240   -6.1500  -63.6450 C.2   135  ALA135      0.2592
    177  O        -29.8200   -6.1220  -64.7210 O.2   135  ALA135     -0.2718
    178  CB       -29.3630   -8.2290  -62.2670 C.3   135  ALA135      0.0304
    179  N        -29.1750   -5.1110  -62.8180 N.am  136  LEU136     -0.1966
    180  CA       -29.7900   -3.8320  -63.1480 C.3   136  LEU136      0.1728
    181  C        -29.1270   -3.1960  -64.3620 C.2   136  LEU136      0.2616
    182  O        -29.7910   -2.8700  -65.3500 O.2   136  LEU136     -0.2715
    183  CB       -29.7050   -2.8800  -61.9550 C.3   136  LEU136      0.0311
    184  CG       -29.8330   -1.3880  -62.2670 C.3   136  LEU136      0.0022
    185  CD1      -31.2600   -1.0350  -62.6580 C.3   136  LEU136      0.0001
    186  CD2      -29.3610   -0.5490  -61.0880 C.3   136  LEU136      0.0001
    187  N        -27.8110   -3.0320  -64.2780 N.am  137  TYR137     -0.1974
    188  CA       -27.0490   -2.3580  -65.3200 C.3   137  TYR137      0.1639
    189  C        -27.0900   -3.1040  -66.6440 C.2   137  TYR137      0.2290
    190  O        -27.0540   -2.4870  -67.7070 O.2   137  TYR137     -0.2864
    191  CB       -25.5980   -2.1760  -64.8760 C.3   137  TYR137      0.0560
    192  CG       -25.4360   -1.3070  -63.6480 C.ar  137  TYR137     -0.0198
    193  CD1      -26.3080   -0.2570  -63.3960 C.ar  137  TYR137     -0.0009
    194  CD2      -24.4160   -1.5470  -62.7320 C.ar  137  TYR137     -0.0009
    195  CE1      -26.1630    0.5400  -62.2740 C.ar  137  TYR137      0.0417
    196  CE2      -24.2610   -0.7500  -61.6060 C.ar  137  TYR137      0.0417
    197  CZ       -25.1390    0.2860  -61.3820 C.ar  137  TYR137      0.1957
    198  OH       -24.9920    1.0750  -60.2630 O.3   137  TYR137     -0.2866
    199  N        -29.5120   -4.6840  -67.9800 N.3   139  LYS139     -0.1245
    200  CA       -30.7520   -4.4150  -68.7010 C.3   139  LYS139      0.1561
    201  C        -30.8130   -2.9880  -69.2480 C.2   139  LYS139      0.2260
    202  O        -31.5160   -2.7200  -70.2230 O.2   139  LYS139     -0.2867
    203  CB       -31.9560   -4.6780  -67.7990 C.3   139  LYS139      0.0271
    204  CG       -32.3130   -6.1510  -67.6690 C.3   139  LYS139      0.0035
    205  CD       -33.5210   -6.3380  -66.7780 C.3   139  LYS139      0.0206
    206  CE       -34.0660   -7.7570  -66.8630 C.3   139  LYS139      0.1093
    207  NZ       -33.0250   -8.7870  -66.5990 N.3   139  LYS139     -0.1314
@<TRIPOS>BOND
     1   202   201    2
     2   201   200    1
     3   200   199    1
     4   200   203    1
     5   203   204    1
     6   190   189    2
     7   204   205    1
     8   206   205    1
     9   206   207    1
    10   189   188    1
    11   124   125    1
    12   182   181    2
    13   188   191    1
    14   188   187    1
    15   127   126    2
    16   191   192    1
    17   177   176    2
    18   181   187   am
    19   181   180    1
    20   125   126    1
    21   125   128    1
    22   129   128    1
    23   126   131   am
    24   123   121    1
    25   139   137   am
    26   136   137    1
    27   136   135    1
    28   192   193   ar
    29   192   194   ar
    30   176   175    1
    31   176   179   am
    32   128   130    1
    33   193   195   ar
    34   137   138    2
    35   120   119    2
    36   175   174    1
    37   175   178    1
    38   180   179    1
    39   180   183    1
    40   131   132    1
    41   122   121    1
    42   132   135    1
    43   132   133    1
    44   121   118    1
    45   194   196   ar
    46   185   184    1
    47   119   118    1
    48   118   117    1
    49   195   197   ar
    50   184   183    1
    51   184   186    1
    52   140   133   am
    53   140   141    1
    54   143   142    2
    55   133   134    2
    56   172   171    2
    57   196   197   ar
    58   197   198    1
    59   144   141    1
    60   115   114    2
    61   117   114   am
    62   141   142    1
    63   171   170    1
    64   114   113    1
    65    43    42    1
    66    17    18    1
    67   103   102    2
    68   101   102    1
    69   101   100    1
    70   170   173    1
    71   170   169    1
    72   165   164    2
    73    18    21    1
    74    18    19    1
    75   116   113    1
    76   113   112    1
    77   102   104   am
    78    88    86    1
    79   164   169   am
    80   164   163    1
    81   157   156    2
    82    42    41    1
    83    42    44    1
    84   107   106    2
    85   100    91   am
    86    21    22    1
    87    24    26   ar
    88    24    22   ar
    89   112   106   am
    90    41    38    1
    91   106   105    1
    92    19    20    2
    93    19    29   am
    94   163   162    1
    95   163   166    1
    96   104   105    1
    97    26    27   ar
    98    86    85    2
    99    86    87    1
   100   162   168    1
   101   156   155    1
   102    22    23   ar
   103    91    92    2
   104    91    90    1
   105    29    30    1
   106    85    84    1
   107   105   108    1
   108   158   155    1
   109   158   159    1
   110    32    31    2
   111    90    89    1
   112    90    93    1
   113    38    37    1
   114    38    39    1
   115    89    80   am
   116    31    37   am
   117    31    30    1
   118    80    79    1
   119    80    81    2
   120   155   154    1
   121    30    33    1
   122    27    28    1
   123    27    25   ar
   124   166   167    1
   125    23    25   ar
   126    79    82    1
   127    79    78    1
   128   168   167    1
   129   159   161   ar
   130   159   160   ar
   131    84    83    1
   132    82    83    1
   133   108   110    1
   134   108   109    1
   135    39    40    2
   136    39    45   am
   137    93    94    1
   138   154   147   am
   139    78    69   am
   140    33    34    1
   141    56    54    1
   142   109   111    1
   143    35    34   ar
   144    45    46    1
   145    34    36   ar
   146    95    94    1
   147    95    96    1
   148   147   148    2
   149   147   146    1
   150    99    97    1
   151    69    70    2
   152    69    68    1
   153    54    55    1
   154    54    51    1
   155   145   146    1
   156    48    47    2
   157    46    47    1
   158    46    49    1
   159    47    50   am
   160    96    97    2
   161   146   149    1
   162    68    71    1
   163    68    67    1
   164    97    98    1
   165    50    51    1
   166    16    14   ar
   167    16    15   ar
   168    60    59    2
   169    71    72    1
   170    14    12   ar
   171    51    52    1
   172    73    72    1
   173    73    74    1
   174   149   150    1
   175    76    75    1
   176    15    13   ar
   177    59    67   am
   178    59    58    1
   179    12    11   ar
   180    74    75    2
   181    75    77    1
   182   150   151    1
   183    52    53    2
   184    13    11   ar
   185   152   151   ar
   186    11    10    1
   187   151   153   ar
   188    58    61    1
   189    58    57    1
   190    61    62    1
   191    10     7    1
   192     5     2    1
   193     4     3    2
   194    62    64   ar
   195    62    63   ar
   196     7     6    1
   197     7     8    1
   198    64    66   ar
   199     3     6   am
   200     3     2    1
   201     2     1    1
   202    63    65   ar
   203     9     8    2
   204    66    65   ar
