@<TRIPOS>MOLECULE
tmp/5hmpB00.pdb
 193 190 0 0 0
SMALL
GASTEIGER

@<TRIPOS>ATOM
      1  N        -45.1780  -18.9060   42.6770 N.3    93  ILE93      -0.1231
      2  CA       -44.2670  -17.8550   43.1240 C.3    93  ILE93       0.1692
      3  C        -44.9130  -16.9600   44.1740 C.2    93  ILE93       0.2592
      4  O        -44.2210  -16.3760   45.0100 O.2    93  ILE93      -0.2718
      5  CB       -43.7830  -16.9790   41.9480 C.3    93  ILE93       0.0266
      6  CG1      -44.9610  -16.3040   41.2370 C.3    93  ILE93       0.0019
      7  CG2      -42.9810  -17.8180   40.9680 C.3    93  ILE93       0.0020
      8  CD1      -44.5380  -15.2760   40.2070 C.3    93  ILE93       0.0001
      9  N        -46.2370  -16.8530   44.1250 N.am   94  TYR94      -0.1976
     10  CA       -46.9750  -16.0140   45.0630 C.3    94  TYR94       0.1639
     11  C        -47.5570  -16.8440   46.2020 C.2    94  TYR94       0.2290
     12  O        -48.0730  -17.9400   45.9830 O.2    94  TYR94      -0.2864
     13  CB       -48.0890  -15.2590   44.3380 C.3    94  TYR94       0.0560
     14  CG       -47.5890  -14.3200   43.2650 C.ar   94  TYR94      -0.0198
     15  CD1      -46.7830  -13.2340   43.5870 C.ar   94  TYR94      -0.0009
     16  CD2      -47.9270  -14.5120   41.9330 C.ar   94  TYR94      -0.0009
     17  CE1      -46.3230  -12.3710   42.6130 C.ar   94  TYR94       0.0417
     18  CE2      -47.4730  -13.6530   40.9510 C.ar   94  TYR94       0.0417
     19  CZ       -46.6700  -12.5840   41.2960 C.ar   94  TYR94       0.1957
     20  OH       -46.2130  -11.7230   40.3250 O.3    94  TYR94      -0.2866
     21  N        -38.7710  -15.1350   43.0640 N.3   105  ASN105     -0.1226
     22  CA       -38.3370  -14.8790   41.6920 C.3   105  ASN105      0.1770
     23  C        -38.2710  -16.1680   40.8720 C.2   105  ASN105      0.2439
     24  O        -37.4150  -17.0140   41.1190 O.2   105  ASN105     -0.2733
     25  CB       -36.9700  -14.1960   41.6850 C.3   105  ASN105      0.1168
     26  CG       -36.6420  -13.5580   40.3460 C.2   105  ASN105      0.2627
     27  OD1      -37.0920  -14.0170   39.2960 O.2   105  ASN105     -0.2716
     28  ND2      -35.8540  -12.4900   40.3790 N.am  105  ASN105     -0.0877
     29  N        -39.1690  -16.3220   39.8870 N.am  106  PRO106     -0.2718
     30  CA       -39.1540  -17.5760   39.1260 C.3   106  PRO106      0.1535
     31  C        -37.9820  -17.7010   38.1570 C.2   106  PRO106      0.2599
     32  O        -37.6010  -18.8220   37.8260 O.2   106  PRO106     -0.2715
     33  CB       -40.4740  -17.5300   38.3530 C.3   106  PRO106      0.0310
     34  CG       -40.7600  -16.0820   38.1920 C.3   106  PRO106      0.0237
     35  CD       -40.2280  -15.4070   39.4200 C.3   106  PRO106      0.0939
     36  N        -37.4270  -16.5710   37.7210 N.am  107  TYR107     -0.1960
     37  CA       -36.4120  -16.5540   36.6680 C.3   107  TYR107      0.1771
     38  C        -36.9090  -17.3330   35.4520 C.2   107  TYR107      0.2619
     39  O        -36.1670  -18.0910   34.8290 O.2   107  TYR107     -0.2715
     40  CB       -35.0820  -17.1260   37.1700 C.3   107  TYR107      0.0574
     41  CG       -34.2910  -16.1750   38.0400 C.ar  107  TYR107     -0.0198
     42  CD1      -33.7020  -15.0420   37.4990 C.ar  107  TYR107     -0.0009
     43  CD2      -34.1220  -16.4160   39.3960 C.ar  107  TYR107     -0.0009
     44  CE1      -32.9750  -14.1700   38.2830 C.ar  107  TYR107      0.0417
     45  CE2      -33.3950  -15.5490   40.1910 C.ar  107  TYR107      0.0417
     46  CZ       -32.8240  -14.4270   39.6280 C.ar  107  TYR107      0.1957
     47  OH       -32.0970  -13.5620   40.4110 O.3   107  TYR107     -0.2866
     48  N        -38.1810  -17.1360   35.1270 N.am  108  LYS108     -0.1963
     49  CA       -38.8040  -17.7980   33.9910 C.3   108  LYS108      0.1728
     50  C        -40.1150  -17.0980   33.6760 C.2   108  LYS108      0.2616
     51  O        -40.8610  -16.7350   34.5830 O.2   108  LYS108     -0.2715
     52  CB       -39.0420  -19.2810   34.2880 C.3   108  LYS108      0.0311
     53  CG       -39.5270  -20.0910   33.0950 C.3   108  LYS108      0.0038
     54  CD       -39.7660  -21.5450   33.4750 C.3   108  LYS108      0.0206
     55  CE       -40.1440  -22.3850   32.2660 C.3   108  LYS108      0.1093
     56  NZ       -41.3970  -21.9090   31.6200 N.3   108  LYS108     -0.1314
     57  N        -40.3910  -16.8960   32.3930 N.am  109  GLN109     -0.1963
     58  CA       -41.6270  -16.2430   31.9860 C.3   109  GLN109      0.1733
     59  C        -42.8190  -17.1460   32.2610 C.2   109  GLN109      0.2616
     60  O        -42.9380  -18.2290   31.6880 O.2   109  GLN109     -0.2715
     61  CB       -41.5800  -15.8640   30.5070 C.3   109  GLN109      0.0408
     62  CG       -40.5910  -14.7530   30.1850 C.3   109  GLN109      0.0908
     63  CD       -40.8970  -13.4620   30.9220 C.2   109  GLN109      0.2608
     64  OE1      -42.0530  -13.1590   31.2190 O.2   109  GLN109     -0.2717
     65  NE2      -39.8550  -12.6980   31.2300 N.am  109  GLN109     -0.0878
     66  N        -43.6940  -16.6870   33.1500 N.am  110  LEU110     -0.1977
     67  CA       -44.8850  -17.4350   33.5260 C.3   110  LEU110      0.1596
     68  C        -46.1200  -16.8500   32.8460 C.2   110  LEU110      0.2287
     69  O        -46.3810  -15.6540   32.9670 O.2   110  LEU110     -0.2864
     70  CB       -45.0650  -17.4150   35.0440 C.3   110  LEU110      0.0297
     71  CG       -43.8400  -17.8120   35.8720 C.3   110  LEU110      0.0022
     72  CD1      -44.1500  -17.7110   37.3560 C.3   110  LEU110      0.0001
     73  CD2      -43.3690  -19.2130   35.5160 C.3   110  LEU110      0.0001
     74  N        -50.0690  -13.4570   33.4520 N.3   113  TYR113     -0.1241
     75  CA       -50.2100  -12.0030   33.4470 C.3   113  TYR113      0.1605
     76  C        -51.0240  -11.5170   32.2500 C.2   113  TYR113      0.2264
     77  O        -50.9690  -10.3420   31.8890 O.2   113  TYR113     -0.2867
     78  CB       -48.8310  -11.3400   33.4470 C.3   113  TYR113      0.0534
     79  CG       -47.9660  -11.7440   34.6190 C.ar  113  TYR113     -0.0201
     80  CD1      -48.0970  -11.1200   35.8530 C.ar  113  TYR113     -0.0009
     81  CD2      -47.0180  -12.7520   34.4930 C.ar  113  TYR113     -0.0009
     82  CE1      -47.3120  -11.4870   36.9270 C.ar  113  TYR113      0.0417
     83  CE2      -46.2260  -13.1260   35.5630 C.ar  113  TYR113      0.0417
     84  CZ       -46.3780  -12.4900   36.7770 C.ar  113  TYR113      0.1957
     85  OH       -45.5950  -12.8570   37.8450 O.3   113  TYR113     -0.2866
     86  N        -31.2820   -7.1330   46.0870 N.3   159  SER159     -0.1202
     87  CA       -31.0800   -6.9540   44.6540 C.3   159  SER159      0.2020
     88  C        -31.4060   -8.2200   43.8650 C.2   159  SER159      0.2619
     89  O        -30.9610   -9.3140   44.2150 O.2   159  SER159     -0.2717
     90  CB       -29.6370   -6.5270   44.3770 C.3   159  SER159      0.2103
     91  OG       -29.3870   -6.4510   42.9850 O.3   159  SER159     -0.2182
     92  N        -32.1890   -8.0610   42.8030 N.am  160  GLY160     -0.1942
     93  CA       -32.5330   -9.1650   41.9240 C.3   160  GLY160      0.2014
     94  C        -33.7060  -10.0060   42.4010 C.2   160  GLY160      0.2639
     95  O        -34.0610  -10.9950   41.7610 O.2   160  GLY160     -0.2714
     96  N        -34.3140   -9.6100   43.5180 N.am  161  ALA161     -0.1963
     97  CA       -35.4190  -10.3640   44.1090 C.3   161  ALA161      0.1728
     98  C        -36.6810  -10.3190   43.2400 C.2   161  ALA161      0.2617
     99  O        -37.4800  -11.2590   43.2510 O.2   161  ALA161     -0.2715
    100  CB       -35.7280   -9.8310   45.5130 C.3   161  ALA161      0.0334
    101  N        -36.8570   -9.2240   42.5020 N.am  162  GLY162     -0.1940
    102  CA       -37.9880   -9.0750   41.5990 C.3   162  GLY162      0.2014
    103  C        -38.9070   -7.9190   41.9500 C.2   162  GLY162      0.2639
    104  O        -40.0990   -7.9560   41.6480 O.2   162  GLY162     -0.2714
    105  N        -38.3530   -6.8850   42.5730 N.am  163  LYS163     -0.1963
    106  CA       -39.1460   -5.7360   42.9970 C.3   163  LYS163      0.1728
    107  C        -39.6860   -4.9440   41.8110 C.2   163  LYS163      0.2617
    108  O        -40.8720   -4.6310   41.7540 O.2   163  LYS163     -0.2715
    109  CB       -38.3150   -4.8180   43.8940 C.3   163  LYS163      0.0311
    110  CG       -37.8490   -5.4680   45.1920 C.3   163  LYS163      0.0038
    111  CD       -37.1190   -4.4800   46.0910 C.3   163  LYS163      0.0206
    112  CE       -35.8370   -3.9740   45.4560 C.3   163  LYS163      0.1093
    113  NZ       -34.9290   -5.0910   45.0950 N.3   163  LYS163     -0.1314
    114  N        -38.8110   -4.6210   40.8660 N.am  164  THR164     -0.1937
    115  CA       -39.1970   -3.8130   39.7150 C.3   164  THR164      0.2028
    116  C        -40.2610   -4.5190   38.8790 C.2   164  THR164      0.2642
    117  O        -41.2130   -3.8900   38.4190 O.2   164  THR164     -0.2714
    118  CB       -37.9720   -3.4830   38.8440 C.3   164  THR164      0.1808
    119  OG1      -37.1160   -2.5860   39.5610 O.3   164  THR164     -0.2208
    120  CG2      -38.3790   -2.8260   37.5260 C.3   164  THR164      0.0379
    121  N        -40.1040   -5.8260   38.6960 N.am  165  VAL165     -0.1963
    122  CA       -41.0700   -6.6110   37.9360 C.3   165  VAL165      0.1727
    123  C        -42.4360   -6.5910   38.6160 C.2   165  VAL165      0.2616
    124  O        -43.4640   -6.4390   37.9560 O.2   165  VAL165     -0.2715
    125  CB       -40.5940   -8.0650   37.7690 C.3   165  VAL165      0.0290
    126  CG1      -41.6970   -8.9420   37.1730 C.3   165  VAL165      0.0023
    127  CG2      -39.3480   -8.1070   36.8920 C.3   165  VAL165      0.0023
    128  N        -42.4400   -6.7450   39.9360 N.am  166  SER166     -0.1950
    129  CA       -43.6810   -6.7280   40.7020 C.3   166  SER166      0.1924
    130  C        -44.3370   -5.3530   40.6440 C.2   166  SER166      0.2314
    131  O        -45.5590   -5.2430   40.5440 O.2   166  SER166     -0.2863
    132  CB       -43.4210   -7.1260   42.1560 C.3   166  SER166      0.2116
    133  OG       -42.9820   -8.4700   42.2470 O.3   166  SER166     -0.2180
    134  N        -46.0220   -4.9100   37.0760 N.3   169  TYR169     -0.1241
    135  CA       -47.2510   -5.6810   36.9290 C.3   169  TYR169      0.1605
    136  C        -48.3520   -5.1100   37.8210 C.2   169  TYR169      0.2264
    137  O        -49.5380   -5.2700   37.5360 O.2   169  TYR169     -0.2867
    138  CB       -47.0110   -7.1570   37.2630 C.3   169  TYR169      0.0534
    139  CG       -46.3750   -7.9640   36.1470 C.ar  169  TYR169     -0.0201
    140  CD1      -46.7740   -7.8030   34.8250 C.ar  169  TYR169     -0.0009
    141  CD2      -45.3780   -8.8900   36.4180 C.ar  169  TYR169     -0.0009
    142  CE1      -46.1950   -8.5390   33.8060 C.ar  169  TYR169      0.0417
    143  CE2      -44.7930   -9.6320   35.4070 C.ar  169  TYR169      0.0417
    144  CZ       -45.2050   -9.4520   34.1020 C.ar  169  TYR169      0.1957
    145  OH       -44.6270  -10.1870   33.0910 O.3   169  TYR169     -0.2866
    146  N        -27.8370   -8.7080   39.3300 N.3   203  ASN203     -0.1225
    147  CA       -29.0250   -8.5600   38.4980 C.3   203  ASN203      0.1785
    148  C        -28.7000   -7.8960   37.1630 C.2   203  ASN203      0.2597
    149  O        -28.0480   -6.8520   37.1230 O.2   203  ASN203     -0.2718
    150  CB       -30.0850   -7.7500   39.2530 C.3   203  ASN203      0.1169
    151  CG       -31.3610   -7.5590   38.4570 C.2   203  ASN203      0.2627
    152  OD1      -31.6080   -8.2500   37.4690 O.2   203  ASN203     -0.2716
    153  ND2      -32.1870   -6.6170   38.8940 N.am  203  ASN203     -0.0877
    154  N        -29.1650   -8.5010   36.0730 N.am  204  ASP204     -0.1960
    155  CA       -28.8590   -8.0030   34.7350 C.3   204  ASP204      0.1840
    156  C        -29.5800   -6.6890   34.4340 C.2   204  ASP204      0.2622
    157  O        -29.1560   -5.9290   33.5590 O.2   204  ASP204     -0.2715
    158  CB       -29.2240   -9.0490   33.6750 C.3   204  ASP204      0.1450
    159  CG       -28.3340  -10.2800   33.7290 C.2   204  ASP204      0.3671
    160  OD1      -27.2910  -10.2460   34.4180 O.co2 204  ASP204     -0.2456
    161  OD2      -28.6770  -11.2840   33.0700 O.co2 204  ASP204     -0.2456
    162  N        -30.6650   -6.4310   35.1590 N.am  205  ASN205     -0.1958
    163  CA       -31.4370   -5.2020   34.9950 C.3   205  ASN205      0.1819
    164  C        -31.6150   -4.4880   36.3340 C.2   205  ASN205      0.2622
    165  O        -32.7290   -4.1360   36.7290 O.2   205  ASN205     -0.2715
    166  CB       -32.7960   -5.5120   34.3710 C.3   205  ASN205      0.1195
    167  CG       -33.5110   -4.2710   33.8810 C.2   205  ASN205      0.2630
    168  OD1      -32.8820   -3.3220   33.4040 O.2   205  ASN205     -0.2716
    169  ND2      -34.8360   -4.2700   33.9950 N.am  205  ASN205     -0.0877
    170  N        -30.4970   -4.2740   37.0220 N.am  206  SER206     -0.1936
    171  CA       -30.5000   -3.6790   38.3530 C.3   206  SER206      0.2055
    172  C        -30.8660   -2.2030   38.3230 C.2   206  SER206      0.2643
    173  O        -30.2870   -1.4230   37.5700 O.2   206  SER206     -0.2714
    174  CB       -29.1290   -3.8500   39.0110 C.3   206  SER206      0.2130
    175  OG       -29.0580   -3.1440   40.2390 O.3   206  SER206     -0.2179
    176  N        -31.8340   -1.8300   39.1530 N.am  207  SER207     -0.1949
    177  CA       -32.2020   -0.4330   39.3300 C.3   207  SER207      0.1924
    178  C        -31.1090    0.2880   40.1110 C.2   207  SER207      0.2314
    179  O        -30.7740   -0.1130   41.2250 O.2   207  SER207     -0.2863
    180  CB       -33.5420   -0.3200   40.0610 C.3   207  SER207      0.2116
    181  OG       -34.5270   -1.1490   39.4670 O.3   207  SER207     -0.2180
    182  N        -40.5660    1.5670   44.3640 N.3   426  ASP426     -0.1239
    183  CA       -39.5620    0.6320   43.8680 C.3   426  ASP426      0.1674
    184  C        -38.1780    1.2630   43.9790 C.2   426  ASP426      0.2266
    185  O        -37.8290    2.1390   43.1880 O.2   426  ASP426     -0.2867
    186  CB       -39.8570    0.2380   42.4160 C.3   426  ASP426      0.1410
    187  CG       -38.8040   -0.6910   41.8350 C.2   426  ASP426      0.3668
    188  OD1      -38.3580   -1.6100   42.5540 O.co2 426  ASP426     -0.2456
    189  OD2      -38.4210   -0.5010   40.6600 O.co2 426  ASP426     -0.2456
    190  N        -32.5760   -2.6130   45.9230 N.3   429  GLY429     -0.1225
    191  CA       -32.5890   -3.5150   47.0580 C.3   429  GLY429      0.1811
    192  C        -31.2140   -3.6890   47.6700 C.2   429  GLY429      0.2280
    193  O        -30.1990   -3.3090   47.0810 O.2   429  GLY429     -0.2866
@<TRIPOS>BOND
     1    62    61    1
     2    62    63    1
     3    61    58    1
     4    63    64    2
     5    63    65   am
     6    56    55    1
     7    60    59    2
     8    77    76    2
     9    58    59    1
    10    58    57    1
    11    76    75    1
    12    59    66   am
    13    55    54    1
    14    57    50   am
    15    68    69    2
    16    68    67    1
    17   161   159   ar
    18   145   144    1
    19    53    54    1
    20    53    52    1
    21    66    67    1
    22   168   167    2
    23    78    75    1
    24    78    79    1
    25    75    74    1
    26    67    70    1
    27   157   156    2
    28   158   159    1
    29   158   155    1
    30    50    49    1
    31    50    51    2
    32   159   160   ar
    33   142   144   ar
    34   142   140   ar
    35   167   169   am
    36   167   166    1
    37    49    52    1
    38    49    48    1
    39   144   143   ar
    40   166   163    1
    41   156   155    1
    42   156   162   am
    43    81    79   ar
    44    81    83   ar
    45    79    80   ar
    46   155   154    1
    47   140   139   ar
    48    39    38    2
    49   163   162    1
    50   163   164    1
    51    70    71    1
    52    48    38   am
    53   143   141   ar
    54    38    37    1
    55    73    71    1
    56    83    84   ar
    57    80    82   ar
    58    71    72    1
    59   154   148   am
    60   139   141   ar
    61   139   138    1
    62   164   165    2
    63   164   170   am
    64    37    40    1
    65    37    36    1
    66    84    82   ar
    67    84    85    1
    68   127   125    1
    69   135   134    1
    70   135   138    1
    71   135   136    1
    72   170   171    1
    73   149   148    2
    74   148   147    1
    75    40    41    1
    76   126   125    1
    77   152   151    2
    78    42    41   ar
    79    42    44   ar
    80   120   118    1
    81   137   136    2
    82   173   172    2
    83    36    31   am
    84   125   122    1
    85    32    31    2
    86   122   123    1
    87   122   121    1
    88   124   123    2
    89    41    43   ar
    90    31    30    1
    91    34    33    1
    92    34    35    1
    93    44    46   ar
    94   172   171    1
    95   172   176   am
    96   171   174    1
    97    33    30    1
    98   117   116    2
    99   151   153   am
   100   151   150    1
   101   147   150    1
   102   147   146    1
   103   123   128   am
   104   121   116   am
   105   118   119    1
   106   118   115    1
   107   116   115    1
   108   174   175    1
   109    30    29    1
   110   176   177    1
   111    27    26    2
   112   177   180    1
   113   177   178    1
   114    43    45   ar
   115    35    29    1
   116   181   180    1
   117    46    45   ar
   118    46    47    1
   119   115   114    1
   120    29    23   am
   121   128   129    1
   122   178   179    2
   123     8     6    1
   124    20    19    1
   125    26    28   am
   126    26    25    1
   127   131   130    2
   128   130   129    1
   129   189   187   ar
   130   129   132    1
   131   114   107   am
   132    23    24    2
   133    23    22    1
   134    18    19   ar
   135    18    16   ar
   136     7     5    1
   137     6     5    1
   138    19    17   ar
   139   102   103    1
   140   102   101    1
   141   104   103    2
   142    25    22    1
   143    22    21    1
   144   108   107    2
   145    95    94    2
   146   107   106    1
   147   187   186    1
   148   187   188   ar
   149    93    94    1
   150    93    92    1
   151    16    14   ar
   152     5     2    1
   153   103   105   am
   154   132   133    1
   155    94    96   am
   156   186   183    1
   157   101    98   am
   158   105   106    1
   159    17    15   ar
   160     1     2    1
   161    92    88   am
   162    91    90    1
   163   106   109    1
   164     2     3    1
   165   185   184    2
   166    98    99    2
   167    98    97    1
   168    14    15   ar
   169    14    13    1
   170    96    97    1
   171    88    89    2
   172    88    87    1
   173   183   184    1
   174   183   182    1
   175   109   110    1
   176    97   100    1
   177     9     3   am
   178     9    10    1
   179     3     4    2
   180    13    10    1
   181    90    87    1
   182    87    86    1
   183    10    11    1
   184   113   112    1
   185   110   111    1
   186   112   111    1
   187   190   191    1
   188    12    11    2
   189   191   192    1
   190   193   192    2
