@<TRIPOS>MOLECULE
tmp/5hmrA01.pdb
 199 190 0 0 0
SMALL
GASTEIGER

@<TRIPOS>ATOM
      1  N         -9.5720   34.3780  -13.2900 N.3    18  PHE18      -0.1241
      2  CA       -10.0380   33.1410  -12.6590 C.3    18  PHE18       0.1605
      3  C         -9.6110   33.0050  -11.1750 C.2    18  PHE18       0.2264
      4  O        -10.3500   32.4210  -10.3740 O.2    18  PHE18      -0.2867
      5  CB        -9.6050   31.9330  -13.5040 C.3    18  PHE18       0.0534
      6  CG       -10.1570   30.6010  -13.0590 C.ar   18  PHE18      -0.0203
      7  CD1      -11.4710   30.2420  -13.3490 C.ar   18  PHE18      -0.0042
      8  CD2       -9.3550   29.6920  -12.3770 C.ar   18  PHE18      -0.0042
      9  CE1      -11.9580   28.9700  -13.0080 C.ar   18  PHE18      -0.0003
     10  CE2       -9.8440   28.4310  -12.0240 C.ar   18  PHE18      -0.0003
     11  CZ       -11.1360   28.0740  -12.3430 C.ar   18  PHE18      -0.0000
     12  N         -5.6520   20.5760  -20.1810 N.3   124  ASP124     -0.1225
     13  CA        -6.8500   19.8430  -19.7170 C.3   124  ASP124      0.1805
     14  C         -8.1210   20.6180  -20.0570 C.2   124  ASP124      0.2597
     15  O         -9.1910   20.0280  -20.1630 O.2   124  ASP124     -0.2718
     16  CB        -6.8100   19.6380  -18.1830 C.3   124  ASP124      0.1424
     17  CG        -5.6420   18.7920  -17.6980 C.2   124  ASP124      0.3668
     18  OD1       -5.1420   17.9630  -18.4890 O.co2 124  ASP124     -0.2456
     19  OD2       -5.2380   18.9540  -16.5180 O.co2 124  ASP124     -0.2456
     20  N         -8.0070   21.9460  -20.1550 N.am  125  TYR125     -0.1976
     21  CA        -9.1390   22.8250  -20.4120 C.3   125  TYR125      0.1639
     22  C         -8.8820   23.5660  -21.7310 C.2   125  TYR125      0.2290
     23  O         -7.8360   24.1750  -21.8910 O.2   125  TYR125     -0.2864
     24  CB        -9.2930   23.7630  -19.1940 C.3   125  TYR125      0.0560
     25  CG       -10.4270   24.7620  -19.2450 C.ar  125  TYR125     -0.0198
     26  CD1      -11.7580   24.3410  -19.2090 C.ar  125  TYR125     -0.0009
     27  CD2      -10.1740   26.1330  -19.2490 C.ar  125  TYR125     -0.0009
     28  CE1      -12.8080   25.2580  -19.1900 C.ar  125  TYR125      0.0417
     29  CE2      -11.2180   27.0610  -19.2050 C.ar  125  TYR125      0.0417
     30  CZ       -12.5340   26.6170  -19.1750 C.ar  125  TYR125      0.1957
     31  OH       -13.5670   27.5210  -19.1650 O.3   125  TYR125     -0.2866
     32  N          0.4330   22.2400  -20.7860 N.3   139  ILE139     -0.1245
     33  CA         0.6490   20.8470  -20.4010 C.3   139  ILE139      0.1561
     34  C         -0.6350   20.1090  -20.0980 C.2   139  ILE139      0.2260
     35  O         -1.6050   20.6940  -19.6120 O.2   139  ILE139     -0.2867
     36  CB         1.6400   20.7220  -19.2100 C.3   139  ILE139      0.0252
     37  CG1        1.0940   21.4230  -17.9200 C.3   139  ILE139      0.0019
     38  CG2        3.0370   21.1770  -19.6060 C.3   139  ILE139      0.0019
     39  CD1        1.9870   21.3020  -16.6300 C.3   139  ILE139      0.0001
     40  N         -2.0520   10.8770  -16.7820 N.3   235  GLU235     -0.1245
     41  CA        -2.2530   11.8270  -15.6910 C.3   235  GLU235      0.1567
     42  C         -2.5690   11.0160  -14.4200 C.2   235  GLU235      0.2260
     43  O         -2.5410    9.7900  -14.4290 O.2   235  GLU235     -0.2867
     44  CB        -3.3470   12.8730  -16.0010 C.3   235  GLU235      0.0388
     45  CG        -2.9410   13.9500  -16.9950 C.3   235  GLU235      0.1160
     46  CD        -3.7610   15.2290  -16.9710 C.2   235  GLU235      0.3649
     47  OE1       -3.6810   16.0000  -17.9520 O.co2 235  GLU235     -0.2457
     48  OE2       -4.4920   15.4580  -15.9840 O.co2 235  GLU235     -0.2457
     49  N        -13.8210   17.4430  -21.7280 N.3   292  ARG292     -0.1231
     50  CA       -14.3050   16.9480  -20.4320 C.3   292  ARG292      0.1694
     51  C        -14.3570   18.0160  -19.3050 C.2   292  ARG292      0.2591
     52  O        -15.2770   17.9710  -18.4910 O.2   292  ARG292     -0.2718
     53  CB       -13.5220   15.6770  -19.9770 C.3   292  ARG292      0.0321
     54  CG       -12.0780   15.9320  -19.4850 C.3   292  ARG292      0.0489
     55  CD       -11.1570   14.7140  -19.6120 C.3   292  ARG292      0.2205
     56  NE        -9.7760   15.0450  -19.2360 N.pl3 292  ARG292     -0.0865
     57  CZ        -8.9210   15.7090  -20.0130 C.cat 292  ARG292      0.5346
     58  NH1       -9.2890   16.1140  -21.2220 N.pl3 292  ARG292      0.1354
     59  NH2       -7.7050   15.9990  -19.5740 N.pl3 292  ARG292      0.1354
     60  N        -13.3760   18.9550  -19.2500 N.am  293  VAL293     -0.1980
     61  CA       -13.3260   19.9920  -18.2010 C.3   293  VAL293      0.1595
     62  C        -14.4210   21.0750  -18.4200 C.2   293  VAL293      0.2287
     63  O        -15.0210   21.5510  -17.4460 O.2   293  VAL293     -0.2864
     64  CB       -11.8850   20.5310  -17.9360 C.3   293  VAL293      0.0276
     65  CG1      -11.8650   21.6200  -16.8520 C.3   293  VAL293      0.0022
     66  CG2      -10.9410   19.3820  -17.5510 C.3   293  VAL293      0.0022
     67  N        -17.5090   19.8160  -16.7400 N.3   296  ALA296     -0.1245
     68  CA       -17.4210   20.0140  -15.2940 C.3   296  ALA296      0.1562
     69  C        -17.7260   21.4940  -14.9770 C.2   296  ALA296      0.2260
     70  O        -18.4110   21.7760  -13.9940 O.2   296  ALA296     -0.2867
     71  CB       -16.0340   19.6330  -14.7870 C.3   296  ALA296      0.0290
     72  N        -20.6200   23.2410  -12.5010 N.3   300  LEU300     -0.1245
     73  CA       -20.1810   24.1610  -11.4460 C.3   300  LEU300      0.1561
     74  C        -20.8820   25.5180  -11.5640 C.2   300  LEU300      0.2260
     75  O        -21.3190   26.0680  -10.5490 O.2   300  LEU300     -0.2867
     76  CB       -18.6460   24.3350  -11.4430 C.3   300  LEU300      0.0270
     77  CG       -17.8110   23.1360  -10.9570 C.3   300  LEU300      0.0019
     78  CD1      -16.3830   23.2080  -11.4920 C.3   300  LEU300      0.0001
     79  CD2      -17.7980   23.0350   -9.4270 C.3   300  LEU300      0.0001
     80  N        -18.4060   28.3040   -9.8380 N.3   306  TRP306     -0.1241
     81  CA       -17.3900   28.5860  -10.8410 C.3   306  TRP306      0.1605
     82  C        -16.7690   29.9480  -10.6080 C.2   306  TRP306      0.2264
     83  O        -15.5490   30.0680  -10.6530 O.2   306  TRP306     -0.2867
     84  CB       -17.9770   28.4850  -12.2660 C.3   306  TRP306      0.0550
     85  CG       -16.9600   28.6580  -13.3650 C.ar  306  TRP306      0.0003
     86  CD1      -16.7940   29.7490  -14.1610 C.ar  306  TRP306      0.0946
     87  CD2      -15.9500   27.7160  -13.7590 C.ar  306  TRP306      0.0152
     88  NE1      -15.7810   29.5290  -15.0630 N.ar  306  TRP306     -0.2442
     89  CE2      -15.2430   28.2880  -14.8380 C.ar  306  TRP306      0.0810
     90  CE3      -15.5990   26.4240  -13.3300 C.ar  306  TRP306      0.0012
     91  CZ2      -14.1940   27.6200  -15.4880 C.ar  306  TRP306      0.0191
     92  CZ3      -14.5650   25.7600  -13.9790 C.ar  306  TRP306      0.0001
     93  CH2      -13.8790   26.3530  -15.0470 C.ar  306  TRP306      0.0015
     94  N        -10.0030   31.1970   -6.8260 N.3   310  HIS310     -0.1241
     95  CA        -9.2400   29.9810   -7.1430 C.3   310  HIS310      0.1621
     96  C         -7.7690   30.1620   -6.7680 C.2   310  HIS310      0.2264
     97  O         -6.9600   30.5270   -7.6270 O.2   310  HIS310     -0.2867
     98  CB        -9.3820   29.5810   -8.6210 C.3   310  HIS310      0.0745
     99  CG       -10.7770   29.1980   -8.9870 C.ar  310  HIS310      0.0817
    100  ND1      -11.6110   30.0700   -9.6660 N.ar  310  HIS310     -0.2268
    101  CD2      -11.4530   28.0560   -8.7260 C.ar  310  HIS310      0.1154
    102  CE1      -12.7530   29.4250   -9.8100 C.ar  310  HIS310      0.1986
    103  NE2      -12.7020   28.2080   -9.2690 N.ar  310  HIS310     -0.2212
    104  N         -5.0160   28.6720   -6.8580 N.3   312  TRP312     -0.1241
    105  CA        -4.3370   27.5330   -7.4660 C.3   312  TRP312      0.1605
    106  C         -2.8220   27.6210   -7.3580 C.2   312  TRP312      0.2264
    107  O         -2.2400   28.6960   -7.5480 O.2   312  TRP312     -0.2867
    108  CB        -4.8060   27.3360   -8.9250 C.3   312  TRP312      0.0550
    109  CG        -6.2060   26.7960   -9.0450 C.ar  312  TRP312      0.0003
    110  CD1       -7.1060   26.6060   -8.0330 C.ar  312  TRP312      0.0946
    111  CD2       -6.8620   26.3630  -10.2490 C.ar  312  TRP312      0.0152
    112  NE1       -8.2770   26.0930   -8.5310 N.ar  312  TRP312     -0.2442
    113  CE2       -8.1370   25.8790   -9.8780 C.ar  312  TRP312      0.0810
    114  CE3       -6.4700   26.2730  -11.5980 C.ar  312  TRP312      0.0012
    115  CZ2       -9.0360   25.3360  -10.8130 C.ar  312  TRP312      0.0191
    116  CZ3       -7.3530   25.7320  -12.5190 C.ar  312  TRP312      0.0001
    117  CH2       -8.6180   25.2660  -12.1260 C.ar  312  TRP312      0.0015
    118  N          0.6810   25.5590   -8.6840 N.3   314  ASN314     -0.1240
    119  CA         1.2510   24.5620   -9.5930 C.3   314  ASN314      0.1653
    120  C          2.7270   24.4530   -9.3980 C.2   314  ASN314      0.2266
    121  O          3.4550   25.4370   -9.5570 O.2   314  ASN314     -0.2867
    122  CB         0.9020   24.8860  -11.0600 C.3   314  ASN314      0.1155
    123  CG        -0.5980   24.9320  -11.2840 C.2   314  ASN314      0.2627
    124  OD1       -1.2550   23.9110  -11.3600 O.2   314  ASN314     -0.2716
    125  ND2       -1.1900   26.1070  -11.2760 N.am  314  ASN314     -0.0877
    126  N         -9.6610   19.4210   -6.9860 N.3   337  PRO337     -0.2116
    127  CA        -8.7020   18.3490   -7.2860 C.3   337  PRO337      0.1372
    128  C         -7.2230   18.6830   -7.0400 C.2   337  PRO337      0.2244
    129  O         -6.8060   19.8430   -7.0720 O.2   337  PRO337     -0.2868
    130  CB        -8.9500   18.0580   -8.7710 C.3   337  PRO337      0.0268
    131  CG        -9.4660   19.3210   -9.3250 C.3   337  PRO337      0.0207
    132  CD       -10.2100   20.0160   -8.2240 C.3   337  PRO337      0.0892
    133  N         -3.9150   17.4480   -8.8500 N.3   339  LEU339     -0.1245
    134  CA        -3.3700   16.6750   -9.9830 C.3   339  LEU339      0.1561
    135  C         -1.9210   16.2770   -9.7310 C.2   339  LEU339      0.2260
    136  O         -1.1700   17.0320   -9.1000 O.2   339  LEU339     -0.2867
    137  CB        -3.4090   17.4500  -11.3010 C.3   339  LEU339      0.0270
    138  CG        -4.7230   17.9670  -11.8650 C.3   339  LEU339      0.0019
    139  CD1       -4.4550   18.6150  -13.2240 C.3   339  LEU339      0.0001
    140  CD2       -5.8000   16.8450  -11.9930 C.3   339  LEU339      0.0001
    141  N          1.2900   14.0420  -12.0550 N.3   341  TYR341     -0.1241
    142  CA         1.7910   13.2130  -13.1530 C.3   341  TYR341      0.1605
    143  C          3.2040   13.6180  -13.6030 C.2   341  TYR341      0.2264
    144  O          3.5310   14.8120  -13.5950 O.2   341  TYR341     -0.2867
    145  CB         0.7940   13.1460  -14.3410 C.3   341  TYR341      0.0534
    146  CG         0.5010   14.4740  -15.0110 C.ar  341  TYR341     -0.0201
    147  CD1        1.3300   14.9670  -16.0190 C.ar  341  TYR341     -0.0009
    148  CD2       -0.6370   15.2120  -14.6780 C.ar  341  TYR341     -0.0009
    149  CE1        1.0530   16.1760  -16.6600 C.ar  341  TYR341      0.0417
    150  CE2       -0.9270   16.4260  -15.3180 C.ar  341  TYR341      0.0417
    151  CZ        -0.0940   16.8830  -16.3340 C.ar  341  TYR341      0.1957
    152  OH        -0.3430   18.0730  -16.9720 O.3   341  TYR341     -0.2866
    153  N          4.2500   17.3660  -12.4220 N.3   364  LEU364     -0.1245
    154  CA         3.4030   18.5020  -12.1540 C.3   364  LEU364      0.1561
    155  C          2.6330   18.0500  -10.9000 C.2   364  LEU364      0.2260
    156  O          2.1230   16.9200  -10.8440 O.2   364  LEU364     -0.2867
    157  CB         2.3850   18.8180  -13.2710 C.3   364  LEU364      0.0270
    158  CG         1.1950   19.7610  -12.8500 C.3   364  LEU364      0.0019
    159  CD1        1.6570   21.2260  -12.6350 C.3   364  LEU364      0.0001
    160  CD2        0.0550   19.6990  -13.8670 C.3   364  LEU364      0.0001
    161  N         -0.4190   19.7770   -9.0260 N.3   366  ALA366     -0.1245
    162  CA        -1.3630   20.9000   -9.1270 C.3   366  ALA366      0.1562
    163  C         -2.4390   20.8890   -8.0420 C.2   366  ALA366      0.2260
    164  O         -3.2770   19.9910   -8.0100 O.2   366  ALA366     -0.2867
    165  CB        -2.0020   20.9180  -10.5120 C.3   366  ALA366      0.0290
    166  N         -5.5760   22.3980   -7.0440 N.3   368  LEU368     -0.1245
    167  CA        -6.6420   23.1390   -7.7360 C.3   368  LEU368      0.1561
    168  C         -7.8740   23.3030   -6.8740 C.2   368  LEU368      0.2260
    169  O         -8.9580   22.8540   -7.2300 O.2   368  LEU368     -0.2867
    170  CB        -6.9780   22.4640   -9.0870 C.3   368  LEU368      0.0270
    171  CG        -5.7970   22.0610   -9.9950 C.3   368  LEU368      0.0019
    172  CD1       -6.3000   21.3040  -11.2020 C.3   368  LEU368      0.0001
    173  CD2       -4.9810   23.2710  -10.4470 C.3   368  LEU368      0.0001
    174  N        -10.8420   25.3140   -4.7170 N.3   370  SER370     -0.1217
    175  CA       -11.7300   26.4680   -4.7990 C.3   370  SER370      0.1889
    176  C        -12.1190   26.8660   -3.3910 C.2   370  SER370      0.2288
    177  O        -12.3700   26.0080   -2.5470 O.2   370  SER370     -0.2866
    178  CB       -12.9980   26.1240   -5.5750 C.3   370  SER370      0.2089
    179  OG       -12.7140   25.7500   -6.9080 O.3   370  SER370     -0.2183
    180  N          5.0610   26.4340  -11.7100 N.3   403  TYR403     -0.1227
    181  CA         4.5460   26.5870  -13.0700 C.3   403  TYR403      0.1736
    182  C          3.5020   27.7320  -12.9160 C.2   403  TYR403      0.2595
    183  O          2.8380   27.7980  -11.8720 O.2   403  TYR403     -0.2718
    184  CB         3.9160   25.2830  -13.5890 C.3   403  TYR403      0.0548
    185  CG         3.2330   25.4290  -14.9380 C.ar  403  TYR403     -0.0200
    186  CD1        3.9090   25.9760  -16.0320 C.ar  403  TYR403     -0.0009
    187  CD2        1.9330   24.9640  -15.1380 C.ar  403  TYR403     -0.0009
    188  CE1        3.2910   26.1010  -17.2790 C.ar  403  TYR403      0.0417
    189  CE2        1.3260   25.0260  -16.4000 C.ar  403  TYR403      0.0417
    190  CZ         2.0020   25.6140  -17.4610 C.ar  403  TYR403      0.1957
    191  OH         1.3920   25.7230  -18.6940 O.3   403  TYR403     -0.2866
    192  N          3.4120   28.6740  -13.8970 N.am  404  LEU404     -0.1980
    193  CA         2.5530   29.8940  -13.8110 C.3   404  LEU404      0.1596
    194  C          3.0150   30.6550  -12.5430 C.2   404  LEU404      0.2287
    195  O          2.2250   30.8440  -11.5940 O.2   404  LEU404     -0.2864
    196  CB         1.0380   29.5570  -13.7560 C.3   404  LEU404      0.0297
    197  CG         0.5240   28.4220  -14.6520 C.3   404  LEU404      0.0022
    198  CD1       -0.8760   28.0440  -14.2820 C.3   404  LEU404      0.0001
    199  CD2        0.5810   28.7990  -16.0980 C.3   404  LEU404      0.0001
@<TRIPOS>BOND
     1    23    22    2
     2    22    21    1
     3    49    50    1
     4    58    57    1
     5    32    33    1
     6    50    53    1
     7    50    51    1
     8    21    20    1
     9    21    24    1
    10    33    34    1
    11    33    36    1
    12    12    13    1
    13    15    14    2
    14    20    14   am
    15    34    35    2
    16    14    13    1
    17    57    59    1
    18    57    56    2
    19    53    54    1
    20    13    16    1
    21    55    54    1
    22    55    56    1
    23    38    36    1
    24    51    60   am
    25    51    52    2
    26    60    61    1
    27    27    25   ar
    28    27    29   ar
    29    25    26   ar
    30    25    24    1
    31    36    37    1
    32    26    28   ar
    33    29    30   ar
    34    28    30   ar
    35    30    31    1
    36   191   190    1
    37    18    17   ar
    38    62    61    1
    39    62    63    2
    40    61    64    1
    41    16    17    1
    42    47    46   ar
    43    64    66    1
    44    64    65    1
    45    37    39    1
    46    17    19   ar
    47   190   188   ar
    48   190   189   ar
    49   188   186   ar
    50    45    46    1
    51    45    44    1
    52   152   151    1
    53    46    48   ar
    54    40    41    1
    55    67    68    1
    56   149   151   ar
    57   149   147   ar
    58   189   187   ar
    59   151   150   ar
    60   199   197    1
    61   186   185   ar
    62   147   146   ar
    63    44    41    1
    64    41    42    1
    65    91    93   ar
    66    91    89   ar
    67   150   148   ar
    68    68    69    1
    69    68    71    1
    70   187   185   ar
    71    88    89   ar
    72    88    86   ar
    73    93    92   ar
    74   146   148   ar
    75   146   145    1
    76    69    70    2
    77   185   184    1
    78    89    87   ar
    79   197   198    1
    80   197   196    1
    81    43    42    2
    82   145   142    1
    83    86    85   ar
    84    92    90   ar
    85   192   193    1
    86   192   182   am
    87   160   158    1
    88   193   196    1
    89   193   194    1
    90    87    85   ar
    91    87    90   ar
    92   143   144    2
    93   143   142    1
    94   184   181    1
    95     5     6    1
    96     5     2    1
    97    85    84    1
    98     7     6   ar
    99     7     9   ar
   100     1     2    1
   101   157   158    1
   102   157   154    1
   103   139   138    1
   104   142   141    1
   105   181   182    1
   106   181   180    1
   107     6     8   ar
   108     9    11   ar
   109   182   183    2
   110   158   159    1
   111     2     3    1
   112   194   195    2
   113   116   117   ar
   114   116   114   ar
   115    72    73    1
   116   153   154    1
   117     8    10   ar
   118    11    10   ar
   119    84    81    1
   120   154   155    1
   121   117   115   ar
   122   140   138    1
   123   138   137    1
   124   114   111   ar
   125    74    73    1
   126    74    75    2
   127    78    77    1
   128    73    76    1
   129    76    77    1
   130   124   123    2
   131   137   134    1
   132   123   125   am
   133   123   122    1
   134   172   171    1
   135     3     4    2
   136   122   119    1
   137    77    79    1
   138   155   156    2
   139    81    82    1
   140    81    80    1
   141   115   113   ar
   142    83    82    2
   143   165   162    1
   144   173   171    1
   145   111   113   ar
   146   111   109   ar
   147   171   170    1
   148   134   135    1
   149   134   133    1
   150   113   112   ar
   151   102   100   ar
   152   102   103   ar
   153   135   136    2
   154   100    99   ar
   155   119   120    1
   156   119   118    1
   157   121   120    2
   158   131   130    1
   159   131   132    1
   160   103   101   ar
   161   162   161    1
   162   162   163    1
   163   170   167    1
   164   109   108    1
   165   109   110   ar
   166    99   101   ar
   167    99    98    1
   168   108   105    1
   169   130   127    1
   170    98    95    1
   171   112   110   ar
   172   132   126    1
   173   163   164    2
   174   167   166    1
   175   167   168    1
   176    97    96    2
   177   107   106    2
   178   105   106    1
   179   105   104    1
   180   127   128    1
   181   127   126    1
   182   169   168    2
   183    95    94    1
   184    95    96    1
   185   129   128    2
   186   179   178    1
   187   178   175    1
   188   175   174    1
   189   175   176    1
   190   176   177    2
