@<TRIPOS>MOLECULE
tmp/5hmwA01.pdb
 105 98 0 0 0
SMALL
GASTEIGER

@<TRIPOS>ATOM
      1  N          3.5810   66.5430    0.5490 N.3   472  ARG472     -0.1245
      2  CA         3.1000   67.5760   -0.4060 C.3   472  ARG472      0.1563
      3  C          3.6450   68.9600   -0.1650 C.2   472  ARG472      0.2260
      4  O          4.1460   69.5720   -1.1010 O.2   472  ARG472     -0.2867
      5  CB         1.5890   67.6100   -0.4480 C.3   472  ARG472      0.0307
      6  CG         1.0130   66.4630   -1.2650 C.3   472  ARG472      0.0489
      7  CD        -0.4090   66.1940   -0.8190 C.3   472  ARG472      0.2205
      8  NE        -0.9510   65.0040   -1.4530 N.pl3 472  ARG472     -0.0865
      9  CZ        -0.8060   63.7660   -0.9970 C.cat 472  ARG472      0.5346
     10  NH1       -0.1300   63.5380    0.1230 N.pl3 472  ARG472      0.1354
     11  NH2       -1.3060   62.7420   -1.6750 N.pl3 472  ARG472      0.1354
     12  N          6.3900   71.1480   -2.5990 N.3   476  LEU476     -0.1245
     13  CA         6.0430   72.4850   -3.0500 C.3   476  LEU476      0.1561
     14  C          7.0880   73.5090   -2.5840 C.2   476  LEU476      0.2260
     15  O          7.6120   74.2530   -3.4240 O.2   476  LEU476     -0.2867
     16  CB         4.6280   72.8820   -2.5790 C.3   476  LEU476      0.0270
     17  CG         3.9740   74.0790   -3.3500 C.3   476  LEU476      0.0019
     18  CD1        2.5030   74.0100   -3.2820 C.3   476  LEU476      0.0001
     19  CD2        4.3540   75.4150   -2.7460 C.3   476  LEU476      0.0001
     20  N          3.6750   60.3430   -3.4120 N.3   540  TYR540     -0.1241
     21  CA         3.3790   61.0890   -2.2070 C.3   540  TYR540      0.1605
     22  C          2.8230   60.0750   -1.2160 C.2   540  TYR540      0.2264
     23  O          2.2770   59.0490   -1.6300 O.2   540  TYR540     -0.2867
     24  CB         2.2560   62.1120   -2.4670 C.3   540  TYR540      0.0534
     25  CG         2.6770   63.3540   -3.2140 C.ar  540  TYR540     -0.0201
     26  CD1        2.1270   63.6630   -4.4510 C.ar  540  TYR540     -0.0009
     27  CD2        3.6050   64.2400   -2.6690 C.ar  540  TYR540     -0.0009
     28  CE1        2.5180   64.8010   -5.1510 C.ar  540  TYR540      0.0417
     29  CE2        4.0130   65.3750   -3.3650 C.ar  540  TYR540      0.0417
     30  CZ         3.4640   65.6500   -4.6100 C.ar  540  TYR540      0.1957
     31  OH         3.8260   66.7720   -5.3100 O.3   540  TYR540     -0.2866
     32  N         -3.0780   61.2060    1.1040 N.3   543  LYS543     -0.1245
     33  CA        -3.4530   62.5220    1.6780 C.3   543  LYS543      0.1561
     34  C         -3.6380   62.4830    3.2040 C.2   543  LYS543      0.2260
     35  O         -3.1050   63.3250    3.9200 O.2   543  LYS543     -0.2867
     36  CB        -4.6950   63.1330    0.9960 C.3   543  LYS543      0.0271
     37  CG        -4.4200   63.8640   -0.3170 C.3   543  LYS543      0.0035
     38  CD        -5.6460   63.9240   -1.2520 C.3   543  LYS543      0.0206
     39  CE        -6.6460   64.9980   -0.8670 C.3   543  LYS543      0.1093
     40  NZ        -7.6190   65.2870   -1.9570 N.3   543  LYS543     -0.1314
     41  N         -1.5780   64.3200    6.1400 N.3   547  GLN547     -0.1245
     42  CA        -2.2490   65.1450    7.1610 C.3   547  GLN547      0.1566
     43  C         -1.9360   64.6590    8.5740 C.2   547  GLN547      0.2260
     44  O         -1.5240   65.4650    9.3910 O.2   547  GLN547     -0.2867
     45  CB        -3.7540   65.2300    6.9350 C.3   547  GLN547      0.0367
     46  CG        -4.1480   66.1030    5.7400 C.3   547  GLN547      0.0905
     47  CD        -5.6050   65.9400    5.3610 C.2   547  GLN547      0.2608
     48  OE1       -6.2870   64.9980    5.7680 O.2   547  GLN547     -0.2717
     49  NE2       -6.1090   66.8280    4.5240 N.am  547  GLN547     -0.0878
     50  N         -2.2730   70.6310    3.9440 N.3   553  ILE553     -0.1231
     51  CA        -3.1490   70.4230    2.7710 C.3   553  ILE553      0.1692
     52  C         -4.6010   70.3740    3.2550 C.2   553  ILE553      0.2592
     53  O         -4.8830   69.7410    4.2760 O.2   553  ILE553     -0.2718
     54  CB        -2.7890   69.1640    1.9010 C.3   553  ILE553      0.0266
     55  CG1       -2.7910   67.8610    2.7380 C.3   553  ILE553      0.0019
     56  CG2       -1.4720   69.3560    1.1410 C.3   553  ILE553      0.0020
     57  CD1       -3.1610   66.6530    2.0110 C.3   553  ILE553      0.0001
     58  N         -5.4900   71.0520    2.5290 N.am  554  GLY554     -0.1957
     59  CA        -6.9000   71.1440    2.8830 C.3   554  GLY554      0.1869
     60  C         -7.2280   72.4760    3.5370 C.2   554  GLY554      0.2309
     61  O         -8.3900   72.8890    3.5400 O.2   554  GLY554     -0.2863
     62  N         -2.9730   77.4240    3.2790 N.3   558  ARG558     -0.1231
     63  CA        -2.0800   76.5990    2.4730 C.3   558  ARG558      0.1694
     64  C         -2.3710   76.7560    0.9830 C.2   558  ARG558      0.2591
     65  O         -1.4270   76.8820    0.2040 O.2   558  ARG558     -0.2718
     66  CB        -2.1480   75.1380    2.9160 C.3   558  ARG558      0.0321
     67  CG        -0.9680   74.3050    2.4670 C.3   558  ARG558      0.0489
     68  CD        -1.3200   73.6140    1.1820 C.3   558  ARG558      0.2205
     69  NE        -0.3300   72.6190    0.8390 N.pl3 558  ARG558     -0.0865
     70  CZ        -0.0030   72.2780   -0.3970 C.cat 558  ARG558      0.5346
     71  NH1       -0.5810   72.8770   -1.4350 N.pl3 558  ARG558      0.1354
     72  NH2        0.9130   71.3410   -0.6090 N.pl3 558  ARG558      0.1354
     73  N         -3.6640   76.7490    0.5930 N.am  559  ALA559     -0.1980
     74  CA        -4.1070   76.9180   -0.8060 C.3   559  ALA559      0.1597
     75  C         -3.7570   78.3050   -1.3270 C.2   559  ALA559      0.2287
     76  O         -3.3570   78.4280   -2.4780 O.2   559  ALA559     -0.2864
     77  CB        -5.5970   76.6580   -0.9430 C.3   559  ALA559      0.0319
     78  N          6.0910   70.0590  -11.0550 N.3   588  MET588     -0.1230
     79  CA         4.9060   69.7880  -10.2420 C.3   588  MET588      0.1702
     80  C          3.6190   69.8910  -11.0600 C.2   588  MET588      0.2592
     81  O          3.5500   70.6570  -12.0260 O.2   588  MET588     -0.2718
     82  CB         4.8240   70.7640   -9.0640 C.3   588  MET588      0.0401
     83  CG         5.8960   70.5510   -8.0490 C.3   588  MET588      0.0596
     84  SD         5.5110   71.3440   -6.4790 S.3   588  MET588     -0.1393
     85  CE         4.7680   69.9830   -5.6070 C.3   588  MET588      0.0692
     86  N          2.5900   69.1380  -10.6290 N.am  589  LYS589     -0.1966
     87  CA         1.2530   69.0790  -11.2270 C.3   589  LYS589      0.1728
     88  C          0.5870   70.4630  -11.2820 C.2   589  LYS589      0.2616
     89  O         -0.0500   70.7950  -12.2920 O.2   589  LYS589     -0.2715
     90  CB         0.3650   68.1050  -10.4190 C.3   589  LYS589      0.0311
     91  CG        -0.4200   67.1090  -11.2590 C.3   589  LYS589      0.0038
     92  CD        -1.7420   67.6750  -11.7700 C.3   589  LYS589      0.0206
     93  CE        -2.3270   66.7950  -12.8390 C.3   589  LYS589      0.1093
     94  NZ        -1.4450   66.7400  -14.0310 N.3   589  LYS589     -0.1314
     95  N          0.7400   71.2560  -10.1910 N.am  590  ARG590     -0.1977
     96  CA         0.1790   72.5990  -10.0230 C.3   590  ARG590      0.1597
     97  C          0.6060   73.5510  -11.1550 C.2   590  ARG590      0.2287
     98  O         -0.2580   74.1320  -11.8200 O.2   590  ARG590     -0.2864
     99  CB         0.5700   73.1670   -8.6500 C.3   590  ARG590      0.0334
    100  CG        -0.2780   74.3440   -8.1920 C.3   590  ARG590      0.0492
    101  CD         0.0300   74.7100   -6.7520 C.3   590  ARG590      0.2205
    102  NE        -0.4920   73.7280   -5.7980 N.pl3 590  ARG590     -0.0865
    103  CZ        -1.6810   73.8100   -5.2110 C.cat 590  ARG590      0.5346
    104  NH1       -2.4860   74.8360   -5.4640 N.pl3 590  ARG590      0.1354
    105  NH2       -2.0670   72.8780   -4.3490 N.pl3 590  ARG590      0.1354
@<TRIPOS>BOND
     1    94    93    1
     2    93    92    1
     3    89    88    2
     4    81    80    2
     5    98    97    2
     6    92    91    1
     7    88    87    1
     8    88    95   am
     9    91    90    1
    10    87    86    1
    11    87    90    1
    12    97    96    1
    13    80    86   am
    14    80    79    1
    15    78    79    1
    16    79    82    1
    17    95    96    1
    18    96    99    1
    19    82    83    1
    20    99   100    1
    21   100   101    1
    22    83    84    1
    23   101   102    1
    24    84    85    1
    25   102   103    2
    26   104   103    1
    27    31    30    1
    28   103   105    1
    29    28    30   ar
    30    28    26   ar
    31    30    29   ar
    32    26    25   ar
    33    15    14    2
    34    20    21    1
    35    29    27   ar
    36    17    18    1
    37    17    19    1
    38    17    16    1
    39    25    27   ar
    40    25    24    1
    41    13    12    1
    42    13    14    1
    43    13    16    1
    44    76    75    2
    45    24    21    1
    46    21    22    1
    47    40    39    1
    48    11     9    1
    49    23    22    2
    50     8     9    2
    51     8     7    1
    52    71    70    1
    53    75    74    1
    54     6     7    1
    55     6     5    1
    56    38    39    1
    57    38    37    1
    58     4     3    2
    59     9    10    1
    60    77    74    1
    61    74    73    1
    62    72    70    1
    63     5     2    1
    64     2     3    1
    65     2     1    1
    66    70    69    2
    67    37    36    1
    68    65    64    2
    69    73    64   am
    70    69    68    1
    71    64    63    1
    72    36    33    1
    73    32    33    1
    74    56    54    1
    75    68    67    1
    76    33    34    1
    77    54    55    1
    78    54    51    1
    79    57    55    1
    80    67    66    1
    81    63    66    1
    82    63    62    1
    83    58    59    1
    84    58    52   am
    85    51    52    1
    86    51    50    1
    87    59    60    1
    88    34    35    2
    89    52    53    2
    90    60    61    2
    91    49    47   am
    92    47    46    1
    93    47    48    2
    94    46    45    1
    95    41    42    1
    96    45    42    1
    97    42    43    1
    98    43    44    2
