@<TRIPOS>MOLECULE
tmp/5hmwA00.pdb
 169 168 0 0 0
SMALL
GASTEIGER

@<TRIPOS>ATOM
      1  N         19.6070   56.9540    6.3020 N.3   213  LEU213     -0.1245
      2  CA        18.2090   57.1150    6.6600 C.3   213  LEU213      0.1561
      3  C         17.2650   56.4270    5.6910 C.2   213  LEU213      0.2260
      4  O         16.2920   55.8130    6.1230 O.2   213  LEU213     -0.2867
      5  CB        17.8520   58.6160    6.7870 C.3   213  LEU213      0.0270
      6  CG        16.4590   58.9560    7.2830 C.3   213  LEU213      0.0019
      7  CD1       16.3140   58.6610    8.7410 C.3   213  LEU213      0.0001
      8  CD2       16.0980   60.4060    6.9460 C.3   213  LEU213      0.0001
      9  N         19.4880   54.3770   20.4680 N.3   366  ASP366     -0.1239
     10  CA        18.2590   54.0350   19.7560 C.3   366  ASP366      0.1674
     11  C         18.2040   52.5630   19.4350 C.2   366  ASP366      0.2266
     12  O         19.1000   52.0420   18.7920 O.2   366  ASP366     -0.2867
     13  CB        18.1150   54.8510   18.4530 C.3   366  ASP366      0.1410
     14  CG        17.2350   56.0530   18.5990 C.2   366  ASP366      0.3668
     15  OD1       17.7680   57.1310   18.9150 O.co2 366  ASP366     -0.2456
     16  OD2       15.9980   55.9100   18.4200 O.co2 366  ASP366     -0.2456
     17  N         15.4200   56.6650   15.4820 N.3   411  CYS411     -0.1221
     18  CA        16.2940   57.7400   15.0110 C.3   411  CYS411      0.1808
     19  C         15.4780   58.9790   14.5950 C.2   411  CYS411      0.2602
     20  O         15.5970   59.4370   13.4610 O.2   411  CYS411     -0.2717
     21  CB        17.2140   57.2520   13.8850 C.3   411  CYS411      0.0970
     22  SG        18.3110   55.8740   14.3520 S.3   411  CYS411     -0.0800
     23  N         14.5870   59.4670   15.5010 N.am  412  SER412     -0.1938
     24  CA        13.7360   60.6580   15.2930 C.3   412  SER412      0.2055
     25  C         12.7500   60.5240   14.1300 C.2   412  SER412      0.2643
     26  O         12.1190   61.5110   13.7380 O.2   412  SER412     -0.2714
     27  CB        14.5960   61.9030   15.1110 C.3   412  SER412      0.2130
     28  OG        15.3800   62.1150   16.2720 O.3   412  SER412     -0.2179
     29  N         12.5950   59.3000   13.5880 N.am  413  HIS413     -0.1973
     30  CA        11.7110   59.0690   12.4520 C.3   413  HIS413      0.1656
     31  C         10.7880   57.8660   12.6380 C.2   413  HIS413      0.2291
     32  O         10.9340   57.0930   13.5900 O.2   413  HIS413     -0.2864
     33  CB        12.5770   58.8210   11.2030 C.3   413  HIS413      0.0771
     34  CG        13.2660   60.0330   10.6650 C.ar  413  HIS413      0.0820
     35  ND1       14.4240   60.5210   11.2440 N.ar  413  HIS413     -0.2267
     36  CD2       12.9820   60.7670    9.5630 C.ar  413  HIS413      0.1154
     37  CE1       14.7930   61.5540   10.5000 C.ar  413  HIS413      0.1986
     38  NE2       13.9340   61.7550    9.4870 N.ar  413  HIS413     -0.2212
     39  N          8.6790   62.1580    9.5350 N.3   431  ARG431     -0.1245
     40  CA         8.6120   62.7370   10.8800 C.3   431  ARG431      0.1563
     41  C          7.5760   63.8850   10.8550 C.2   431  ARG431      0.2260
     42  O          7.1100   64.2140    9.7550 O.2   431  ARG431     -0.2867
     43  CB        10.0050   63.1660   11.3890 C.3   431  ARG431      0.0307
     44  CG        10.6550   64.3080   10.6330 C.3   431  ARG431      0.0489
     45  CD        12.0770   64.5330   11.0760 C.3   431  ARG431      0.2205
     46  NE        12.1230   64.9630   12.4720 N.pl3 431  ARG431     -0.0865
     47  CZ        13.2300   65.0810   13.1930 C.cat 431  ARG431      0.5346
     48  NH1       14.4100   64.7930   12.6640 N.pl3 431  ARG431      0.1354
     49  NH2       13.1640   65.4680   14.4530 N.pl3 431  ARG431      0.1354
     50  N         13.3530   73.3880   11.4120 N.3   439  ARG439     -0.1245
     51  CA        14.8080   73.2730   11.3420 C.3   439  ARG439      0.1563
     52  C         15.3280   74.0370   10.1150 C.2   439  ARG439      0.2260
     53  O         16.2920   74.8100   10.2310 O.2   439  ARG439     -0.2867
     54  CB        15.2320   71.7880   11.3060 C.3   439  ARG439      0.0307
     55  CG        16.7470   71.4880   11.2570 C.3   439  ARG439      0.0489
     56  CD        17.5790   72.1850   12.3210 C.3   439  ARG439      0.2205
     57  NE        17.1900   71.7800   13.6720 N.pl3 439  ARG439     -0.0865
     58  CZ        17.3330   72.5400   14.7540 C.cat 439  ARG439      0.5346
     59  NH1       17.8550   73.7560   14.6570 N.pl3 439  ARG439      0.1354
     60  NH2       16.9510   72.0900   15.9420 N.pl3 439  ARG439      0.1354
     61  N         17.4430   68.3820    0.3360 N.3   463  MET463     -0.1245
     62  CA        17.3620   67.2420    1.2890 C.3   463  MET463      0.1570
     63  C         15.9370   66.6750    1.3110 C.2   463  MET463      0.2261
     64  O         15.7540   65.4570    1.3050 O.2   463  MET463     -0.2867
     65  CB        17.8090   67.6430    2.7080 C.3   463  MET463      0.0387
     66  CG        17.5740   66.5340    3.7470 C.3   463  MET463      0.0595
     67  SD        18.0920   67.0540    5.3730 S.3   463  MET463     -0.1393
     68  CE        16.6910   68.1360    5.8140 C.3   463  MET463      0.0692
     69  N         14.6700   62.9070    0.6360 N.3   467  MET467     -0.1230
     70  CA        14.1590   62.1080    1.7670 C.3   467  MET467      0.1702
     71  C         12.7030   62.2520    2.0510 C.2   467  MET467      0.2592
     72  O         12.0580   61.2840    2.4360 O.2   467  MET467     -0.2718
     73  CB        14.9740   62.4300    3.0440 C.3   467  MET467      0.0401
     74  CG        16.4750   62.1210    2.8790 C.3   467  MET467      0.0596
     75  SD        16.7240   60.3260    2.7580 S.3   467  MET467     -0.1393
     76  CE        18.2350   60.2580    1.8520 C.3   467  MET467      0.0692
     77  N         12.1800   63.4510    1.8740 N.am  468  TYR468     -0.1976
     78  CA        10.8230   63.8000    2.2710 C.3   468  TYR468      0.1639
     79  C          9.9640   64.3510    1.1310 C.2   468  TYR468      0.2290
     80  O          9.0280   65.1040    1.3730 O.2   468  TYR468     -0.2864
     81  CB        10.8900   64.7770    3.4750 C.3   468  TYR468      0.0560
     82  CG        11.9000   64.4250    4.5580 C.ar  468  TYR468     -0.0198
     83  CD1       13.0700   65.1660    4.7170 C.ar  468  TYR468     -0.0009
     84  CD2       11.6550   63.3920    5.4660 C.ar  468  TYR468     -0.0009
     85  CE1       13.9930   64.8530    5.7070 C.ar  468  TYR468      0.0417
     86  CE2       12.5590   63.0950    6.4890 C.ar  468  TYR468      0.0417
     87  CZ        13.7230   63.8310    6.6070 C.ar  468  TYR468      0.1957
     88  OH        14.5980   63.5840    7.6380 O.3   468  TYR468     -0.2866
     89  N         22.9810   70.5090    6.4470 N.3   495  THR495     -0.1203
     90  CA        21.6100   70.6170    6.9330 C.3   495  THR495      0.1994
     91  C         21.4670   69.8530    8.2530 C.2   495  THR495      0.2619
     92  O         20.5840   70.1660    9.0520 O.2   495  THR495     -0.2717
     93  CB        20.6430   70.0490    5.8940 C.3   495  THR495      0.1784
     94  OG1       21.0570   68.7390    5.5680 O.3   495  THR495     -0.2211
     95  CG2       20.5950   70.8770    4.6540 C.3   495  THR495      0.0376
     96  N         22.3460   68.8550    8.4640 N.am  496  THR496     -0.1938
     97  CA        22.3540   67.9600    9.6140 C.3   496  THR496      0.2028
     98  C         23.7320   67.3620    9.8770 C.2   496  THR496      0.2642
     99  O         24.5290   67.2040    8.9470 O.2   496  THR496     -0.2714
    100  CB        21.3010   66.8500    9.4130 C.3   496  THR496      0.1808
    101  OG1       21.2600   66.0190   10.5680 O.3   496  THR496     -0.2208
    102  CG2       21.5500   65.9960    8.1680 C.3   496  THR496      0.0379
    103  N         23.9810   66.9970   11.1560 N.am  497  TRP497     -0.1959
    104  CA        25.1980   66.3160   11.6330 C.3   497  TRP497      0.1771
    105  C         24.9240   64.8200   11.8430 C.2   497  TRP497      0.2620
    106  O         25.8140   64.1050   12.2700 O.2   497  TRP497     -0.2715
    107  CB        25.6940   66.9210   12.9630 C.3   497  TRP497      0.0590
    108  CG        26.3730   68.2460   12.8330 C.ar  497  TRP497      0.0006
    109  CD1       25.8200   69.4700   13.0550 C.ar  497  TRP497      0.0946
    110  CD2       27.7530   68.4780   12.5190 C.ar  497  TRP497      0.0152
    111  NE1       26.7650   70.4540   12.8830 N.ar  497  TRP497     -0.2442
    112  CE2       27.9610   69.8730   12.5510 C.ar  497  TRP497      0.0810
    113  CE3       28.8390   67.6390   12.2150 C.ar  497  TRP497      0.0012
    114  CZ2       29.2060   70.4520   12.2860 C.ar  497  TRP497      0.0191
    115  CZ3       30.0740   68.2140   11.9390 C.ar  497  TRP497      0.0001
    116  CH2       30.2490   69.6060   11.9870 C.ar  497  TRP497      0.0015
    117  N         23.6910   64.3530   11.5730 N.am  498  SER498     -0.1936
    118  CA        23.2640   62.9610   11.7210 C.3   498  SER498      0.2055
    119  C         24.2600   61.9780   11.1060 C.2   498  SER498      0.2643
    120  O         24.7370   62.1910    9.9830 O.2   498  SER498     -0.2714
    121  CB        21.9110   62.7680   11.0580 C.3   498  SER498      0.2130
    122  OG        21.4800   61.4180   11.0840 O.3   498  SER498     -0.2179
    123  N         24.5520   60.8830   11.8220 N.am  499  ILE499     -0.1963
    124  CA        25.4460   59.8580   11.2860 C.3   499  ILE499      0.1727
    125  C         24.7340   59.0920   10.1660 C.2   499  ILE499      0.2616
    126  O         25.4000   58.4010    9.3950 O.2   499  ILE499     -0.2715
    127  CB        26.1080   58.9330   12.3570 C.3   499  ILE499      0.0290
    128  CG1       25.1430   57.8060   12.8520 C.3   499  ILE499      0.0022
    129  CG2       26.7420   59.7330   13.5240 C.3   499  ILE499      0.0023
    130  CD1       24.1450   58.1300   13.8660 C.3   499  ILE499      0.0001
    131  N         23.3830   59.2660   10.0450 N.am  500  HIS500     -0.1959
    132  CA        22.5620   58.6270    9.0120 C.3   500  HIS500      0.1787
    133  C         22.4800   59.4680    7.7340 C.2   500  HIS500      0.2620
    134  O         21.7970   59.0620    6.7940 O.2   500  HIS500     -0.2715
    135  CB        21.1550   58.3310    9.5410 C.3   500  HIS500      0.0785
    136  CG        21.1610   57.6350   10.8580 C.ar  500  HIS500      0.0821
    137  ND1       21.7070   56.3700   11.0050 N.ar  500  HIS500     -0.2267
    138  CD2       20.7480   58.0780   12.0640 C.ar  500  HIS500      0.1154
    139  CE1       21.5840   56.0760   12.2820 C.ar  500  HIS500      0.1986
    140  NE2       21.0110   57.0720   12.9610 N.ar  500  HIS500     -0.2212
    141  N         23.1590   60.6340    7.7150 N.am  501  ALA501     -0.1963
    142  CA        23.1590   61.5540    6.5640 C.3   501  ALA501      0.1728
    143  C         24.3050   61.2610    5.6310 C.2   501  ALA501      0.2616
    144  O         25.4470   61.1660    6.0800 O.2   501  ALA501     -0.2715
    145  CB        23.2490   63.0020    7.0360 C.3   501  ALA501      0.0334
    146  N         24.0100   61.1020    4.3370 N.am  502  HIS502     -0.1973
    147  CA        25.0520   60.8700    3.3410 C.3   502  HIS502      0.1656
    148  C         25.2000   62.0850    2.4220 C.2   502  HIS502      0.2291
    149  O         26.0550   62.1080    1.5430 O.2   502  HIS502     -0.2864
    150  CB        24.8230   59.5450    2.6060 C.3   502  HIS502      0.0771
    151  CG        24.9710   58.3410    3.4970 C.ar  502  HIS502      0.0820
    152  ND1       24.6750   57.0750    3.0440 N.ar  502  HIS502     -0.2267
    153  CD2       25.4150   58.2500    4.7760 C.ar  502  HIS502      0.1154
    154  CE1       24.9240   56.2680    4.0610 C.ar  502  HIS502      0.1986
    155  NE2       25.3570   56.9370    5.1250 N.ar  502  HIS502     -0.2212
    156  N         22.2610   65.4980   -1.4050 N.3   505  TRP505     -0.1241
    157  CA        21.6300   66.7570   -1.8240 C.3   505  TRP505      0.1605
    158  C         22.6280   67.9330   -1.9200 C.2   505  TRP505      0.2264
    159  O         22.2350   69.0190   -2.3390 O.2   505  TRP505     -0.2867
    160  CB        20.5110   67.1010   -0.8410 C.3   505  TRP505      0.0550
    161  CG        20.9540   67.1450    0.5910 C.ar  505  TRP505      0.0003
    162  CD1       21.5110   68.2040    1.2480 C.ar  505  TRP505      0.0946
    163  CD2       20.8790   66.0690    1.5450 C.ar  505  TRP505      0.0152
    164  NE1       21.7810   67.8620    2.5520 N.ar  505  TRP505     -0.2442
    165  CE2       21.4050   66.5540    2.7630 C.ar  505  TRP505      0.0810
    166  CE3       20.3770   64.7540    1.4980 C.ar  505  TRP505      0.0012
    167  CZ2       21.4980   65.7520    3.9140 C.ar  505  TRP505      0.0191
    168  CZ3       20.4570   63.9660    2.6420 C.ar  505  TRP505      0.0001
    169  CH2       21.0060   64.4710    3.8350 C.ar  505  TRP505      0.0015
@<TRIPOS>BOND
     1   159   158    2
     2   158   157    1
     3   157   156    1
     4   157   160    1
     5   160   161    1
     6    61    62    1
     7   161   162   ar
     8   161   163   ar
     9    69    70    1
    10    79    80    2
    11    79    78    1
    12   162   164   ar
    13    62    63    1
    14    62    65    1
    15    64    63    2
    16   166   163   ar
    17   166   168   ar
    18   149   148    2
    19   163   165   ar
    20    70    71    1
    21    70    73    1
    22    76    75    1
    23    77    71   am
    24    77    78    1
    25    71    72    2
    26    78    81    1
    27   148   147    1
    28   164   165   ar
    29   150   147    1
    30   150   151    1
    31   168   169   ar
    32    65    66    1
    33    75    74    1
    34   165   167   ar
    35    74    73    1
    36   152   151   ar
    37   152   154   ar
    38   147   146    1
    39    81    82    1
    40   151   153   ar
    41    66    67    1
    42   169   167   ar
    43   154   155   ar
    44   146   143   am
    45    82    83   ar
    46    82    84   ar
    47    95    93    1
    48    83    85   ar
    49   153   155   ar
    50    67    68    1
    51    84    86   ar
    52    94    93    1
    53   143   144    2
    54   143   142    1
    55     3     4    2
    56     3     2    1
    57    85    87   ar
    58    93    90    1
    59     1     2    1
    60    89    90    1
    61    86    87   ar
    62   142   145    1
    63   142   141    1
    64    87    88    1
    65     2     5    1
    66     5     6    1
    67   134   133    2
    68    90    91    1
    69     8     6    1
    70     6     7    1
    71   141   133   am
    72   133   132    1
    73   102   100    1
    74    91    96   am
    75    91    92    2
    76    96    97    1
    77    99    98    2
    78   132   135    1
    79   132   131    1
    80   126   125    2
    81   100    97    1
    82   100   101    1
    83    38    36   ar
    84    38    37   ar
    85    39    40    1
    86   135   136    1
    87    36    34   ar
    88    97    98    1
    89    42    41    2
    90    98   103   am
    91   120   119    2
    92   131   125   am
    93    52    53    2
    94    52    51    1
    95   125   124    1
    96    37    35   ar
    97    44    45    1
    98    44    43    1
    99    34    33    1
   100    34    35   ar
   101    41    40    1
   102   136   137   ar
   103   136   138   ar
   104    40    43    1
   105   137   139   ar
   106   121   122    1
   107   121   118    1
   108    45    46    1
   109   119   118    1
   110   119   123   am
   111   103   104    1
   112    33    30    1
   113    55    54    1
   114    55    56    1
   115   124   123    1
   116   124   127    1
   117    54    51    1
   118    51    50    1
   119   117   118    1
   120   117   105   am
   121   104   105    1
   122   104   107    1
   123   105   106    2
   124   115   116   ar
   125   115   113   ar
   126   116   114   ar
   127   138   140   ar
   128   113   110   ar
   129   139   140   ar
   130   114   112   ar
   131    56    57    1
   132   127   128    1
   133   127   129    1
   134    30    31    1
   135    30    29    1
   136    46    47    2
   137   110   112   ar
   138   110   108   ar
   139   112   111   ar
   140    31    32    2
   141    48    47    1
   142   108   107    1
   143   108   109   ar
   144   128   130    1
   145   111   109   ar
   146    47    49    1
   147    20    19    2
   148    29    25   am
   149    57    58    2
   150    26    25    2
   151    21    22    1
   152    21    18    1
   153    25    24    1
   154    19    18    1
   155    19    23   am
   156    59    58    1
   157    58    60    1
   158    18    17    1
   159    27    24    1
   160    27    28    1
   161    24    23    1
   162    16    14   ar
   163    13    14    1
   164    13    10    1
   165    14    15   ar
   166    12    11    2
   167    11    10    1
   168    10     9    1
