@<TRIPOS>MOLECULE
tmp/5hmxA00.pdb
 167 164 0 0 0
SMALL
GASTEIGER

@<TRIPOS>ATOM
      1  N         19.4240   55.6120    6.1250 N.3   213  LEU213     -0.1245
      2  CA        18.0140   55.7990    6.4380 C.3   213  LEU213      0.1561
      3  C         17.0820   55.1050    5.4530 C.2   213  LEU213      0.2260
      4  O         16.1440   54.4520    5.8950 O.2   213  LEU213     -0.2867
      5  CB        17.6950   57.3060    6.5190 C.3   213  LEU213      0.0270
      6  CG        16.2720   57.6840    6.8930 C.3   213  LEU213      0.0019
      7  CD1       16.0210   57.4550    8.3950 C.3   213  LEU213      0.0001
      8  CD2       15.9320   59.1100    6.4450 C.3   213  LEU213      0.0001
      9  N         19.1620   53.0280   20.2540 N.3   366  ASP366     -0.1239
     10  CA        17.9550   52.6250   19.5410 C.3   366  ASP366      0.1674
     11  C         17.9880   51.1480   19.2350 C.2   366  ASP366      0.2266
     12  O         18.9500   50.6520   18.6700 O.2   366  ASP366     -0.2867
     13  CB        17.7720   53.4340   18.2510 C.3   366  ASP366      0.1410
     14  CG        16.9900   54.7170   18.4210 C.2   366  ASP366      0.3668
     15  OD1       17.6180   55.7920   18.4180 O.co2 366  ASP366     -0.2456
     16  OD2       15.7370   54.6460   18.5080 O.co2 366  ASP366     -0.2456
     17  N         15.0740   55.1140   15.2130 N.3   411  CYS411     -0.1221
     18  CA        15.9310   56.2180   14.7700 C.3   411  CYS411      0.1808
     19  C         15.1350   57.4860   14.3920 C.2   411  CYS411      0.2602
     20  O         15.3800   58.0700   13.3410 O.2   411  CYS411     -0.2717
     21  CB        16.8580   55.7730   13.6380 C.3   411  CYS411      0.0970
     22  SG        17.9950   54.4250   14.0660 S.3   411  CYS411     -0.0800
     23  N         14.1840   57.9080   15.2610 N.am  412  SER412     -0.1938
     24  CA        13.3060   59.0990   15.1190 C.3   412  SER412      0.2055
     25  C         12.3880   58.9730   13.9040 C.2   412  SER412      0.2643
     26  O         11.8730   59.9740   13.3950 O.2   412  SER412     -0.2714
     27  CB        14.1320   60.3880   15.0370 C.3   412  SER412      0.2130
     28  OG        14.9040   60.6260   16.2030 O.3   412  SER412     -0.2179
     29  N         12.1940   57.7360   13.4260 N.am  413  HIS413     -0.1973
     30  CA        11.4190   57.4990   12.2260 C.3   413  HIS413      0.1656
     31  C         10.4910   56.2880   12.3500 C.2   413  HIS413      0.2291
     32  O         10.6430   55.4680   13.2580 O.2   413  HIS413     -0.2864
     33  CB        12.4020   57.2580   11.0460 C.3   413  HIS413      0.0771
     34  CG        13.0570   58.4820   10.4940 C.ar  413  HIS413      0.0820
     35  ND1       14.2080   58.9970   11.0520 N.ar  413  HIS413     -0.2267
     36  CD2       12.7250   59.2250    9.4170 C.ar  413  HIS413      0.1154
     37  CE1       14.5380   60.0440   10.3170 C.ar  413  HIS413      0.1986
     38  NE2       13.6690   60.2230    9.3190 N.ar  413  HIS413     -0.2212
     39  N          8.5860   60.6260    9.4810 N.3   431  ARG431     -0.1245
     40  CA         8.5720   61.2180   10.8050 C.3   431  ARG431      0.1563
     41  C          7.5550   62.3680   10.7860 C.2   431  ARG431      0.2260
     42  O          7.1260   62.7340    9.6890 O.2   431  ARG431     -0.2867
     43  CB         9.9740   61.6720   11.2260 C.3   431  ARG431      0.0307
     44  CG        10.5310   62.8570   10.4670 C.3   431  ARG431      0.0489
     45  CD        11.9690   63.0520   10.8530 C.3   431  ARG431      0.2205
     46  NE        12.0910   63.4520   12.2480 N.pl3 431  ARG431     -0.0865
     47  CZ        13.2450   63.6230   12.8790 C.cat 431  ARG431      0.5346
     48  NH1       14.3940   63.4290   12.2420 N.pl3 431  ARG431      0.1354
     49  NH2       13.2620   63.9880   14.1500 N.pl3 431  ARG431      0.1354
     50  N         10.5240   68.0250   10.3490 N.3   436  LEU436     -0.1245
     51  CA        11.2780   68.1790    9.0990 C.3   436  LEU436      0.1561
     52  C         11.3620   69.6490    8.6630 C.2   436  LEU436      0.2260
     53  O         12.4640   70.1670    8.4850 O.2   436  LEU436     -0.2867
     54  CB        10.6690   67.2900    8.0000 C.3   436  LEU436      0.0270
     55  CG        10.8820   65.7900    8.2100 C.3   436  LEU436      0.0019
     56  CD1        9.9020   64.9570    7.3730 C.3   436  LEU436      0.0001
     57  CD2       12.2960   65.3950    7.9120 C.3   436  LEU436      0.0001
     58  N         13.1990   71.8760   11.3030 N.3   439  ARG439     -0.1245
     59  CA        14.6550   71.7260   11.1960 C.3   439  ARG439      0.1563
     60  C         15.2040   72.4490    9.9560 C.2   439  ARG439      0.2260
     61  O         16.2320   73.1240   10.0760 O.2   439  ARG439     -0.2867
     62  CB        15.0940   70.2440   11.2490 C.3   439  ARG439      0.0307
     63  CG        16.6080   69.9470   11.0440 C.3   439  ARG439      0.0489
     64  CD        17.5410   70.5020   12.1120 C.3   439  ARG439      0.2205
     65  NE        17.1340   70.1200   13.4670 N.pl3 439  ARG439     -0.0865
     66  CZ        17.2880   70.8880   14.5420 C.cat 439  ARG439      0.5346
     67  NH1       17.8480   72.0890   14.4350 N.pl3 439  ARG439      0.1354
     68  NH2       16.8840   70.4630   15.7330 N.pl3 439  ARG439      0.1354
     69  N         17.2990   66.7210    0.0760 N.3   463  MET463     -0.1245
     70  CA        17.1790   65.6270    1.0580 C.3   463  MET463      0.1570
     71  C         15.7290   65.1340    1.0730 C.2   463  MET463      0.2261
     72  O         15.4780   63.9240    1.0520 O.2   463  MET463     -0.2867
     73  CB        17.5810   66.0970    2.4670 C.3   463  MET463      0.0387
     74  CG        17.3680   65.0390    3.5310 C.3   463  MET463      0.0595
     75  SD        17.9770   65.5490    5.1260 S.3   463  MET463     -0.1393
     76  CE        16.6550   66.6450    5.6450 C.3   463  MET463      0.0692
     77  N         14.6070   61.3520    0.3730 N.3   467  MET467     -0.1230
     78  CA        14.1000   60.5780    1.5140 C.3   467  MET467      0.1702
     79  C         12.6280   60.7680    1.8120 C.2   467  MET467      0.2592
     80  O         11.9910   59.8020    2.2090 O.2   467  MET467     -0.2718
     81  CB        14.9380   60.8550    2.7760 C.3   467  MET467      0.0401
     82  CG        16.4330   60.4920    2.6400 C.3   467  MET467      0.0596
     83  SD        16.6360   58.7110    2.4310 S.3   467  MET467     -0.1393
     84  CE        17.9950   58.6590    1.3850 C.3   467  MET467      0.0692
     85  N         12.0720   61.9900    1.6230 N.am  468  TYR468     -0.1976
     86  CA        10.6870   62.3050    2.0010 C.3   468  TYR468      0.1639
     87  C          9.7720   62.8290    0.8580 C.2   468  TYR468      0.2290
     88  O          8.7670   63.4870    1.1270 O.2   468  TYR468     -0.2864
     89  CB        10.6810   63.2900    3.1840 C.3   468  TYR468      0.0560
     90  CG        11.6760   62.9770    4.2890 C.ar  468  TYR468     -0.0198
     91  CD1       12.8690   63.6880    4.4030 C.ar  468  TYR468     -0.0009
     92  CD2       11.4140   61.9870    5.2350 C.ar  468  TYR468     -0.0009
     93  CE1       13.8010   63.3860    5.4000 C.ar  468  TYR468      0.0417
     94  CE2       12.3160   61.7170    6.2730 C.ar  468  TYR468      0.0417
     95  CZ        13.5120   62.4120    6.3440 C.ar  468  TYR468      0.1957
     96  OH        14.4070   62.1470    7.3510 O.3   468  TYR468     -0.2866
     97  N         22.7250   69.0870    6.2830 N.3   495  THR495     -0.1203
     98  CA        21.3300   69.1580    6.7290 C.3   495  THR495      0.1994
     99  C         21.2090   68.4130    8.0710 C.2   495  THR495      0.2619
    100  O         20.2920   68.6820    8.8620 O.2   495  THR495     -0.2717
    101  CB        20.4260   68.4360    5.7200 C.3   495  THR495      0.1784
    102  OG1       20.8390   67.0710    5.6200 O.3   495  THR495     -0.2211
    103  CG2       20.4410   69.0790    4.3600 C.3   495  THR495      0.0376
    104  N         22.1260   67.4320    8.2840 N.am  496  THR496     -0.1938
    105  CA        22.1580   66.5330    9.4320 C.3   496  THR496      0.2028
    106  C         23.5600   65.9890    9.7450 C.2   496  THR496      0.2642
    107  O         24.4150   65.8950    8.8600 O.2   496  THR496     -0.2714
    108  CB        21.1170   65.3960    9.2220 C.3   496  THR496      0.1808
    109  OG1       21.0870   64.5510   10.3590 O.3   496  THR496     -0.2208
    110  CG2       21.3620   64.5700    7.9660 C.3   496  THR496      0.0379
    111  N         23.7610   65.6080   11.0140 N.am  497  TRP497     -0.1959
    112  CA        24.9750   64.9810   11.5380 C.3   497  TRP497      0.1771
    113  C         24.7240   63.4850   11.7750 C.2   497  TRP497      0.2620
    114  O         25.5710   62.7970   12.3470 O.2   497  TRP497     -0.2715
    115  CB        25.3850   65.6450   12.8620 C.3   497  TRP497      0.0590
    116  CG        26.1160   66.9420   12.7060 C.ar  497  TRP497      0.0006
    117  CD1       25.6140   68.1980   12.8970 C.ar  497  TRP497      0.0946
    118  CD2       27.4970   67.1070   12.3570 C.ar  497  TRP497      0.0152
    119  NE1       26.6000   69.1400   12.6900 N.ar  497  TRP497     -0.2442
    120  CE2       27.7690   68.4960   12.3640 C.ar  497  TRP497      0.0810
    121  CE3       28.5400   66.2120   12.0470 C.ar  497  TRP497      0.0012
    122  CZ2       29.0410   69.0110   12.0740 C.ar  497  TRP497      0.0191
    123  CZ3       29.7960   66.7220   11.7440 C.ar  497  TRP497      0.0001
    124  CH2       30.0380   68.1050   11.7610 C.ar  497  TRP497      0.0015
    125  N         23.5490   62.9940   11.3470 N.am  498  SER498     -0.1936
    126  CA        23.0920   61.6170   11.5190 C.3   498  SER498      0.2055
    127  C         23.9870   60.6110   10.8250 C.2   498  SER498      0.2643
    128  O         24.3300   60.8030    9.6510 O.2   498  SER498     -0.2714
    129  CB        21.6640   61.4720   11.0050 C.3   498  SER498      0.2130
    130  OG        21.3070   60.1150   10.8070 O.3   498  SER498     -0.2179
    131  N         24.3080   59.4960   11.5290 N.am  499  ILE499     -0.1963
    132  CA        25.1200   58.4210   10.9470 C.3   499  ILE499      0.1727
    133  C         24.3750   57.7380    9.8040 C.2   499  ILE499      0.2616
    134  O         25.0260   57.1310    8.9560 O.2   499  ILE499     -0.2715
    135  CB        25.7220   57.3870   11.9600 C.3   499  ILE499      0.0290
    136  CG1       24.6820   56.3140   12.4110 C.3   499  ILE499      0.0022
    137  CG2       26.4280   58.0650   13.1550 C.3   499  ILE499      0.0023
    138  CD1       23.5950   56.7560   13.3390 C.3   499  ILE499      0.0001
    139  N         23.0260   57.8600    9.7660 N.am  500  HIS500     -0.1959
    140  CA        22.1700   57.2710    8.7310 C.3   500  HIS500      0.1787
    141  C         22.1140   58.1110    7.4430 C.2   500  HIS500      0.2620
    142  O         21.5410   57.6610    6.4400 O.2   500  HIS500     -0.2715
    143  CB        20.7600   56.9880    9.2800 C.3   500  HIS500      0.0785
    144  CG        20.7530   56.2620   10.5850 C.ar  500  HIS500      0.0821
    145  ND1       21.3120   55.0010   10.7170 N.ar  500  HIS500     -0.2267
    146  CD2       20.2680   56.6490   11.7840 C.ar  500  HIS500      0.1154
    147  CE1       21.1610   54.6710   11.9850 C.ar  500  HIS500      0.1986
    148  NE2       20.5320   55.6270   12.6670 N.ar  500  HIS500     -0.2212
    149  N         22.6970   59.3280    7.4800 N.am  501  ALA501     -0.1977
    150  CA        22.7460   60.2670    6.3490 C.3   501  ALA501      0.1597
    151  C         23.9610   59.9790    5.4730 C.2   501  ALA501      0.2287
    152  O         25.0930   59.8780    5.9760 O.2   501  ALA501     -0.2864
    153  CB        22.7980   61.7050    6.8440 C.3   501  ALA501      0.0319
    154  N         21.9990   64.0540   -1.6050 N.3   505  TRP505     -0.1241
    155  CA        21.3700   65.3220   -1.9860 C.3   505  TRP505      0.1605
    156  C         22.3770   66.4730   -2.1220 C.2   505  TRP505      0.2264
    157  O         22.0270   67.5380   -2.6330 O.2   505  TRP505     -0.2867
    158  CB        20.2950   65.7030   -0.9670 C.3   505  TRP505      0.0550
    159  CG        20.7350   65.6480    0.4640 C.ar  505  TRP505      0.0003
    160  CD1       21.2920   66.6550    1.1930 C.ar  505  TRP505      0.0946
    161  CD2       20.6140   64.5270    1.3490 C.ar  505  TRP505      0.0152
    162  NE1       21.5480   66.2260    2.4720 N.ar  505  TRP505     -0.2442
    163  CE2       21.1350   64.9240    2.5990 C.ar  505  TRP505      0.0810
    164  CE3       20.1110   63.2200    1.2060 C.ar  505  TRP505      0.0012
    165  CZ2       21.1950   64.0530    3.6950 C.ar  505  TRP505      0.0191
    166  CZ3       20.1900   62.3550    2.2800 C.ar  505  TRP505      0.0001
    167  CH2       20.7170   62.7750    3.5130 C.ar  505  TRP505      0.0015
@<TRIPOS>BOND
     1   157   156    2
     2   156   155    1
     3   155   154    1
     4   155   158    1
     5   158   159    1
     6    69    70    1
     7    77    78    1
     8   159   160   ar
     9   159   161   ar
    10    87    88    2
    11    87    86    1
    12    72    71    2
    13    70    71    1
    14    70    73    1
    15   160   162   ar
    16   164   161   ar
    17   164   166   ar
    18   161   163   ar
    19    84    83    1
    20    78    79    1
    21    78    81    1
    22    85    79   am
    23    85    86    1
    24    79    80    2
    25    86    89    1
    26   166   167   ar
    27    83    82    1
    28    73    74    1
    29   162   163   ar
    30   163   165   ar
    31    82    81    1
    32    89    90    1
    33   167   165   ar
    34    74    75    1
    35    90    91   ar
    36    90    92   ar
    37   103   101    1
    38    91    93   ar
    39    75    76    1
    40    92    94   ar
    41    93    95   ar
    42     3     4    2
    43     3     2    1
    44   151   152    2
    45   151   150    1
    46   102   101    1
    47   101    98    1
    48     1     2    1
    49    94    95   ar
    50    97    98    1
    51    95    96    1
    52   150   153    1
    53   150   149    1
    54     2     5    1
    55   142   141    2
    56     8     6    1
    57     5     6    1
    58    98    99    1
    59     6     7    1
    60    56    55    1
    61   141   149   am
    62   141   140    1
    63    57    55    1
    64   110   108    1
    65    54    55    1
    66    54    51    1
    67    99   104   am
    68    99   100    2
    69   104   105    1
    70    53    52    2
    71    52    51    1
    72   140   143    1
    73   140   139    1
    74   107   106    2
    75   134   133    2
    76    51    50    1
    77   108   105    1
    78   108   109    1
    79   143   144    1
    80    38    36   ar
    81    38    37   ar
    82    36    34   ar
    83   105   106    1
    84    39    40    1
    85   128   127    2
    86    42    41    2
    87   106   111   am
    88   139   133   am
    89   133   132    1
    90    60    61    2
    91    60    59    1
    92    37    35   ar
    93    44    45    1
    94    44    43    1
    95    34    33    1
    96    34    35   ar
    97   144   145   ar
    98   144   146   ar
    99   145   147   ar
   100    41    40    1
   101    40    43    1
   102   130   129    1
   103   127   126    1
   104   127   131   am
   105    45    46    1
   106   132   131    1
   107   132   135    1
   108   129   126    1
   109   111   112    1
   110    63    62    1
   111    63    64    1
   112    33    30    1
   113    59    62    1
   114    59    58    1
   115   125   126    1
   116   125   113   am
   117   112   113    1
   118   112   115    1
   119   123   124   ar
   120   123   121   ar
   121   124   122   ar
   122   113   114    2
   123   146   148   ar
   124   135   136    1
   125   135   137    1
   126   147   148   ar
   127   121   118   ar
   128   122   120   ar
   129    64    65    1
   130    30    31    1
   131    30    29    1
   132    48    47    1
   133    46    47    2
   134    31    32    2
   135   118   120   ar
   136   118   116   ar
   137   120   119   ar
   138   136   138    1
   139   119   117   ar
   140   116   115    1
   141   116   117   ar
   142    47    49    1
   143    20    19    2
   144    26    25    2
   145    29    25   am
   146    65    66    2
   147    21    22    1
   148    21    18    1
   149    25    24    1
   150    19    18    1
   151    19    23   am
   152    67    66    1
   153    66    68    1
   154    18    17    1
   155    27    24    1
   156    27    28    1
   157    24    23    1
   158    13    14    1
   159    13    10    1
   160    15    14   ar
   161    14    16   ar
   162    12    11    2
   163    11    10    1
   164    10     9    1
