@<TRIPOS>MOLECULE
tmp/5hmxA01.pdb
 96 90 0 0 0
SMALL
GASTEIGER

@<TRIPOS>ATOM
      1  N          3.5530   65.0870    0.4680 N.3   472  ARG472     -0.1245
      2  CA         3.0160   66.0500   -0.5140 C.3   472  ARG472      0.1563
      3  C          3.4730   67.4780   -0.2970 C.2   472  ARG472      0.2260
      4  O          3.8750   68.1340   -1.2550 O.2   472  ARG472     -0.2867
      5  CB         1.4940   66.0000   -0.5460 C.3   472  ARG472      0.0307
      6  CG         0.8760   64.8580   -1.3140 C.3   472  ARG472      0.0489
      7  CD        -0.5870   64.6640   -0.9110 C.3   472  ARG472      0.2205
      8  NE        -1.1620   63.4690   -1.5220 N.pl3 472  ARG472     -0.0865
      9  CZ        -1.0660   62.2420   -1.0160 C.cat 472  ARG472      0.5346
     10  NH1       -0.4230   62.0370    0.1280 N.pl3 472  ARG472      0.1354
     11  NH2       -1.5950   61.2080   -1.6610 N.pl3 472  ARG472      0.1354
     12  N          6.2490   69.6150   -2.8690 N.3   476  LEU476     -0.1245
     13  CA         5.9160   70.9820   -3.2710 C.3   476  LEU476      0.1561
     14  C          6.9470   71.9840   -2.7550 C.2   476  LEU476      0.2260
     15  O          7.5260   72.7040   -3.5690 O.2   476  LEU476     -0.2867
     16  CB         4.5040   71.3660   -2.7970 C.3   476  LEU476      0.0270
     17  CG         3.8220   72.5650   -3.4900 C.3   476  LEU476      0.0019
     18  CD1        2.3610   72.5590   -3.2070 C.3   476  LEU476      0.0001
     19  CD2        4.3520   73.9030   -2.9770 C.3   476  LEU476      0.0001
     20  N          3.4730   58.7830   -3.3580 N.3   540  TYR540     -0.1241
     21  CA         3.1660   59.5160   -2.1540 C.3   540  TYR540      0.1605
     22  C          2.6270   58.4990   -1.1810 C.2   540  TYR540      0.2264
     23  O          2.1540   57.4300   -1.6000 O.2   540  TYR540     -0.2867
     24  CB         2.0380   60.5210   -2.4280 C.3   540  TYR540      0.0534
     25  CG         2.4610   61.7410   -3.1960 C.ar  540  TYR540     -0.0201
     26  CD1        1.9550   61.9980   -4.4680 C.ar  540  TYR540     -0.0009
     27  CD2        3.3560   62.6590   -2.6490 C.ar  540  TYR540     -0.0009
     28  CE1        2.3280   63.1430   -5.1770 C.ar  540  TYR540      0.0417
     29  CE2        3.7290   63.8070   -3.3430 C.ar  540  TYR540      0.0417
     30  CZ         3.2030   64.0500   -4.6050 C.ar  540  TYR540      0.1957
     31  OH         3.5900   65.1690   -5.3040 O.3   540  TYR540     -0.2866
     32  N         -3.1980   59.7070    1.2210 N.3   543  LYS543     -0.1245
     33  CA        -3.6760   60.9770    1.8080 C.3   543  LYS543      0.1561
     34  C         -3.8630   60.9040    3.3320 C.2   543  LYS543      0.2260
     35  O         -3.4140   61.8050    4.0430 O.2   543  LYS543     -0.2867
     36  CB        -4.9850   61.4560    1.1370 C.3   543  LYS543      0.0271
     37  CG        -4.7710   62.4860    0.0270 C.3   543  LYS543      0.0035
     38  CD        -6.0110   62.7170   -0.8470 C.3   543  LYS543      0.0206
     39  CE        -6.9850   63.7340   -0.2830 C.3   543  LYS543      0.1093
     40  NZ        -8.0690   64.0580   -1.2530 N.3   543  LYS543     -0.1314
     41  N         -2.4850   68.9580    4.2020 N.3   553  ILE553     -0.1231
     42  CA        -3.3060   68.6040    3.0390 C.3   553  ILE553      0.1692
     43  C         -4.7810   68.6330    3.4040 C.2   553  ILE553      0.2592
     44  O         -5.1560   68.1080    4.4510 O.2   553  ILE553     -0.2718
     45  CB        -2.8030   67.2550    2.4270 C.3   553  ILE553      0.0266
     46  CG1       -2.6350   67.3660    0.9540 C.3   553  ILE553      0.0019
     47  CG2       -3.5680   66.0030    2.7830 C.3   553  ILE553      0.0020
     48  CD1       -1.3360   67.7290    0.6210 C.3   553  ILE553      0.0001
     49  N         -5.5820   69.3180    2.5930 N.am  554  GLY554     -0.1957
     50  CA        -7.0110   69.4690    2.8510 C.3   554  GLY554      0.1869
     51  C         -7.3690   70.7480    3.5880 C.2   554  GLY554      0.2309
     52  O         -8.5540   71.0370    3.7510 O.2   554  GLY554     -0.2863
     53  N         -3.0270   75.8790    3.2860 N.3   558  ARG558     -0.1231
     54  CA        -2.1500   75.0460    2.4800 C.3   558  ARG558      0.1694
     55  C         -2.5060   75.1560    0.9790 C.2   558  ARG558      0.2591
     56  O         -1.5990   75.3040    0.1570 O.2   558  ARG558     -0.2718
     57  CB        -2.1750   73.5950    2.9790 C.3   558  ARG558      0.0321
     58  CG        -1.0710   72.7170    2.4090 C.3   558  ARG558      0.0489
     59  CD        -1.5430   71.9370    1.1910 C.3   558  ARG558      0.2205
     60  NE        -0.5040   71.0200    0.7420 N.pl3 558  ARG558     -0.0865
     61  CZ        -0.2900   70.6700   -0.5190 C.cat 558  ARG558      0.5346
     62  NH1       -1.0560   71.1570   -1.4920 N.pl3 558  ARG558      0.1354
     63  NH2        0.6760   69.8160   -0.8190 N.pl3 558  ARG558      0.1354
     64  N         -3.8110   75.1160    0.6340 N.am  559  ALA559     -0.1980
     65  CA        -4.2800   75.2550   -0.7530 C.3   559  ALA559      0.1597
     66  C         -3.9450   76.6570   -1.2940 C.2   559  ALA559      0.2287
     67  O         -3.5640   76.7850   -2.4500 O.2   559  ALA559     -0.2864
     68  CB        -5.7740   74.9980   -0.8360 C.3   559  ALA559      0.0319
     69  N          5.5580   68.7590  -11.3170 N.3   588  MET588     -0.1230
     70  CA         4.3930   68.4390  -10.4910 C.3   588  MET588      0.1702
     71  C          3.0760   68.6120  -11.2690 C.2   588  MET588      0.2592
     72  O          3.0280   69.3350  -12.2670 O.2   588  MET588     -0.2718
     73  CB         4.3910   69.2740   -9.2000 C.3   588  MET588      0.0401
     74  CG         5.6210   69.0630   -8.3620 C.3   588  MET588      0.0596
     75  SD         5.4950   69.8120   -6.7360 S.3   588  MET588     -0.1393
     76  CE         4.7060   68.4880   -5.8310 C.3   588  MET588      0.0692
     77  N          2.0170   67.9440  -10.7850 N.am  589  LYS589     -0.1966
     78  CA         0.6500   67.8700  -11.3240 C.3   589  LYS589      0.1728
     79  C          0.0020   69.2260  -11.6660 C.2   589  LYS589      0.2616
     80  O         -0.7990   69.2910  -12.6100 O.2   589  LYS589     -0.2715
     81  CB        -0.2570   67.0800  -10.3550 C.3   589  LYS589      0.0311
     82  CG         0.2680   65.6820   -9.9800 C.3   589  LYS589      0.0038
     83  CD         0.6350   65.5370   -8.4800 C.3   589  LYS589      0.0206
     84  CE         1.9780   66.1190   -8.0590 C.3   589  LYS589      0.1093
     85  NZ         3.1350   65.3780   -8.6340 N.3   589  LYS589     -0.1314
     86  N          0.3360   70.2890  -10.8840 N.am  590  ARG590     -0.1977
     87  CA        -0.1710   71.6600  -11.0230 C.3   590  ARG590      0.1597
     88  C          0.0640   72.2420  -12.4140 C.2   590  ARG590      0.2287
     89  O         -0.8530   72.2400  -13.2340 O.2   590  ARG590     -0.2864
     90  CB         0.4360   72.5800   -9.9490 C.3   590  ARG590      0.0334
     91  CG        -0.3810   72.6710   -8.6620 C.3   590  ARG590      0.0492
     92  CD         0.1700   71.7860   -7.5570 C.3   590  ARG590      0.2205
     93  NE        -0.5270   71.9910   -6.2860 N.pl3 590  ARG590     -0.0865
     94  CZ        -1.6100   71.3210   -5.8990 C.cat 590  ARG590      0.5346
     95  NH1       -2.1390   70.3880   -6.6830 N.pl3 590  ARG590      0.1354
     96  NH2       -2.1730   71.5790   -4.7270 N.pl3 590  ARG590      0.1354
@<TRIPOS>BOND
     1    89    88    2
     2    80    79    2
     3    88    87    1
     4    72    71    2
     5    79    78    1
     6    79    86   am
     7    78    77    1
     8    78    81    1
     9    69    70    1
    10    71    77   am
    11    71    70    1
    12    87    86    1
    13    87    90    1
    14    70    73    1
    15    81    82    1
    16    82    83    1
    17    90    91    1
    18    73    74    1
    19    91    92    1
    20    85    84    1
    21    83    84    1
    22    74    75    1
    23    92    93    1
    24    75    76    1
    25    95    94    1
    26    93    94    2
    27    94    96    1
    28    31    30    1
    29    28    30   ar
    30    28    26   ar
    31    30    29   ar
    32    26    25   ar
    33    15    14    2
    34    17    18    1
    35    17    19    1
    36    17    16    1
    37    20    21    1
    38    29    27   ar
    39    13    12    1
    40    13    16    1
    41    13    14    1
    42    25    27   ar
    43    25    24    1
    44    67    66    2
    45    24    21    1
    46    21    22    1
    47    11     9    1
    48    23    22    2
    49     8     9    2
    50     8     7    1
    51    62    61    1
    52     6     7    1
    53     6     5    1
    54    66    65    1
    55     4     3    2
    56    40    39    1
    57     9    10    1
    58    38    39    1
    59    38    37    1
    60    68    65    1
    61    63    61    1
    62    65    64    1
    63     5     2    1
    64    61    60    2
    65     2     3    1
    66     2     1    1
    67    37    36    1
    68    56    55    2
    69    48    46    1
    70    64    55   am
    71    60    59    1
    72    46    45    1
    73    55    54    1
    74    36    33    1
    75    59    58    1
    76    32    33    1
    77    33    34    1
    78    58    57    1
    79    45    47    1
    80    45    42    1
    81    54    57    1
    82    54    53    1
    83    49    50    1
    84    49    43   am
    85    50    51    1
    86    42    43    1
    87    42    41    1
    88    34    35    2
    89    43    44    2
    90    51    52    2
