@<TRIPOS>MOLECULE
tmp/5hmyA00.pdb
 188 188 0 0 0
SMALL
GASTEIGER

@<TRIPOS>ATOM
      1  N         19.4670   55.9450    6.1520 N.3   213  LEU213     -0.1231
      2  CA        18.0360   56.1000    6.4750 C.3   213  LEU213      0.1693
      3  C         17.1180   55.4170    5.4500 C.2   213  LEU213      0.2592
      4  O         16.0850   54.8540    5.8310 O.2   213  LEU213     -0.2718
      5  CB        17.6840   57.6010    6.5640 C.3   213  LEU213      0.0284
      6  CG        16.2330   57.9540    6.9540 C.3   213  LEU213      0.0019
      7  CD1       15.9360   57.5610    8.4230 C.3   213  LEU213      0.0001
      8  CD2       15.9430   59.4420    6.7140 C.3   213  LEU213      0.0001
      9  N         17.5120   55.4340    4.1580 N.am  214  HIS214     -0.1976
     10  CA        16.7400   54.8500    3.0440 C.3   214  HIS214      0.1656
     11  C         16.6680   53.3150    3.0940 C.2   214  HIS214      0.2291
     12  O         15.8280   52.7230    2.4160 O.2   214  HIS214     -0.2864
     13  CB        17.2790   55.3530    1.6890 C.3   214  HIS214      0.0771
     14  CG        18.7390   55.0750    1.4940 C.ar  214  HIS214      0.0820
     15  ND1       19.7070   55.7260    2.2540 N.ar  214  HIS214     -0.2267
     16  CD2       19.3500   54.2150    0.6480 C.ar  214  HIS214      0.1154
     17  CE1       20.8670   55.2430    1.8460 C.ar  214  HIS214      0.1986
     18  NE2       20.7040   54.3380    0.8710 N.ar  214  HIS214     -0.2212
     19  N         15.1570   55.5590   15.2690 N.3   411  CYS411     -0.1221
     20  CA        16.0460   56.6360   14.8180 C.3   411  CYS411      0.1808
     21  C         15.2630   57.9140   14.4190 C.2   411  CYS411      0.2602
     22  O         15.5080   58.5030   13.3670 O.2   411  CYS411     -0.2717
     23  CB        16.9750   56.1510   13.6990 C.3   411  CYS411      0.0970
     24  SG        18.0650   54.7690   14.1700 S.3   411  CYS411     -0.0800
     25  N         14.2920   58.3010   15.2590 N.am  412  SER412     -0.1938
     26  CA        13.4360   59.4910   15.1120 C.3   412  SER412      0.2055
     27  C         12.4700   59.4040   13.9280 C.2   412  SER412      0.2643
     28  O         11.8320   60.3970   13.5730 O.2   412  SER412     -0.2714
     29  CB        14.2880   60.7560   15.0120 C.3   412  SER412      0.2130
     30  OG        15.0380   60.9050   16.2020 O.3   412  SER412     -0.2179
     31  N         12.3120   58.2030   13.3690 N.am  413  HIS413     -0.1973
     32  CA        11.4440   57.9960   12.2180 C.3   413  HIS413      0.1656
     33  C         10.5090   56.7960   12.4140 C.2   413  HIS413      0.2291
     34  O         10.6690   56.0000   13.3450 O.2   413  HIS413     -0.2864
     35  CB        12.3470   57.7200   10.9770 C.3   413  HIS413      0.0771
     36  CG        13.0310   58.9340   10.4370 C.ar  413  HIS413      0.0820
     37  ND1       14.2050   59.4210   11.0020 N.ar  413  HIS413     -0.2267
     38  CD2       12.6770   59.7310    9.4020 C.ar  413  HIS413      0.1154
     39  CE1       14.5280   60.4880   10.2980 C.ar  413  HIS413      0.1986
     40  NE2       13.6270   60.7200    9.3280 N.ar  413  HIS413     -0.2212
     41  N          8.5090   61.0740    9.4180 N.3   431  ARG431     -0.1245
     42  CA         8.4450   61.6350   10.7660 C.3   431  ARG431      0.1563
     43  C          7.4040   62.7810   10.7510 C.2   431  ARG431      0.2260
     44  O          6.9860   63.1740    9.6450 O.2   431  ARG431     -0.2867
     45  CB         9.8510   62.0680   11.2680 C.3   431  ARG431      0.0307
     46  CG        10.4260   63.3110   10.5970 C.3   431  ARG431      0.0489
     47  CD        11.8720   63.5190   10.9500 C.3   431  ARG431      0.2205
     48  NE        12.0220   63.8990   12.3500 N.pl3 431  ARG431     -0.0865
     49  CZ        13.1750   63.9480   13.0020 C.cat 431  ARG431      0.5346
     50  NH1       14.3110   63.6550   12.3820 N.pl3 431  ARG431      0.1354
     51  NH2       13.2040   64.2990   14.2760 N.pl3 431  ARG431      0.1354
     52  N         10.3450   68.3250   10.3120 N.3   436  LEU436     -0.1245
     53  CA        11.1250   68.4940    9.0660 C.3   436  LEU436      0.1561
     54  C         11.1800   69.9630    8.6570 C.2   436  LEU436      0.2260
     55  O         12.2660   70.4850    8.4290 O.2   436  LEU436     -0.2867
     56  CB        10.5730   67.5990    7.9480 C.3   436  LEU436      0.0270
     57  CG        10.8050   66.0980    8.1840 C.3   436  LEU436      0.0019
     58  CD1        9.8310   65.2580    7.3800 C.3   436  LEU436      0.0001
     59  CD2       12.2570   65.7050    7.9490 C.3   436  LEU436      0.0001
     60  N         13.1580   72.1420   11.3150 N.3   439  ARG439     -0.1245
     61  CA        14.6040   72.0160   11.1860 C.3   439  ARG439      0.1563
     62  C         15.1380   72.8070    9.9850 C.2   439  ARG439      0.2260
     63  O         16.0950   73.5730   10.1390 O.2   439  ARG439     -0.2867
     64  CB        15.0350   70.5280   11.1360 C.3   439  ARG439      0.0307
     65  CG        16.5620   70.2790   10.9780 C.3   439  ARG439      0.0489
     66  CD        17.4460   70.8980   12.0590 C.3   439  ARG439      0.2205
     67  NE        17.0160   70.5270   13.4120 N.pl3 439  ARG439     -0.0865
     68  CZ        17.2620   71.2450   14.5060 C.cat 439  ARG439      0.5346
     69  NH1       17.9360   72.3860   14.4230 N.pl3 439  ARG439      0.1354
     70  NH2       16.8340   70.8270   15.6910 N.pl3 439  ARG439      0.1354
     71  N         17.3160   67.2710    0.1030 N.3   463  MET463     -0.1245
     72  CA        17.1940   66.1420    1.0550 C.3   463  MET463      0.1570
     73  C         15.7380   65.6490    1.0680 C.2   463  MET463      0.2261
     74  O         15.5060   64.4330    0.9950 O.2   463  MET463     -0.2867
     75  CB        17.6600   66.5250    2.4710 C.3   463  MET463      0.0387
     76  CG        17.5050   65.3800    3.4850 C.3   463  MET463      0.0595
     77  SD        18.0110   65.8670    5.1370 S.3   463  MET463     -0.1393
     78  CE        16.5490   66.8340    5.6400 C.3   463  MET463      0.0692
     79  N         14.5020   61.8270    0.3450 N.3   467  MET467     -0.1230
     80  CA        14.0210   61.0140    1.4700 C.3   467  MET467      0.1702
     81  C         12.5560   61.1840    1.7950 C.2   467  MET467      0.2592
     82  O         11.9280   60.2240    2.2600 O.2   467  MET467     -0.2718
     83  CB        14.8550   61.3040    2.7390 C.3   467  MET467      0.0401
     84  CG        16.3690   61.0100    2.5920 C.3   467  MET467      0.0596
     85  SD        16.6530   59.2400    2.3730 S.3   467  MET467     -0.1393
     86  CE        17.3350   59.2470    0.7760 C.3   467  MET467      0.0692
     87  N         12.0170   62.4080    1.6010 N.am  468  TYR468     -0.1976
     88  CA        10.6530   62.7510    2.0260 C.3   468  TYR468      0.1639
     89  C          9.7420   63.2820    0.8980 C.2   468  TYR468      0.2290
     90  O          8.7780   63.9920    1.1710 O.2   468  TYR468     -0.2864
     91  CB        10.7240   63.7450    3.2160 C.3   468  TYR468      0.0560
     92  CG        11.7120   63.3640    4.3180 C.ar  468  TYR468     -0.0198
     93  CD1       11.4030   62.3740    5.2540 C.ar  468  TYR468     -0.0009
     94  CD2       12.9450   64.0080    4.4310 C.ar  468  TYR468     -0.0009
     95  CE1       12.2810   62.0670    6.3040 C.ar  468  TYR468      0.0417
     96  CE2       13.8560   63.6650    5.4370 C.ar  468  TYR468      0.0417
     97  CZ        13.5140   62.7050    6.3780 C.ar  468  TYR468      0.1957
     98  OH        14.3980   62.4160    7.3830 O.3   468  TYR468     -0.2866
     99  N         22.7190   69.3860    6.3280 N.3   495  THR495     -0.1203
    100  CA        21.3300   69.4660    6.7770 C.3   495  THR495      0.1994
    101  C         21.1630   68.7050    8.0960 C.2   495  THR495      0.2619
    102  O         20.2010   68.9470    8.8420 O.2   495  THR495     -0.2717
    103  CB        20.4060   68.8560    5.7260 C.3   495  THR495      0.1784
    104  OG1       20.7820   67.4990    5.5060 O.3   495  THR495     -0.2211
    105  CG2       20.4040   69.6360    4.4330 C.3   495  THR495      0.0376
    106  N         22.1070   67.7800    8.3620 N.am  496  THR496     -0.1938
    107  CA        22.1270   66.8870    9.5220 C.3   496  THR496      0.2028
    108  C         23.5290   66.3180    9.7680 C.2   496  THR496      0.2642
    109  O         24.3110   66.1560    8.8320 O.2   496  THR496     -0.2714
    110  CB        21.0820   65.7390    9.3300 C.3   496  THR496      0.1808
    111  OG1       21.1030   64.8910   10.4660 O.3   496  THR496     -0.2208
    112  CG2       21.3360   64.8870    8.0760 C.3   496  THR496      0.0379
    113  N         23.8170   66.0020   11.0310 N.am  497  TRP497     -0.1959
    114  CA        25.0480   65.3540   11.4950 C.3   497  TRP497      0.1771
    115  C         24.7690   63.8590   11.7110 C.2   497  TRP497      0.2620
    116  O         25.6360   63.1310   12.1860 O.2   497  TRP497     -0.2715
    117  CB        25.5220   65.9770   12.8250 C.3   497  TRP497      0.0590
    118  CG        26.2670   67.2610   12.6570 C.ar  497  TRP497      0.0006
    119  CD1       25.7780   68.5220   12.8340 C.ar  497  TRP497      0.0946
    120  CD2       27.6430   67.4110   12.2770 C.ar  497  TRP497      0.0152
    121  NE1       26.7670   69.4530   12.5920 N.ar  497  TRP497     -0.2442
    122  CE2       27.9240   68.7970   12.2540 C.ar  497  TRP497      0.0810
    123  CE3       28.6780   66.5040   11.9780 C.ar  497  TRP497      0.0012
    124  CZ2       29.1940   69.3000   11.9270 C.ar  497  TRP497      0.0191
    125  CZ3       29.9350   67.0010   11.6560 C.ar  497  TRP497      0.0001
    126  CH2       30.1830   68.3840   11.6290 C.ar  497  TRP497      0.0015
    127  N         23.5510   63.4110   11.3750 N.am  498  SER498     -0.1936
    128  CA        23.1210   62.0220   11.5580 C.3   498  SER498      0.2055
    129  C         24.0850   61.0330   10.9130 C.2   498  SER498      0.2643
    130  O         24.4940   61.2430    9.7710 O.2   498  SER498     -0.2714
    131  CB        21.7320   61.8240   10.9570 C.3   498  SER498      0.2130
    132  OG        21.3360   60.4670   11.0290 O.3   498  SER498     -0.2179
    133  N         24.3900   59.9210   11.6130 N.am  499  ILE499     -0.1963
    134  CA        25.2460   58.8760   11.0580 C.3   499  ILE499      0.1727
    135  C         24.5190   58.1550    9.9240 C.2   499  ILE499      0.2616
    136  O         25.1630   57.4990    9.1060 O.2   499  ILE499     -0.2715
    137  CB        25.8520   57.8930   12.1300 C.3   499  ILE499      0.0290
    138  CG1       24.9160   56.6890   12.4340 C.3   499  ILE499      0.0022
    139  CG2       26.3110   58.6200   13.4180 C.3   499  ILE499      0.0023
    140  CD1       23.8720   56.9060   13.4040 C.3   499  ILE499      0.0001
    141  N         23.1650   58.2920    9.8780 N.am  500  HIS500     -0.1959
    142  CA        22.3130   57.6760    8.8690 C.3   500  HIS500      0.1787
    143  C         22.2900   58.4670    7.5650 C.2   500  HIS500      0.2620
    144  O         21.7360   57.9780    6.5920 O.2   500  HIS500     -0.2715
    145  CB        20.8890   57.4740    9.4230 C.3   500  HIS500      0.0785
    146  CG        20.8750   56.7220   10.7140 C.ar  500  HIS500      0.0821
    147  ND1       21.2300   55.3800   10.7720 N.ar  500  HIS500     -0.2267
    148  CD2       20.6060   57.1590   11.9660 C.ar  500  HIS500      0.1154
    149  CE1       21.1680   55.0500   12.0490 C.ar  500  HIS500      0.1986
    150  NE2       20.7970   56.0850   12.8080 N.ar  500  HIS500     -0.2212
    151  N         22.8450   59.6930    7.5520 N.am  501  ALA501     -0.1963
    152  CA        22.8410   60.5560    6.3660 C.3   501  ALA501      0.1728
    153  C         24.0280   60.2560    5.4680 C.2   501  ALA501      0.2616
    154  O         25.1660   60.2560    5.9350 O.2   501  ALA501     -0.2715
    155  CB        22.8650   62.0250    6.7820 C.3   501  ALA501      0.0334
    156  N         23.7620   60.0040    4.1760 N.am  502  HIS502     -0.1973
    157  CA        24.8090   59.7310    3.1960 C.3   502  HIS502      0.1656
    158  C         24.9700   60.9410    2.2740 C.2   502  HIS502      0.2291
    159  O         25.8650   60.9640    1.4340 O.2   502  HIS502     -0.2864
    160  CB        24.5200   58.4310    2.4380 C.3   502  HIS502      0.0771
    161  CG        24.6390   57.2040    3.3000 C.ar  502  HIS502      0.0820
    162  ND1       24.5360   55.9380    2.7610 N.ar  502  HIS502     -0.2267
    163  CD2       24.8870   57.0910    4.6280 C.ar  502  HIS502      0.1154
    164  CE1       24.7030   55.1030    3.7760 C.ar  502  HIS502      0.1986
    165  NE2       24.9210   55.7550    4.9170 N.ar  502  HIS502     -0.2212
    166  N         23.2680   62.3620   -0.3010 N.3   504  GLN504     -0.1231
    167  CA        23.1220   62.2330   -1.7640 C.3   504  GLN504      0.1698
    168  C         22.5670   63.5080   -2.3830 C.2   504  GLN504      0.2592
    169  O         22.6810   63.6880   -3.5890 O.2   504  GLN504     -0.2718
    170  CB        22.2280   61.0360   -2.1570 C.3   504  GLN504      0.0381
    171  CG        22.7100   59.6920   -1.6060 C.3   504  GLN504      0.0905
    172  CD        22.0130   59.2720   -0.3240 C.2   504  GLN504      0.2608
    173  OE1       21.8260   58.0850   -0.0650 O.2   504  GLN504     -0.2717
    174  NE2       21.6830   60.2100    0.5500 N.am  504  GLN504     -0.0878
    175  N         21.9820   64.3980   -1.5580 N.am  505  TRP505     -0.1976
    176  CA        21.3780   65.6660   -1.9760 C.3   505  TRP505      0.1640
    177  C         22.3740   66.8160   -2.1140 C.2   505  TRP505      0.2290
    178  O         22.0020   67.9090   -2.5550 O.2   505  TRP505     -0.2864
    179  CB        20.3010   66.0530   -0.9630 C.3   505  TRP505      0.0576
    180  CG        20.7610   66.0290    0.4650 C.ar  505  TRP505      0.0006
    181  CD1       21.2790   67.0680    1.1780 C.ar  505  TRP505      0.0946
    182  CD2       20.6680   64.9230    1.3690 C.ar  505  TRP505      0.0152
    183  NE1       21.5210   66.6780    2.4750 N.ar  505  TRP505     -0.2442
    184  CE2       21.1710   65.3570    2.6150 C.ar  505  TRP505      0.0810
    185  CE3       20.1770   63.6100    1.2550 C.ar  505  TRP505      0.0012
    186  CZ2       21.2250   64.5170    3.7340 C.ar  505  TRP505      0.0191
    187  CZ3       20.2820   62.7640    2.3460 C.ar  505  TRP505      0.0001
    188  CH2       20.7870   63.2240    3.5740 C.ar  505  TRP505      0.0015
@<TRIPOS>BOND
     1   169   168    2
     2   178   177    2
     3   168   167    1
     4   168   175   am
     5   170   167    1
     6   170   171    1
     7   177   176    1
     8   176   175    1
     9   176   179    1
    10   167   166    1
    11   171   172    1
    12   179   180    1
    13   172   173    2
    14   172   174   am
    15    71    72    1
    16    79    80    1
    17   180   181   ar
    18   180   182   ar
    19    16    18   ar
    20    16    14   ar
    21    86    85    1
    22    18    17   ar
    23    89    90    2
    24    89    88    1
    25    74    73    2
    26    72    73    1
    27    72    75    1
    28   181   183   ar
    29   185   182   ar
    30   185   187   ar
    31   182   184   ar
    32   159   158    2
    33    80    81    1
    34    80    83    1
    35    14    13    1
    36    14    15   ar
    37    87    81   am
    38    87    88    1
    39    13    10    1
    40    81    82    2
    41    17    15   ar
    42    88    91    1
    43   158   157    1
    44   187   188   ar
    45    85    84    1
    46    12    11    2
    47   160   157    1
    48   160   161    1
    49    75    76    1
    50   183   184   ar
    51    84    83    1
    52   184   186   ar
    53   162   161   ar
    54   162   164   ar
    55    10    11    1
    56    10     9    1
    57   157   156    1
    58    91    92    1
    59   161   163   ar
    60    76    77    1
    61   188   186   ar
    62   164   165   ar
    63     9     3   am
    64   156   153   am
    65    92    94   ar
    66    92    93   ar
    67    94    96   ar
    68   105   103    1
    69   163   165   ar
    70    77    78    1
    71    93    95   ar
    72    96    97   ar
    73     3     4    2
    74     3     2    1
    75   153   154    2
    76   153   152    1
    77   104   103    1
    78   103   100    1
    79     1     2    1
    80    95    97   ar
    81    99   100    1
    82   152   155    1
    83   152   151    1
    84    97    98    1
    85     2     5    1
    86     5     6    1
    87   144   143    2
    88     8     6    1
    89   100   101    1
    90     6     7    1
    91    58    57    1
    92   151   143   am
    93   143   142    1
    94    56    57    1
    95    56    53    1
    96    59    57    1
    97   112   110    1
    98   101   106   am
    99   101   102    2
   100   106   107    1
   101    55    54    2
   102    54    53    1
   103   109   108    2
   104   142   145    1
   105   142   141    1
   106    53    52    1
   107   136   135    2
   108    40    38   ar
   109    40    39   ar
   110   110   107    1
   111   110   111    1
   112    38    36   ar
   113    41    42    1
   114   145   146    1
   115   107   108    1
   116    44    43    2
   117   108   113   am
   118   130   129    2
   119   141   135   am
   120   135   134    1
   121    62    63    2
   122    62    61    1
   123    39    37   ar
   124    36    35    1
   125    36    37   ar
   126    46    47    1
   127    46    45    1
   128   146   147   ar
   129   146   148   ar
   130    43    42    1
   131    42    45    1
   132   147   149   ar
   133   129   128    1
   134   129   133   am
   135    47    48    1
   136   131   132    1
   137   131   128    1
   138    35    32    1
   139    65    64    1
   140    65    66    1
   141   113   114    1
   142   134   133    1
   143   134   137    1
   144    64    61    1
   145    61    60    1
   146   127   128    1
   147   127   115   am
   148   114   115    1
   149   114   117    1
   150   126   125   ar
   151   126   124   ar
   152   125   123   ar
   153   115   116    2
   154   124   122   ar
   155   148   150   ar
   156   123   120   ar
   157   149   150   ar
   158    66    67    1
   159   137   138    1
   160   137   139    1
   161    32    33    1
   162    32    31    1
   163   122   120   ar
   164   122   121   ar
   165   120   118   ar
   166    48    49    2
   167    50    49    1
   168    33    34    2
   169   138   140    1
   170   121   119   ar
   171   118   117    1
   172   118   119   ar
   173    49    51    1
   174    22    21    2
   175    31    27   am
   176    67    68    2
   177    28    27    2
   178    23    24    1
   179    23    20    1
   180    27    26    1
   181    21    20    1
   182    21    25   am
   183    69    68    1
   184    68    70    1
   185    20    19    1
   186    29    26    1
   187    29    30    1
   188    26    25    1
