@<TRIPOS>MOLECULE
tmp/5hmzA00.pdb
 180 179 0 0 0
SMALL
GASTEIGER

@<TRIPOS>ATOM
      1  N         19.2820   55.1730    5.7980 N.3   213  LEU213     -0.1231
      2  CA        17.8730   55.3120    6.1750 C.3   213  LEU213      0.1693
      3  C         16.9520   54.5540    5.2190 C.2   213  LEU213      0.2592
      4  O         16.0200   53.8770    5.6720 O.2   213  LEU213     -0.2718
      5  CB        17.4590   56.7990    6.1950 C.3   213  LEU213      0.0284
      6  CG        16.0040   57.0910    6.5650 C.3   213  LEU213      0.0019
      7  CD1       15.6670   56.5290    7.9580 C.3   213  LEU213      0.0001
      8  CD2       15.6820   58.5930    6.4230 C.3   213  LEU213      0.0001
      9  N         17.2540   54.6390    3.9020 N.am  214  HIS214     -0.1976
     10  CA        16.4950   53.9920    2.8180 C.3   214  HIS214      0.1656
     11  C         16.4940   52.4640    2.9060 C.2   214  HIS214      0.2291
     12  O         15.6700   51.8280    2.2640 O.2   214  HIS214     -0.2864
     13  CB        17.0000   54.4800    1.4400 C.3   214  HIS214      0.0771
     14  CG        18.4600   54.2630    1.1870 C.ar  214  HIS214      0.0820
     15  ND1       19.4310   54.9470    1.9090 N.ar  214  HIS214     -0.2267
     16  CD2       19.0710   53.4730    0.2710 C.ar  214  HIS214      0.1154
     17  CE1       20.6000   54.5420    1.4290 C.ar  214  HIS214      0.1986
     18  NE2       20.4410   53.6490    0.4460 N.ar  214  HIS214     -0.2212
     19  N         16.7160   50.8500    6.2250 N.3   216  LEU216     -0.1245
     20  CA        16.2310   50.4480    7.5680 C.3   216  LEU216      0.1561
     21  C         14.8200   49.8470    7.5830 C.2   216  LEU216      0.2260
     22  O         14.5780   48.8760    8.3040 O.2   216  LEU216     -0.2867
     23  CB        16.3380   51.6170    8.5800 C.3   216  LEU216      0.0270
     24  CG        17.7510   52.2220    8.8280 C.3   216  LEU216      0.0019
     25  CD1       17.7070   53.2830    9.9240 C.3   216  LEU216      0.0001
     26  CD2       18.7620   51.1270    9.2730 C.3   216  LEU216      0.0001
     27  N         15.0980   54.8430   15.1460 N.3   411  CYS411     -0.1221
     28  CA        15.9540   55.9360   14.6780 C.3   411  CYS411      0.1808
     29  C         15.1530   57.2000   14.2940 C.2   411  CYS411      0.2602
     30  O         15.4130   57.8480   13.2570 O.2   411  CYS411     -0.2717
     31  CB        16.8390   55.4490   13.5280 C.3   411  CYS411      0.0970
     32  SG        17.9670   54.0950   13.9810 S.3   411  CYS411     -0.0800
     33  N         14.1470   57.5190   15.1280 N.am  412  SER412     -0.1938
     34  CA        13.2490   58.6850   14.9800 C.3   412  SER412      0.2055
     35  C         12.3260   58.5980   13.7770 C.2   412  SER412      0.2643
     36  O         11.6830   59.5930   13.4400 O.2   412  SER412     -0.2714
     37  CB        14.0320   59.9990   14.9320 C.3   412  SER412      0.2130
     38  OG        14.8870   60.0940   16.0540 O.3   412  SER412     -0.2179
     39  N         12.2090   57.4100   13.1840 N.am  413  HIS413     -0.1973
     40  CA        11.3550   57.1790   12.0300 C.3   413  HIS413      0.1656
     41  C         10.4760   55.9680   12.2240 C.2   413  HIS413      0.2291
     42  O         10.6680   55.1780   13.1480 O.2   413  HIS413     -0.2864
     43  CB        12.2350   56.8980   10.7990 C.3   413  HIS413      0.0771
     44  CG        12.9150   58.1140   10.2640 C.ar  413  HIS413      0.0820
     45  ND1       14.0240   58.6720   10.9010 N.ar  413  HIS413     -0.2267
     46  CD2       12.6580   58.8110    9.1360 C.ar  413  HIS413      0.1154
     47  CE1       14.3870   59.6950   10.1490 C.ar  413  HIS413      0.1986
     48  NE2       13.5820   59.8240    9.0870 N.ar  413  HIS413     -0.2212
     49  N          8.5340   60.3320    9.2150 N.3   431  ARG431     -0.1245
     50  CA         8.4880   60.8630   10.5910 C.3   431  ARG431      0.1563
     51  C          7.4550   62.0030   10.6320 C.2   431  ARG431      0.2260
     52  O          7.0480   62.4570    9.5470 O.2   431  ARG431     -0.2867
     53  CB         9.8840   61.3030   11.1060 C.3   431  ARG431      0.0307
     54  CG        10.5230   62.4770   10.3570 C.3   431  ARG431      0.0489
     55  CD        11.9880   62.6520   10.7230 C.3   431  ARG431      0.2205
     56  NE        12.1570   63.0900   12.1190 N.pl3 431  ARG431     -0.0865
     57  CZ        13.3260   63.3500   12.6990 C.cat 431  ARG431      0.5346
     58  NH1       14.4600   63.2360   12.0100 N.pl3 431  ARG431      0.1354
     59  NH2       13.3710   63.7370   13.9650 N.pl3 431  ARG431      0.1354
     60  N         13.0290   71.3370   11.1210 N.3   439  ARG439     -0.1245
     61  CA        14.4700   71.1750   10.9660 C.3   439  ARG439      0.1563
     62  C         15.0010   71.9550    9.7420 C.2   439  ARG439      0.2260
     63  O         16.0160   72.6500    9.8550 O.2   439  ARG439     -0.2867
     64  CB        14.8520   69.6830   10.8740 C.3   439  ARG439      0.0307
     65  CG        16.3670   69.4030   10.7070 C.3   439  ARG439      0.0489
     66  CD        17.2550   69.8970   11.8520 C.3   439  ARG439      0.2205
     67  NE        16.8430   69.3190   13.1370 N.pl3 439  ARG439     -0.0865
     68  CZ        17.1380   69.8440   14.3220 C.cat 439  ARG439      0.5346
     69  NH1       17.8230   70.9760   14.4030 N.pl3 439  ARG439      0.1354
     70  NH2       16.7330   69.2490   15.4360 N.pl3 439  ARG439      0.1354
     71  N         17.0240   66.3970   -0.1600 N.3   463  MET463     -0.1245
     72  CA        16.8860   65.2670    0.7790 C.3   463  MET463      0.1570
     73  C         15.4110   64.8070    0.8100 C.2   463  MET463      0.2261
     74  O         15.1400   63.6040    0.8240 O.2   463  MET463     -0.2867
     75  CB        17.3420   65.6790    2.1860 C.3   463  MET463      0.0387
     76  CG        17.2170   64.5400    3.2060 C.3   463  MET463      0.0595
     77  SD        17.7490   65.0190    4.8700 S.3   463  MET463     -0.1393
     78  CE        16.3260   65.9990    5.3880 C.3   463  MET463      0.0692
     79  N         14.2790   61.0890    0.0990 N.3   467  MET467     -0.1230
     80  CA        13.7750   60.2220    1.1830 C.3   467  MET467      0.1702
     81  C         12.3210   60.4060    1.5470 C.2   467  MET467      0.2592
     82  O         11.7060   59.4600    2.0410 O.2   467  MET467     -0.2718
     83  CB        14.6440   60.3790    2.4510 C.3   467  MET467      0.0401
     84  CG        16.1400   60.0530    2.2310 C.3   467  MET467      0.0596
     85  SD        16.4100   58.2700    2.1000 S.3   467  MET467     -0.1393
     86  CE        17.0600   58.2010    0.5620 C.3   467  MET467      0.0692
     87  N         11.7930   61.6200    1.3880 N.am  468  TYR468     -0.1976
     88  CA        10.4400   61.9630    1.8310 C.3   468  TYR468      0.1639
     89  C          9.5200   62.4730    0.7050 C.2   468  TYR468      0.2290
     90  O          8.5810   63.2360    0.9540 O.2   468  TYR468     -0.2864
     91  CB        10.5370   62.9850    2.9790 C.3   468  TYR468      0.0560
     92  CG        11.5110   62.5890    4.0820 C.ar  468  TYR468     -0.0198
     93  CD1       11.1670   61.6260    5.0340 C.ar  468  TYR468     -0.0009
     94  CD2       12.7680   63.1830    4.1770 C.ar  468  TYR468     -0.0009
     95  CE1       12.0700   61.2380    6.0310 C.ar  468  TYR468      0.0417
     96  CE2       13.6540   62.8470    5.2020 C.ar  468  TYR468      0.0417
     97  CZ        13.3060   61.8640    6.1150 C.ar  468  TYR468      0.1957
     98  OH        14.2000   61.5340    7.0970 O.3   468  TYR468     -0.2866
     99  N         22.3670   68.4880    6.0450 N.3   495  THR495     -0.1203
    100  CA        20.9920   68.4820    6.5330 C.3   495  THR495      0.1994
    101  C         20.8690   67.7700    7.8780 C.2   495  THR495      0.2619
    102  O         19.9210   68.0220    8.6300 O.2   495  THR495     -0.2717
    103  CB        20.0850   67.8630    5.4830 C.3   495  THR495      0.1784
    104  OG1       20.4900   66.5110    5.2390 O.3   495  THR495     -0.2211
    105  CG2       20.0860   68.6400    4.1900 C.3   495  THR495      0.0376
    106  N         21.8190   66.8680    8.1580 N.am  496  THR496     -0.1938
    107  CA        21.8720   66.0070    9.3340 C.3   496  THR496      0.2028
    108  C         23.2880   65.4830    9.5560 C.2   496  THR496      0.2642
    109  O         24.0680   65.4270    8.6120 O.2   496  THR496     -0.2714
    110  CB        20.8850   64.8210    9.1660 C.3   496  THR496      0.1808
    111  OG1       21.0310   63.9260   10.2590 O.3   496  THR496     -0.2208
    112  CG2       21.0880   64.0560    7.8740 C.3   496  THR496      0.0379
    113  N         23.5830   65.0470   10.7910 N.am  497  TRP497     -0.1959
    114  CA        24.8510   64.4280   11.1790 C.3   497  TRP497      0.1771
    115  C         24.6380   62.9310   11.4350 C.2   497  TRP497      0.2620
    116  O         25.5560   62.2360   11.8860 O.2   497  TRP497     -0.2715
    117  CB        25.4310   65.1220   12.4230 C.3   497  TRP497      0.0590
    118  CG        25.9940   66.4800   12.1270 C.ar  497  TRP497      0.0006
    119  CD1       25.2940   67.6400   11.9690 C.ar  497  TRP497      0.0946
    120  CD2       27.3700   66.8010   11.8620 C.ar  497  TRP497      0.0152
    121  NE1       26.1530   68.6750   11.6640 N.ar  497  TRP497     -0.2442
    122  CE2       27.4320   68.1860   11.5870 C.ar  497  TRP497      0.0810
    123  CE3       28.5640   66.0540   11.8540 C.ar  497  TRP497      0.0012
    124  CZ2       28.6420   68.8430   11.3110 C.ar  497  TRP497      0.0191
    125  CZ3       29.7610   66.7050   11.5710 C.ar  497  TRP497      0.0001
    126  CH2       29.7930   68.0830   11.3080 C.ar  497  TRP497      0.0015
    127  N         23.4230   62.4310   11.1370 N.am  498  SER498     -0.1950
    128  CA        23.0600   61.0250   11.3220 C.3   498  SER498      0.1924
    129  C         24.0070   60.1180   10.5570 C.2   498  SER498      0.2314
    130  O         24.3460   60.4070    9.4090 O.2   498  SER498     -0.2863
    131  CB        21.6340   60.7660   10.8460 C.3   498  SER498      0.2116
    132  OG        21.2900   59.4110   11.0800 O.3   498  SER498     -0.2180
    133  N         23.1870   57.3010    9.4770 N.3   500  HIS500     -0.1226
    134  CA        22.3150   56.6770    8.4750 C.3   500  HIS500      0.1752
    135  C         22.1340   57.5170    7.1960 C.2   500  HIS500      0.2596
    136  O         21.5140   57.0460    6.2330 O.2   500  HIS500     -0.2718
    137  CB        20.9530   56.3510    9.1020 C.3   500  HIS500      0.0759
    138  CG        21.0660   55.5270   10.3430 C.ar  500  HIS500      0.0818
    139  ND1       21.3840   54.1870   10.2880 N.ar  500  HIS500     -0.2268
    140  CD2       20.8680   55.8750   11.6340 C.ar  500  HIS500      0.1154
    141  CE1       21.3910   53.7630   11.5420 C.ar  500  HIS500      0.1986
    142  NE2       21.0960   54.7470   12.3860 N.ar  500  HIS500     -0.2212
    143  N         22.6580   58.7370    7.1940 N.am  501  ALA501     -0.1966
    144  CA        22.6010   59.6560    6.0570 C.3   501  ALA501      0.1728
    145  C         23.8210   59.4620    5.1510 C.2   501  ALA501      0.2616
    146  O         24.9570   59.4590    5.6320 O.2   501  ALA501     -0.2715
    147  CB        22.5330   61.0970    6.5400 C.3   501  ALA501      0.0334
    148  N         23.5800   59.2630    3.8450 N.am  502  HIS502     -0.1973
    149  CA        24.6580   59.0880    2.8700 C.3   502  HIS502      0.1656
    150  C         24.7630   60.3110    1.9450 C.2   502  HIS502      0.2291
    151  O         25.6120   60.3470    1.0510 O.2   502  HIS502     -0.2864
    152  CB        24.5310   57.7500    2.1250 C.3   502  HIS502      0.0771
    153  CG        24.6330   56.5480    3.0210 C.ar  502  HIS502      0.0820
    154  ND1       24.3860   55.2720    2.5440 N.ar  502  HIS502     -0.2267
    155  CD2       24.9800   56.4580    4.3300 C.ar  502  HIS502      0.1154
    156  CE1       24.5380   54.4610    3.5830 C.ar  502  HIS502      0.1986
    157  NE2       24.8720   55.1290    4.6830 N.ar  502  HIS502     -0.2212
    158  N         23.1100   61.6950   -0.6300 N.3   504  GLN504     -0.1231
    159  CA        23.0340   61.5880   -2.1020 C.3   504  GLN504      0.1698
    160  C         22.3790   62.8330   -2.7140 C.2   504  GLN504      0.2592
    161  O         22.4460   63.0400   -3.9270 O.2   504  GLN504     -0.2718
    162  CB        22.2990   60.3040   -2.5320 C.3   504  GLN504      0.0381
    163  CG        22.9400   59.0080   -2.0200 C.3   504  GLN504      0.0905
    164  CD        22.2150   58.4220   -0.8280 C.2   504  GLN504      0.2608
    165  OE1       22.0720   57.2010   -0.6970 O.2   504  GLN504     -0.2717
    166  NE2       21.7420   59.2620    0.0720 N.am  504  GLN504     -0.0878
    167  N         21.7380   63.6620   -1.8650 N.am  505  TRP505     -0.1976
    168  CA        21.0770   64.9100   -2.2610 C.3   505  TRP505      0.1640
    169  C         22.0590   66.0730   -2.4040 C.2   505  TRP505      0.2290
    170  O         21.6690   67.1760   -2.7980 O.2   505  TRP505     -0.2864
    171  CB        20.0160   65.2660   -1.2160 C.3   505  TRP505      0.0576
    172  CG        20.5120   65.2360    0.2010 C.ar  505  TRP505      0.0006
    173  CD1       21.0310   66.2750    0.9180 C.ar  505  TRP505      0.0946
    174  CD2       20.4120   64.1290    1.1060 C.ar  505  TRP505      0.0152
    175  NE1       21.3010   65.8700    2.2080 N.ar  505  TRP505     -0.2442
    176  CE2       20.9270   64.5550    2.3490 C.ar  505  TRP505      0.0810
    177  CE3       19.9140   62.8160    0.9870 C.ar  505  TRP505      0.0012
    178  CZ2       20.9900   63.7080    3.4590 C.ar  505  TRP505      0.0191
    179  CZ3       20.0120   61.9680    2.0770 C.ar  505  TRP505      0.0001
    180  CH2       20.5630   62.4140    3.2920 C.ar  505  TRP505      0.0015
@<TRIPOS>BOND
     1   161   160    2
     2   170   169    2
     3   160   159    1
     4   160   167   am
     5   162   159    1
     6   162   163    1
     7   169   168    1
     8   168   167    1
     9   168   171    1
    10   159   158    1
    11   163   164    1
    12   171   172    1
    13   164   165    2
    14   164   166   am
    15    71    72    1
    16    79    80    1
    17   172   173   ar
    18   172   174   ar
    19    16    18   ar
    20    16    14   ar
    21    18    17   ar
    22    86    85    1
    23    89    90    2
    24    89    88    1
    25    72    73    1
    26    72    75    1
    27    73    74    2
    28   173   175   ar
    29   177   174   ar
    30   177   179   ar
    31   151   150    2
    32   174   176   ar
    33    80    81    1
    34    80    83    1
    35    14    13    1
    36    14    15   ar
    37    87    81   am
    38    87    88    1
    39    17    15   ar
    40    13    10    1
    41    81    82    2
    42    88    91    1
    43   150   149    1
    44   179   180   ar
    45    85    84    1
    46   152   149    1
    47   152   153    1
    48    75    76    1
    49   175   176   ar
    50    84    83    1
    51    12    11    2
    52   176   178   ar
    53   154   153   ar
    54   154   156   ar
    55    10    11    1
    56    10     9    1
    57   149   148    1
    58    91    92    1
    59   153   155   ar
    60    76    77    1
    61   180   178   ar
    62   156   157   ar
    63   148   145   am
    64     9     3   am
    65    92    94   ar
    66    92    93   ar
    67    94    96   ar
    68   105   103    1
    69   155   157   ar
    70    77    78    1
    71    93    95   ar
    72   145   146    2
    73   145   144    1
    74    96    97   ar
    75     3     4    2
    76     3     2    1
    77   104   103    1
    78   103   100    1
    79     1     2    1
    80    95    97   ar
    81    99   100    1
    82   144   147    1
    83   144   143    1
    84    97    98    1
    85     2     5    1
    86     5     6    1
    87    19    20    1
    88   136   135    2
    89     8     6    1
    90   100   101    1
    91     6     7    1
    92   143   135   am
    93   135   134    1
    94    20    21    1
    95    20    23    1
    96    21    22    2
    97   112   110    1
    98   101   106   am
    99   101   102    2
   100   106   107    1
   101   134   137    1
   102   134   133    1
   103    23    24    1
   104   109   108    2
   105    24    26    1
   106    24    25    1
   107    48    46   ar
   108    48    47   ar
   109   137   138    1
   110    46    44   ar
   111   110   107    1
   112   110   111    1
   113    49    50    1
   114   107   108    1
   115   130   129    2
   116    52    51    2
   117   108   113   am
   118    62    63    2
   119    62    61    1
   120    47    45   ar
   121    44    43    1
   122    44    45   ar
   123   139   138   ar
   124   139   141   ar
   125   138   140   ar
   126    54    55    1
   127    54    53    1
   128   129   128    1
   129    50    51    1
   130    50    53    1
   131    65    64    1
   132    65    66    1
   133    55    56    1
   134   113   114    1
   135    43    40    1
   136   131   132    1
   137   131   128    1
   138    64    61    1
   139    61    60    1
   140   127   128    1
   141   127   115   am
   142   114   115    1
   143   114   117    1
   144   126   124   ar
   145   126   125   ar
   146   124   122   ar
   147   115   116    2
   148   141   142   ar
   149   125   123   ar
   150   122   121   ar
   151   122   120   ar
   152   140   142   ar
   153   121   119   ar
   154    66    67    1
   155   123   120   ar
   156   120   118   ar
   157   119   118   ar
   158    58    57    1
   159    40    41    1
   160    40    39    1
   161    56    57    2
   162   118   117    1
   163    41    42    2
   164    57    59    1
   165    67    68    2
   166    39    35   am
   167    30    29    2
   168    36    35    2
   169    31    32    1
   170    31    28    1
   171    35    34    1
   172    29    28    1
   173    29    33   am
   174    68    69    1
   175    68    70    1
   176    28    27    1
   177    37    34    1
   178    37    38    1
   179    34    33    1
