@<TRIPOS>MOLECULE
tmp/5hn0A00.pdb
 163 158 0 0 0
SMALL
GASTEIGER

@<TRIPOS>ATOM
      1  N         19.5010   56.4120    6.0420 N.3   213  LEU213     -0.1245
      2  CA        18.0950   56.5850    6.4110 C.3   213  LEU213      0.1561
      3  C         17.1580   55.8960    5.4180 C.2   213  LEU213      0.2260
      4  O         16.1890   55.2800    5.8440 O.2   213  LEU213     -0.2867
      5  CB        17.7520   58.0940    6.5120 C.3   213  LEU213      0.0270
      6  CG        16.3010   58.4300    6.9170 C.3   213  LEU213      0.0019
      7  CD1       16.0300   58.0600    8.3730 C.3   213  LEU213      0.0001
      8  CD2       15.9880   59.8960    6.6670 C.3   213  LEU213      0.0001
      9  N         19.3490   53.8720   20.2780 N.3   366  ASP366     -0.1239
     10  CA        18.1150   53.5350   19.5640 C.3   366  ASP366      0.1674
     11  C         18.0830   52.0480   19.2630 C.2   366  ASP366      0.2266
     12  O         19.0170   51.5260   18.6960 O.2   366  ASP366     -0.2867
     13  CB        17.9920   54.3310   18.2570 C.3   366  ASP366      0.1410
     14  CG        17.0290   55.4780   18.3230 C.2   366  ASP366      0.3668
     15  OD1       17.4920   56.6210   18.4600 O.co2 366  ASP366     -0.2456
     16  OD2       15.8000   55.2370   18.1850 O.co2 366  ASP366     -0.2456
     17  N         15.2670   56.0490   15.1440 N.3   411  CYS411     -0.1221
     18  CA        16.1520   57.1290   14.7100 C.3   411  CYS411      0.1808
     19  C         15.3760   58.3880   14.3080 C.2   411  CYS411      0.2602
     20  O         15.5840   58.9550   13.2300 O.2   411  CYS411     -0.2717
     21  CB        17.1190   56.6590   13.6200 C.3   411  CYS411      0.0970
     22  SG        18.1480   55.2350   14.0930 S.3   411  CYS411     -0.0800
     23  N         14.4240   58.7760   15.1810 N.am  412  SER412     -0.1938
     24  CA        13.5550   59.9540   15.0470 C.3   412  SER412      0.2055
     25  C         12.5380   59.8370   13.8950 C.2   412  SER412      0.2643
     26  O         11.8360   60.8010   13.5810 O.2   412  SER412     -0.2714
     27  CB        14.3900   61.2300   14.9310 C.3   412  SER412      0.2130
     28  OG        15.2760   61.3260   16.0310 O.3   412  SER412     -0.2179
     29  N         12.3790   58.6250   13.3490 N.am  413  HIS413     -0.1973
     30  CA        11.4790   58.4110   12.2360 C.3   413  HIS413      0.1656
     31  C         10.5790   57.2010   12.4080 C.2   413  HIS413      0.2291
     32  O         10.7810   56.3780   13.3020 O.2   413  HIS413     -0.2864
     33  CB        12.3300   58.1510   10.9690 C.3   413  HIS413      0.0771
     34  CG        12.9890   59.3560   10.3880 C.ar  413  HIS413      0.0820
     35  ND1       14.1870   59.8290   10.8870 N.ar  413  HIS413     -0.2267
     36  CD2       12.6220   60.1110    9.3260 C.ar  413  HIS413      0.1154
     37  CE1       14.5200   60.8430   10.1080 C.ar  413  HIS413      0.1986
     38  NE2       13.5860   61.0710    9.1780 N.ar  413  HIS413     -0.2212
     39  N          8.5840   61.6030    9.3740 N.3   431  ARG431     -0.1245
     40  CA         8.4910   62.1150   10.7420 C.3   431  ARG431      0.1563
     41  C          7.4020   63.2060   10.7650 C.2   431  ARG431      0.2260
     42  O          6.9660   63.5830    9.6710 O.2   431  ARG431     -0.2867
     43  CB         9.8520   62.5800   11.2850 C.3   431  ARG431      0.0307
     44  CG        10.4960   63.7370   10.5360 C.3   431  ARG431      0.0489
     45  CD        11.9580   63.8860   10.9170 C.3   431  ARG431      0.2205
     46  NE        12.1010   64.2910   12.3130 N.pl3 431  ARG431     -0.0865
     47  CZ        13.2580   64.4430   12.9520 C.cat 431  ARG431      0.5346
     48  NH1       14.4100   64.2490   12.3190 N.pl3 431  ARG431      0.1354
     49  NH2       13.2730   64.7970   14.2260 N.pl3 431  ARG431      0.1354
     50  N         10.3070   68.8040   10.2960 N.3   436  LEU436     -0.1245
     51  CA        11.1030   68.9340    9.0600 C.3   436  LEU436      0.1561
     52  C         11.1390   70.3870    8.5970 C.2   436  LEU436      0.2260
     53  O         12.2220   70.9210    8.3470 O.2   436  LEU436     -0.2867
     54  CB        10.5370   68.0140    7.9810 C.3   436  LEU436      0.0270
     55  CG        10.7430   66.5260    8.2250 C.3   436  LEU436      0.0019
     56  CD1        9.7750   65.6940    7.3790 C.3   436  LEU436      0.0001
     57  CD2       12.1980   66.1360    8.0120 C.3   436  LEU436      0.0001
     58  N         13.0430   72.6270   11.2100 N.3   439  ARG439     -0.1245
     59  CA        14.4890   72.5040   11.0910 C.3   439  ARG439      0.1563
     60  C         15.0360   73.2860    9.8780 C.2   439  ARG439      0.2260
     61  O         16.0310   74.0000   10.0290 O.2   439  ARG439     -0.2867
     62  CB        14.9070   71.0200   11.0620 C.3   439  ARG439      0.0307
     63  CG        16.4220   70.7290   10.8920 C.3   439  ARG439      0.0489
     64  CD        17.3660   71.4300   11.8800 C.3   439  ARG439      0.2205
     65  NE        17.0260   71.1530   13.2780 N.pl3 439  ARG439     -0.0865
     66  CZ        17.2840   71.9720   14.2910 C.cat 439  ARG439      0.5346
     67  NH1       17.8820   73.1370   14.0770 N.pl3 439  ARG439      0.1354
     68  NH2       16.9390   71.6360   15.5270 N.pl3 439  ARG439      0.1354
     69  N         17.0920   67.6210    0.1250 N.3   463  MET463     -0.1245
     70  CA        16.9890   66.5030    1.0850 C.3   463  MET463      0.1570
     71  C         15.5330   66.0270    1.0720 C.2   463  MET463      0.2261
     72  O         15.2890   64.8170    1.0150 O.2   463  MET463     -0.2867
     73  CB        17.4260   66.9180    2.5100 C.3   463  MET463      0.0387
     74  CG        17.3310   65.7670    3.5210 C.3   463  MET463      0.0595
     75  SD        17.7580   66.2420    5.2000 S.3   463  MET463     -0.1393
     76  CE        16.3160   67.2300    5.6220 C.3   463  MET463      0.0692
     77  N         14.3890   62.2480    0.3590 N.3   467  MET467     -0.1230
     78  CA        13.9270   61.4470    1.4970 C.3   467  MET467      0.1702
     79  C         12.4580   61.6150    1.8380 C.2   467  MET467      0.2592
     80  O         11.8180   60.6600    2.3160 O.2   467  MET467     -0.2718
     81  CB        14.7980   61.7700    2.7200 C.3   467  MET467      0.0401
     82  CG        16.3060   61.4660    2.5170 C.3   467  MET467      0.0596
     83  SD        16.6110   59.6920    2.3880 S.3   467  MET467     -0.1393
     84  CE        17.6130   59.6800    0.8810 C.3   467  MET467      0.0692
     85  N         11.9230   62.8350    1.6320 N.am  468  TYR468     -0.1976
     86  CA        10.5550   63.1620    2.0420 C.3   468  TYR468      0.1639
     87  C          9.6450   63.6610    0.8920 C.2   468  TYR468      0.2290
     88  O          8.6580   64.3630    1.1400 O.2   468  TYR468     -0.2864
     89  CB        10.5960   64.1610    3.2290 C.3   468  TYR468      0.0560
     90  CG        11.5940   63.7990    4.3240 C.ar  468  TYR468     -0.0198
     91  CD1       12.8030   64.4860    4.4490 C.ar  468  TYR468     -0.0009
     92  CD2       11.3190   62.7900    5.2460 C.ar  468  TYR468     -0.0009
     93  CE1       13.7240   64.1600    5.4500 C.ar  468  TYR468      0.0417
     94  CE2       12.2170   62.4830    6.2760 C.ar  468  TYR468      0.0417
     95  CZ        13.4330   63.1450    6.3470 C.ar  468  TYR468      0.1957
     96  OH        14.3370   62.8390    7.3240 O.3   468  TYR468     -0.2866
     97  N         22.5340   69.8350    6.3210 N.3   495  THR495     -0.1203
     98  CA        21.1560   69.9100    6.8120 C.3   495  THR495      0.1994
     99  C         21.0460   69.1760    8.1580 C.2   495  THR495      0.2618
    100  O         20.0900   69.4000    8.9210 O.2   495  THR495     -0.2717
    101  CB        20.2060   69.2800    5.8030 C.3   495  THR495      0.1784
    102  OG1       20.6260   67.9520    5.5410 O.3   495  THR495     -0.2211
    103  CG2       20.1220   70.0580    4.5310 C.3   495  THR495      0.0376
    104  N         22.0310   68.2840    8.4270 N.am  496  THR496     -0.1952
    105  CA        22.0960   67.4210    9.6060 C.3   496  THR496      0.1897
    106  C         23.4870   66.8380    9.8130 C.2   496  THR496      0.2313
    107  O         24.2730   66.7440    8.8670 O.2   496  THR496     -0.2863
    108  CB        21.0400   66.2920    9.4920 C.3   496  THR496      0.1794
    109  OG1       21.0630   65.4850   10.6650 O.3   496  THR496     -0.2208
    110  CG2       21.2190   65.4170    8.2440 C.3   496  THR496      0.0378
    111  N         23.4500   63.8060   11.3420 N.3   498  SER498     -0.1202
    112  CA        22.9970   62.4220   11.5270 C.3   498  SER498      0.2020
    113  C         23.9480   61.4190   10.8700 C.2   498  SER498      0.2619
    114  O         24.3630   61.6220    9.7260 O.2   498  SER498     -0.2717
    115  CB        21.5890   62.2390   10.9610 C.3   498  SER498      0.2103
    116  OG        21.2240   60.8670   10.9250 O.3   498  SER498     -0.2182
    117  N         24.2470   60.3140   11.5760 N.am  499  ILE499     -0.1965
    118  CA        25.1070   59.2540   11.0550 C.3   499  ILE499      0.1727
    119  C         24.4300   58.5430    9.8820 C.2   499  ILE499      0.2616
    120  O         25.1040   57.8730    9.0950 O.2   499  ILE499     -0.2715
    121  CB        25.6390   58.2590   12.1510 C.3   499  ILE499      0.0290
    122  CG1       24.5690   57.2210   12.5890 C.3   499  ILE499      0.0022
    123  CG2       26.2840   58.9850   13.3600 C.3   499  ILE499      0.0023
    124  CD1       23.6300   57.6150   13.6780 C.3   499  ILE499      0.0001
    125  N         23.0920   58.7040    9.7730 N.am  500  HIS500     -0.1959
    126  CA        22.2560   58.0970    8.7390 C.3   500  HIS500      0.1787
    127  C         22.1730   58.9280    7.4720 C.2   500  HIS500      0.2620
    128  O         21.6400   58.4400    6.4750 O.2   500  HIS500     -0.2715
    129  CB        20.8550   57.8160    9.2990 C.3   500  HIS500      0.0785
    130  CG        20.8980   57.0720   10.5940 C.ar  500  HIS500      0.0821
    131  ND1       21.4110   55.7920   10.6690 N.ar  500  HIS500     -0.2267
    132  CD2       20.5200   57.4660   11.8350 C.ar  500  HIS500      0.1154
    133  CE1       21.3450   55.4490   11.9420 C.ar  500  HIS500      0.1986
    134  NE2       20.7890   56.4120   12.6780 N.ar  500  HIS500     -0.2212
    135  N         22.6610   60.1860    7.5080 N.am  501  ALA501     -0.1963
    136  CA        22.6230   61.0780    6.3430 C.3   501  ALA501      0.1728
    137  C         23.8060   60.8140    5.4290 C.2   501  ALA501      0.2616
    138  O         24.9580   60.9060    5.8710 O.2   501  ALA501     -0.2715
    139  CB        22.6160   62.5440    6.7800 C.3   501  ALA501      0.0334
    140  N         23.5260   60.4690    4.1560 N.am  502  HIS502     -0.1973
    141  CA        24.5800   60.2450    3.1660 C.3   502  HIS502      0.1656
    142  C         24.7520   61.4740    2.2640 C.2   502  HIS502      0.2291
    143  O         25.6430   61.5070    1.4200 O.2   502  HIS502     -0.2864
    144  CB        24.3410   58.9630    2.3880 C.3   502  HIS502      0.0771
    145  CG        24.5160   57.7280    3.2170 C.ar  502  HIS502      0.0820
    146  ND1       24.3870   56.4700    2.6580 N.ar  502  HIS502     -0.2267
    147  CD2       24.8370   57.5930    4.5270 C.ar  502  HIS502      0.1154
    148  CE1       24.6410   55.6170    3.6420 C.ar  502  HIS502      0.1986
    149  NE2       24.9060   56.2480    4.7850 N.ar  502  HIS502     -0.2212
    150  N         21.8250   64.8850   -1.5500 N.3   505  TRP505     -0.1241
    151  CA        21.2000   66.1520   -1.9490 C.3   505  TRP505      0.1605
    152  C         22.1880   67.3160   -2.0440 C.2   505  TRP505      0.2264
    153  O         21.8140   68.4210   -2.4480 O.2   505  TRP505     -0.2867
    154  CB        20.0940   66.5060   -0.9450 C.3   505  TRP505      0.0550
    155  CG        20.5240   66.4400    0.4920 C.ar  505  TRP505      0.0003
    156  CD1       21.0270   67.4570    1.2500 C.ar  505  TRP505      0.0946
    157  CD2       20.4170   65.3010    1.3610 C.ar  505  TRP505      0.0152
    158  NE1       21.2650   67.0160    2.5340 N.ar  505  TRP505     -0.2442
    159  CE2       20.9160   65.6910    2.6250 C.ar  505  TRP505      0.0810
    160  CE3       19.9310   63.9910    1.1910 C.ar  505  TRP505      0.0012
    161  CZ2       20.9530   64.8160    3.7230 C.ar  505  TRP505      0.0191
    162  CZ3       20.0110   63.1090    2.2610 C.ar  505  TRP505      0.0001
    163  CH2       20.5340   63.5200    3.5080 C.ar  505  TRP505      0.0015
@<TRIPOS>BOND
     1   153   152    2
     2   152   151    1
     3   151   150    1
     4   151   154    1
     5   154   155    1
     6    69    70    1
     7    77    78    1
     8   155   156   ar
     9   155   157   ar
    10    84    83    1
    11    87    88    2
    12    87    86    1
    13    72    71    2
    14    71    70    1
    15    70    73    1
    16   160   157   ar
    17   160   162   ar
    18   156   158   ar
    19   157   159   ar
    20   143   142    2
    21    78    79    1
    22    78    81    1
    23    85    79   am
    24    85    86    1
    25    79    80    2
    26    86    89    1
    27   162   163   ar
    28   142   141    1
    29   144   141    1
    30   144   145    1
    31    83    82    1
    32    73    74    1
    33    82    81    1
    34   158   159   ar
    35   159   161   ar
    36   146   145   ar
    37   146   148   ar
    38   141   140    1
    39   145   147   ar
    40    89    90    1
    41   163   161   ar
    42    74    75    1
    43   148   149   ar
    44   140   137   am
    45    90    91   ar
    46    90    92   ar
    47    91    93   ar
    48   147   149   ar
    49   103   101    1
    50    75    76    1
    51    92    94   ar
    52     3     4    2
    53     3     2    1
    54   137   138    2
    55   137   136    1
    56    93    95   ar
    57   102   101    1
    58   101    98    1
    59     1     2    1
    60    94    95   ar
    61    97    98    1
    62   136   139    1
    63   136   135    1
    64    95    96    1
    65     2     5    1
    66   128   127    2
    67     5     6    1
    68     8     6    1
    69    98    99    1
    70     6     7    1
    71    56    55    1
    72   127   135   am
    73   127   126    1
    74    54    55    1
    75    54    51    1
    76    57    55    1
    77    99   104   am
    78    99   100    2
    79   110   108    1
    80    53    52    2
    81   104   105    1
    82    52    51    1
    83   126   129    1
    84   126   125    1
    85   107   106    2
    86    51    50    1
    87   120   119    2
    88    38    36   ar
    89    38    37   ar
    90   129   130    1
    91    36    34   ar
    92    39    40    1
    93   108   105    1
    94   108   109    1
    95   105   106    1
    96    42    41    2
    97   114   113    2
    98   125   119   am
    99    60    61    2
   100    60    59    1
   101   119   118    1
   102    37    35   ar
   103    34    35   ar
   104    34    33    1
   105    44    45    1
   106    44    43    1
   107   130   131   ar
   108   130   132   ar
   109   131   133   ar
   110    40    41    1
   111    40    43    1
   112   113   112    1
   113   113   117   am
   114    63    62    1
   115    63    64    1
   116    45    46    1
   117   116   115    1
   118   115   112    1
   119    33    30    1
   120   118   117    1
   121   118   121    1
   122    62    59    1
   123    59    58    1
   124   111   112    1
   125   132   134   ar
   126    64    65    1
   127   133   134   ar
   128   121   122    1
   129   121   123    1
   130    30    31    1
   131    30    29    1
   132    46    47    2
   133    48    47    1
   134    31    32    2
   135   122   124    1
   136    47    49    1
   137    20    19    2
   138    65    66    2
   139    29    25   am
   140    26    25    2
   141    21    22    1
   142    21    18    1
   143    25    24    1
   144    67    66    1
   145    66    68    1
   146    19    18    1
   147    19    23   am
   148    18    17    1
   149    27    24    1
   150    27    28    1
   151    24    23    1
   152    16    14   ar
   153    13    14    1
   154    13    10    1
   155    14    15   ar
   156    12    11    2
   157    11    10    1
   158    10     9    1
