@<TRIPOS>MOLECULE
tmp/5hn4A00.pdb
 113 102 0 0 0
SMALL
GASTEIGER

@<TRIPOS>ATOM
      1  N         39.1860   -7.5760  -36.0300 N.3    69  THR69      -0.1218
      2  CA        40.2340   -7.8500  -37.0060 C.3    69  THR69       0.1862
      3  C         39.6110   -8.4420  -38.2400 C.2    69  THR69       0.2287
      4  O         38.7290   -9.2750  -38.1320 O.2    69  THR69      -0.2866
      5  CB        41.2500   -8.8490  -36.4370 C.3    69  THR69       0.1770
      6  OG1       42.2700   -9.0640  -37.4040 O.3    69  THR69      -0.2211
      7  CG2       40.5890  -10.2110  -36.0320 C.3    69  THR69       0.0375
      8  N         39.5610  -11.1550  -40.8370 N.3    71  THR71      -0.1218
      9  CA        40.1230  -12.4650  -41.1790 C.3    71  THR71       0.1862
     10  C         39.7110  -12.8150  -42.6200 C.2    71  THR71       0.2287
     11  O         38.5830  -13.2720  -42.8310 O.2    71  THR71      -0.2866
     12  CB        39.6720  -13.5750  -40.1990 C.3    71  THR71       0.1770
     13  OG1       40.2220  -13.3310  -38.8910 O.3    71  THR71      -0.2211
     14  CG2       40.1400  -14.9670  -40.6750 C.3    71  THR71       0.0375
     15  N         43.2160  -16.6320  -37.5840 N.3    80  SER80      -0.1217
     16  CA        42.5750  -15.5660  -36.8160 C.3    80  SER80       0.1889
     17  C         43.4250  -15.0080  -35.6540 C.2    80  SER80       0.2288
     18  O         43.9170  -15.7530  -34.7890 O.2    80  SER80      -0.2866
     19  CB        41.2540  -16.0830  -36.2240 C.3    80  SER80       0.2089
     20  OG        40.2560  -15.0700  -36.1940 O.3    80  SER80      -0.2183
     21  N         42.0150  -13.3780  -33.1970 N.3    82  ILE82      -0.1231
     22  CA        41.2570  -13.6740  -31.9770 C.3    82  ILE82       0.1692
     23  C         41.2930  -15.1400  -31.6190 C.2    82  ILE82       0.2591
     24  O         41.3550  -15.4990  -30.4290 O.2    82  ILE82      -0.2718
     25  CB        39.7980  -13.1170  -31.9960 C.3    82  ILE82       0.0266
     26  CG1       39.1540  -13.2430  -30.6210 C.3    82  ILE82       0.0019
     27  CG2       38.9020  -13.8040  -33.0250 C.3    82  ILE82       0.0020
     28  CD1       39.6800  -12.2430  -29.6130 C.3    82  ILE82       0.0001
     29  N         41.2820  -16.0160  -32.6140 N.am   83  LEU83      -0.1980
     30  CA        41.4020  -17.4740  -32.2850 C.3    83  LEU83       0.1596
     31  C         42.7510  -17.7710  -31.7180 C.2    83  LEU83       0.2287
     32  O         42.8590  -18.5340  -30.7520 O.2    83  LEU83      -0.2864
     33  CB        41.1460  -18.4030  -33.4730 C.3    83  LEU83       0.0297
     34  CG        39.7380  -18.2500  -34.0580 C.3    83  LEU83       0.0022
     35  CD1       39.5810  -19.1690  -35.2630 C.3    83  LEU83       0.0001
     36  CD2       38.6530  -18.4740  -32.9990 C.3    83  LEU83       0.0001
     37  N         42.7630  -16.4510  -28.2340 N.3    86  ARG86      -0.1245
     38  CA        41.9810  -17.3270  -27.3710 C.3    86  ARG86       0.1563
     39  C         42.7580  -18.5560  -26.9080 C.2    86  ARG86       0.2260
     40  O         42.7140  -18.8920  -25.7250 O.2    86  ARG86      -0.2867
     41  CB        40.7010  -17.7460  -28.0580 C.3    86  ARG86       0.0307
     42  CG        39.6410  -16.6620  -28.0620 C.3    86  ARG86       0.0489
     43  CD        38.4110  -17.1450  -28.8170 C.3    86  ARG86       0.2205
     44  NE        37.5030  -16.0620  -29.1010 N.pl3  86  ARG86      -0.0865
     45  CZ        36.5500  -16.1100  -30.0220 C.cat  86  ARG86       0.5346
     46  NH1       36.3620  -17.2100  -30.7710 N.pl3  86  ARG86       0.1354
     47  NH2       35.7840  -15.0360  -30.2040 N.pl3  86  ARG86       0.1354
     48  N         28.5930  -13.8540  -23.7240 N.3    96  ARG96      -0.1245
     49  CA        27.9910  -12.8030  -24.5380 C.3    96  ARG96       0.1563
     50  C         26.6560  -12.4120  -23.9420 C.2    96  ARG96       0.2260
     51  O         25.8600  -13.2580  -23.5860 O.2    96  ARG96      -0.2867
     52  CB        27.8550  -13.2650  -25.9790 C.3    96  ARG96       0.0307
     53  CG        29.2220  -13.3570  -26.6280 C.3    96  ARG96       0.0489
     54  CD        29.3030  -14.1890  -27.9070 C.3    96  ARG96       0.2205
     55  NE        30.6780  -14.1860  -28.4180 N.pl3  96  ARG96      -0.0865
     56  CZ        31.0440  -14.4060  -29.6760 C.cat  96  ARG96       0.5346
     57  NH1       30.1610  -14.6820  -30.6460 N.pl3  96  ARG96       0.1354
     58  NH2       32.3350  -14.3830  -29.9680 N.pl3  96  ARG96       0.1354
     59  N         29.4450  -19.5390  -24.0540 N.3   111  ARG111     -0.1245
     60  CA        29.9210  -20.3570  -25.1660 C.3   111  ARG111      0.1563
     61  C         31.2210  -20.9780  -24.7530 C.2   111  ARG111      0.2260
     62  O         32.1830  -20.2800  -24.4540 O.2   111  ARG111     -0.2867
     63  CB        30.1150  -19.4840  -26.4120 C.3   111  ARG111      0.0307
     64  CG        31.1560  -19.9690  -27.4350 C.3   111  ARG111      0.0489
     65  CD        31.3290  -18.9860  -28.6010 C.3   111  ARG111      0.2205
     66  NE        32.2600  -19.5090  -29.5910 N.pl3 111  ARG111     -0.0865
     67  CZ        32.6280  -18.8910  -30.7080 C.cat 111  ARG111      0.5346
     68  NH1       33.4720  -19.4820  -31.5400 N.pl3 111  ARG111      0.1354
     69  NH2       32.1610  -17.6930  -31.0030 N.pl3 111  ARG111      0.1354
     70  N         36.1920  -26.3530  -32.6350 N.3   118  TYR118     -0.1241
     71  CA        37.3320  -25.4280  -32.7000 C.3   118  TYR118      0.1605
     72  C         38.6160  -26.0910  -32.2100 C.2   118  TYR118      0.2264
     73  O         39.6780  -25.4850  -32.2910 O.2   118  TYR118     -0.2867
     74  CB        37.0680  -24.1500  -31.8440 C.3   118  TYR118      0.0534
     75  CG        36.1610  -23.1390  -32.4940 C.ar  118  TYR118     -0.0201
     76  CD1       34.7770  -23.3580  -32.5820 C.ar  118  TYR118     -0.0009
     77  CD2       36.6830  -21.9740  -33.0510 C.ar  118  TYR118     -0.0009
     78  CE1       33.9550  -22.4460  -33.2030 C.ar  118  TYR118      0.0417
     79  CE2       35.8690  -21.0530  -33.6690 C.ar  118  TYR118      0.0417
     80  CZ        34.5150  -21.2910  -33.7510 C.ar  118  TYR118      0.1957
     81  OH        33.7310  -20.3410  -34.3350 O.3   118  TYR118     -0.2866
     82  N         28.7500  -20.0360  -31.0650 N.3   218  ASP218     -0.1239
     83  CA        29.0370  -19.0650  -32.0870 C.3   218  ASP218      0.1674
     84  C         27.7770  -18.7380  -32.8850 C.2   218  ASP218      0.2266
     85  O         27.4880  -17.5650  -33.1610 O.2   218  ASP218     -0.2867
     86  CB        30.1320  -19.6160  -32.9990 C.3   218  ASP218      0.1410
     87  CG        30.5050  -18.6670  -34.0800 C.2   218  ASP218      0.3668
     88  OD1       30.9760  -17.5380  -33.7390 O.co2 218  ASP218     -0.2456
     89  OD2       30.3400  -19.0610  -35.2600 O.co2 218  ASP218     -0.2456
     90  N         25.3660  -15.0260  -32.3790 N.3   222  ASP222     -0.1239
     91  CA        24.9810  -14.1420  -33.4760 C.3   222  ASP222      0.1674
     92  C         23.4720  -14.0760  -33.6360 C.2   222  ASP222      0.2266
     93  O         22.9300  -12.9860  -33.7430 O.2   222  ASP222     -0.2867
     94  CB        25.5860  -14.5470  -34.7940 C.3   222  ASP222      0.1410
     95  CG        26.8610  -13.8110  -35.0930 C.2   222  ASP222      0.3668
     96  OD1       27.6440  -13.5220  -34.1690 O.co2 222  ASP222     -0.2456
     97  OD2       27.0840  -13.5440  -36.2810 O.co2 222  ASP222     -0.2456
     98  N         35.8770   -7.9140  -26.0970 N.3   247  GLU247     -0.1245
     99  CA        35.6900   -7.4550  -27.4370 C.3   247  GLU247      0.1567
    100  C         34.2360   -7.3270  -27.7330 C.2   247  GLU247      0.2260
    101  O         33.4230   -8.1480  -27.2760 O.2   247  GLU247     -0.2867
    102  CB        36.2960   -8.4630  -28.4310 C.3   247  GLU247      0.0388
    103  CG        35.8190   -9.9090  -28.2200 C.3   247  GLU247      0.1160
    104  CD        36.1540  -10.8850  -29.3440 C.2   247  GLU247      0.3649
    105  OE1       36.0500  -12.1100  -29.0910 O.co2 247  GLU247     -0.2457
    106  OE2       36.5050  -10.4540  -30.4580 O.co2 247  GLU247     -0.2457
    107  N         31.1140   -7.9740  -30.0050 N.3   249  VAL249     -0.1245
    108  CA        30.7370   -9.0950  -30.8520 C.3   249  VAL249      0.1561
    109  C         30.6890   -8.7080  -32.3390 C.2   249  VAL249      0.2260
    110  O         30.8360   -9.5530  -33.1880 O.2   249  VAL249     -0.2867
    111  CB        29.4010   -9.7070  -30.3800 C.3   249  VAL249      0.0252
    112  CG1       28.8830  -10.7600  -31.3520 C.3   249  VAL249      0.0019
    113  CG2       29.5970  -10.3150  -29.0140 C.3   249  VAL249      0.0019
@<TRIPOS>BOND
     1    11    10    2
     2    10     9    1
     3     9     8    1
     4     9    12    1
     5    14    12    1
     6    12    13    1
     7     3     4    2
     8     3     2    1
     9    15    16    1
    10     6     5    1
    11     2     5    1
    12     2     1    1
    13    16    19    1
    14    16    17    1
    15     5     7    1
    16    97    95   ar
    17    19    20    1
    18    17    18    2
    19    35    34    1
    20    89    87   ar
    21    95    94    1
    22    95    96   ar
    23    94    91    1
    24    81    80    1
    25    87    88   ar
    26    87    86    1
    27    34    33    1
    28    34    36    1
    29    80    79   ar
    30    80    78   ar
    31    93    92    2
    32    79    77   ar
    33    92    91    1
    34    91    90    1
    35    33    30    1
    36    78    76   ar
    37    21    22    1
    38   110   109    2
    39    85    84    2
    40    77    75   ar
    41    27    25    1
    42    86    83    1
    43    84    83    1
    44    71    70    1
    45    71    72    1
    46    71    74    1
    47    29    30    1
    48    29    23   am
    49    76    75   ar
    50    75    74    1
    51   109   108    1
    52    73    72    2
    53    30    31    1
    54    83    82    1
    55    25    22    1
    56    25    26    1
    57    22    23    1
    58    31    32    2
    59    23    24    2
    60    68    67    1
    61   112   111    1
    62    69    67    1
    63   108   111    1
    64   108   107    1
    65    46    45    1
    66    67    66    2
    67    57    56    1
    68    26    28    1
    69   106   104   ar
    70   111   113    1
    71    47    45    1
    72    45    44    2
    73    58    56    1
    74    56    55    2
    75    66    65    1
    76   104   105   ar
    77   104   103    1
    78    44    43    1
    79    43    42    1
    80    65    64    1
    81   102   103    1
    82   102    99    1
    83    55    54    1
    84    37    38    1
    85    42    41    1
    86    41    38    1
    87    54    53    1
    88   100    99    1
    89   100   101    2
    90    99    98    1
    91    64    63    1
    92    38    39    1
    93    39    40    2
    94    53    52    1
    95    63    60    1
    96    52    49    1
    97    60    61    1
    98    60    59    1
    99    61    62    2
   100    49    50    1
   101    49    48    1
   102    50    51    2
