@<TRIPOS>MOLECULE
tmp/5hn5A01.pdb
 90 84 0 0 0
SMALL
GASTEIGER

@<TRIPOS>ATOM
      1  N        -15.0250   13.4040   -2.4610 N.3    12  ILE12      -0.1245
      2  CA       -14.7980   14.4260   -1.4450 C.3    12  ILE12       0.1561
      3  C        -14.5600   13.8500   -0.0350 C.2    12  ILE12       0.2260
      4  O        -14.3130   14.6060    0.9100 O.2    12  ILE12      -0.2867
      5  CB       -15.9530   15.4570   -1.3850 C.3    12  ILE12       0.0252
      6  CG1      -17.2640   14.8020   -0.9670 C.3    12  ILE12       0.0019
      7  CG2      -16.1110   16.1700   -2.7220 C.3    12  ILE12       0.0019
      8  CD1      -18.2960   15.8020   -0.5370 C.3    12  ILE12       0.0001
      9  N        -28.4350   22.5740    2.6810 N.3   230  SER230     -0.1202
     10  CA       -27.6440   21.5830    1.9710 C.3   230  SER230      0.2020
     11  C        -27.5980   20.2900    2.7630 C.2   230  SER230      0.2619
     12  O        -27.6480   20.2770    3.9980 O.2   230  SER230     -0.2717
     13  CB       -26.2240   22.0570    1.7280 C.3   230  SER230      0.2103
     14  OG       -25.5040   21.0820    0.9980 O.3   230  SER230     -0.2182
     15  N        -27.5280   19.1960    2.0200 N.am  231  ILE231     -0.1965
     16  CA       -27.3840   17.8780    2.5910 C.3   231  ILE231      0.1727
     17  C        -26.0250   17.8250    3.3350 C.2   231  ILE231      0.2616
     18  O        -25.8860   17.1620    4.3680 O.2   231  ILE231     -0.2715
     19  CB       -27.5140   16.7940    1.4820 C.3   231  ILE231      0.0290
     20  CG1      -27.6360   15.3970    2.0990 C.3   231  ILE231      0.0022
     21  CG2      -26.3510   16.8560    0.4890 C.3   231  ILE231      0.0023
     22  CD1      -27.6240   14.2500    1.1000 C.3   231  ILE231      0.0001
     23  N        -25.0550   18.5680    2.8090 N.am  232  GLY232     -0.1955
     24  CA       -23.7100   18.6050    3.3360 C.3   232  GLY232      0.1869
     25  C        -23.4630   19.2840    4.6760 C.2   232  GLY232      0.2309
     26  O        -22.3180   19.4780    5.0230 O.2   232  GLY232     -0.2863
     27  N        -24.1780   13.1890    3.5250 N.3   250  HIS250     -0.1226
     28  CA       -23.8380   13.3470    2.1200 C.3   250  HIS250      0.1752
     29  C        -22.9830   12.2170    1.5660 C.2   250  HIS250      0.2596
     30  O        -22.5490   11.3140    2.3150 O.2   250  HIS250     -0.2718
     31  CB       -23.1830   14.7090    1.8610 C.3   250  HIS250      0.0759
     32  CG       -21.7840   14.8350    2.3730 C.ar  250  HIS250      0.0818
     33  ND1      -20.7060   14.2590    1.7430 N.ar  250  HIS250     -0.2268
     34  CD2      -21.2810   15.5370    3.4170 C.ar  250  HIS250      0.1154
     35  CE1      -19.6010   14.5630    2.4010 C.ar  250  HIS250      0.1986
     36  NE2      -19.9250   15.3250    3.4310 N.ar  250  HIS250     -0.2212
     37  N        -22.7410   12.2680    0.2480 N.am  251  GLY251     -0.1957
     38  CA       -22.0390   11.1900   -0.4520 C.3   251  GLY251      0.1869
     39  C        -20.7370   11.6590   -1.0570 C.2   251  GLY251      0.2309
     40  O        -20.2300   12.7390   -0.7360 O.2   251  GLY251     -0.2863
     41  N        -19.8660   12.9340   -3.8430 N.3   253  ALA253     -0.1245
     42  CA       -19.8320   14.0910   -4.7340 C.3   253  ALA253      0.1562
     43  C        -18.6140   14.0760   -5.6560 C.2   253  ALA253      0.2260
     44  O        -17.8040   14.9970   -5.6210 O.2   253  ALA253     -0.2867
     45  CB       -19.8440   15.3580   -3.9090 C.3   253  ALA253      0.0290
     46  N        -18.1040   14.7400   -8.6960 N.3   255  ASP255     -0.1225
     47  CA       -17.9540   15.8360   -9.6510 C.3   255  ASP255      0.1805
     48  C        -17.2330   17.0550   -9.0690 C.2   255  ASP255      0.2597
     49  O        -16.5870   17.7690   -9.8190 O.2   255  ASP255     -0.2718
     50  CB       -19.2970   16.2380  -10.2410 C.3   255  ASP255      0.1424
     51  CG       -20.2650   16.7190   -9.1930 C.2   255  ASP255      0.3668
     52  OD1      -20.4050   16.0360   -8.1530 O.co2 255  ASP255     -0.2456
     53  OD2      -20.8940   17.7730   -9.4090 O.co2 255  ASP255     -0.2456
     54  N        -17.3170   17.2930   -7.7560 N.am  256  ILE256     -0.1980
     55  CA       -16.5640   18.4100   -7.1330 C.3   256  ILE256      0.1595
     56  C        -15.3530   17.9610   -6.3260 C.2   256  ILE256      0.2287
     57  O        -14.7560   18.7560   -5.5840 O.2   256  ILE256     -0.2864
     58  CB       -17.4210   19.3050   -6.2050 C.3   256  ILE256      0.0276
     59  CG1      -17.9090   18.5360   -4.9690 C.3   256  ILE256      0.0022
     60  CG2      -18.5860   19.9230   -6.9650 C.3   256  ILE256      0.0022
     61  CD1      -18.2180   19.4370   -3.7950 C.3   256  ILE256      0.0001
     62  N        -14.0180   22.8490   -2.5220 N.3   261  ILE261     -0.1231
     63  CA       -15.2850   23.5380   -2.1810 C.3   261  ILE261      0.1692
     64  C        -16.2920   22.7480   -1.3360 C.2   261  ILE261      0.2592
     65  O        -17.2940   23.3040   -0.8740 O.2   261  ILE261     -0.2718
     66  CB       -16.0020   24.1180   -3.4350 C.3   261  ILE261      0.0266
     67  CG1      -16.2490   23.0400   -4.4990 C.3   261  ILE261      0.0019
     68  CG2      -15.1870   25.2670   -4.0250 C.3   261  ILE261      0.0020
     69  CD1      -17.4050   23.3590   -5.4250 C.3   261  ILE261      0.0001
     70  N        -16.0250   21.4690   -1.1070 N.am  262  ALA262     -0.1966
     71  CA       -16.9230   20.6280   -0.3090 C.3   262  ALA262      0.1728
     72  C        -17.2160   21.2140    1.0740 C.2   262  ALA262      0.2616
     73  O        -16.3510   21.8180    1.7260 O.2   262  ALA262     -0.2715
     74  CB       -16.3310   19.2410   -0.1570 C.3   262  ALA262      0.0334
     75  N        -18.4490   21.0170    1.5130 N.am  263  ASN263     -0.1972
     76  CA       -18.8700   21.4130    2.8380 C.3   263  ASN263      0.1688
     77  C        -18.4090   20.3670    3.8650 C.2   263  ASN263      0.2292
     78  O        -18.8500   19.2250    3.7980 O.2   263  ASN263     -0.2864
     79  CB       -20.3940   21.5460    2.8570 C.3   263  ASN263      0.1181
     80  CG       -20.9110   22.1860    4.1190 C.2   263  ASN263      0.2629
     81  OD1      -20.1730   22.3620    5.0880 O.2   263  ASN263     -0.2716
     82  ND2      -22.1900   22.5360    4.1240 N.am  263  ASN263     -0.0877
     83  N        -22.5220   25.1780   -1.9160 N.3   301  ASP301     -0.1239
     84  CA       -23.7730   24.4370   -1.8120 C.3   301  ASP301      0.1674
     85  C        -24.7410   25.1230   -0.8720 C.2   301  ASP301      0.2266
     86  O        -25.9400   24.8540   -0.9190 O.2   301  ASP301     -0.2867
     87  CB       -23.5310   23.0060   -1.3430 C.3   301  ASP301      0.1410
     88  CG       -22.7500   22.9410   -0.0420 C.2   301  ASP301      0.3668
     89  OD1      -21.5260   23.1850   -0.1130 O.co2 301  ASP301     -0.2456
     90  OD2      -23.3620   22.6520    1.0220 O.co2 301  ASP301     -0.2456
@<TRIPOS>BOND
     1    50    47    1
     2    50    51    1
     3    49    48    2
     4    47    48    1
     5    47    46    1
     6    53    51   ar
     7    51    52   ar
     8    48    54   am
     9    54    55    1
    10    55    56    1
    11    55    58    1
    12    60    58    1
    13    56    57    2
    14    58    59    1
    15    43    44    2
    16    43    42    1
    17    69    67    1
    18    59    61    1
    19    42    45    1
    20    42    41    1
    21    67    66    1
    22    68    66    1
    23    66    63    1
    24     7     5    1
    25    62    63    1
    26     1     2    1
    27    63    64    1
    28    83    84    1
    29    84    87    1
    30    84    85    1
    31     2     5    1
    32     2     3    1
    33     5     6    1
    34    87    88    1
    35    64    70   am
    36    64    65    2
    37    70    71    1
    38    39    40    2
    39    39    38    1
    40     6     8    1
    41    86    85    2
    42    38    37    1
    43    71    74    1
    44    71    72    1
    45    89    88   ar
    46    88    90   ar
    47     3     4    2
    48    37    29   am
    49    21    19    1
    50    14    13    1
    51    72    75   am
    52    72    73    2
    53    22    20    1
    54    19    20    1
    55    19    16    1
    56    75    76    1
    57    29    28    1
    58    29    30    2
    59    13    10    1
    60    33    32   ar
    61    33    35   ar
    62    31    28    1
    63    31    32    1
    64    10     9    1
    65    10    11    1
    66    15    16    1
    67    15    11   am
    68    28    27    1
    69    32    34   ar
    70    35    36   ar
    71    16    17    1
    72    11    12    2
    73    23    17   am
    74    23    24    1
    75    76    79    1
    76    76    77    1
    77    79    80    1
    78    17    18    2
    79    24    25    1
    80    34    36   ar
    81    78    77    2
    82    80    82   am
    83    80    81    2
    84    25    26    2
