@<TRIPOS>MOLECULE
tmp/5hn5A00.pdb
 113 102 0 0 0
SMALL
GASTEIGER

@<TRIPOS>ATOM
      1  N        -18.1260    7.2300    0.0900 N.3    69  THR69      -0.1218
      2  CA       -17.6800    6.1840   -0.7950 C.3    69  THR69       0.1862
      3  C        -18.5280    6.1880   -2.0560 C.2    69  THR69       0.2287
      4  O        -19.7670    6.3470   -2.0050 O.2    69  THR69      -0.2866
      5  CB       -17.8000    4.8220   -0.0750 C.3    69  THR69       0.1770
      6  OG1      -17.2260    3.8030   -0.8800 O.3    69  THR69      -0.2211
      7  CG2      -19.2710    4.4430    0.2440 C.3    69  THR69       0.0375
      8  N        -20.3350    4.2920   -4.7880 N.3    71  THR71      -0.1218
      9  CA       -20.7840    2.9450   -5.1160 C.3    71  THR71       0.1862
     10  C        -21.2590    2.9200   -6.5680 C.2    71  THR71       0.2287
     11  O        -22.3990    3.3050   -6.8410 O.2    71  THR71      -0.2866
     12  CB       -21.8780    2.4490   -4.1420 C.3    71  THR71       0.1770
     13  OG1      -21.2770    2.1890   -2.8590 O.3    71  THR71      -0.2211
     14  CG2      -22.5550    1.1460   -4.6750 C.3    71  THR71       0.0375
     15  N        -21.7010   -1.6780   -1.6370 N.3    80  SER80      -0.1217
     16  CA       -21.3920   -0.4430   -0.8970 C.3    80  SER80       0.1889
     17  C        -20.5280   -0.6840    0.3400 C.2    80  SER80       0.2288
     18  O        -20.8160   -1.5640    1.1630 O.2    80  SER80      -0.2866
     19  CB       -22.7010    0.1950   -0.4410 C.3    80  SER80       0.2089
     20  OG       -22.5140    1.4190    0.2550 O.3    80  SER80      -0.2183
     21  N        -20.2380    1.4140    2.9470 N.3    82  ILE82      -0.1231
     22  CA       -20.9790    1.7490    4.1680 C.3    82  ILE82       0.1692
     23  C        -22.0030    0.6660    4.4970 C.2    82  ILE82       0.2591
     24  O        -22.1070    0.2150    5.6620 O.2    82  ILE82      -0.2718
     25  CB       -21.5620    3.2030    4.1790 C.3    82  ILE82       0.0266
     26  CG1      -22.1240    3.5530    5.5490 C.3    82  ILE82       0.0019
     27  CG2      -22.6570    3.4350    3.1440 C.3    82  ILE82       0.0020
     28  CD1      -21.0630    3.7900    6.6040 C.3    82  ILE82       0.0001
     29  N        -22.7210    0.1770    3.4870 N.am   83  LEU83      -0.1980
     30  CA       -23.6950   -0.9120    3.7420 C.3    83  LEU83       0.1596
     31  C        -22.9990   -2.1730    4.3010 C.2    83  LEU83       0.2287
     32  O        -23.4930   -2.8210    5.2230 O.2    83  LEU83      -0.2864
     33  CB       -24.5350   -1.2250    2.4990 C.3    83  LEU83       0.0297
     34  CG       -25.4190   -0.0740    1.9810 C.3    83  LEU83       0.0022
     35  CD1      -26.1310   -0.4810    0.7040 C.3    83  LEU83       0.0001
     36  CD2      -26.4440    0.3550    3.0220 C.3    83  LEU83       0.0001
     37  N        -21.9360   -1.4210    7.9520 N.3    86  ARG86      -0.1245
     38  CA       -23.1470   -1.4750    8.7740 C.3    86  ARG86       0.1563
     39  C        -23.5150   -2.8910    9.2150 C.2    86  ARG86       0.2260
     40  O        -23.9020   -3.1120   10.3530 O.2    86  ARG86      -0.2867
     41  CB       -24.3450   -0.8600    8.0300 C.3    86  ARG86       0.0307
     42  CG       -24.3140    0.6580    7.9960 C.3    86  ARG86       0.0489
     43  CD       -25.4560    1.2450    7.1910 C.3    86  ARG86       0.2205
     44  NE       -25.2770    2.6780    6.9690 N.pl3  86  ARG86      -0.0865
     45  CZ       -25.9480    3.3840    6.0560 C.cat  86  ARG86       0.5346
     46  NH1      -26.8650    2.8000    5.2730 N.pl3  86  ARG86       0.1354
     47  NH2      -25.6880    4.6780    5.9070 N.pl3  86  ARG86       0.1354
     48  N        -29.9440   10.4210   12.4200 N.3    96  ARG96      -0.1245
     49  CA       -29.6560   11.5790   11.5890 C.3    96  ARG96       0.1563
     50  C        -30.3570   12.7830   12.1830 C.2    96  ARG96       0.2260
     51  O        -31.5260   12.7130   12.5520 O.2    96  ARG96      -0.2867
     52  CB       -30.1170   11.3170   10.1620 C.3    96  ARG96       0.0307
     53  CG       -29.1910   10.3550    9.4740 C.3    96  ARG96       0.0489
     54  CD       -29.7610    9.7230    8.2240 C.3    96  ARG96       0.2205
     55  NE       -28.7830    8.7650    7.7430 N.pl3  96  ARG96      -0.0865
     56  CZ       -28.6150    8.3860    6.4870 C.cat  96  ARG96       0.5346
     57  NH1      -29.3850    8.8570    5.4970 N.pl3  96  ARG96       0.1354
     58  NH2      -27.6580    7.5080    6.2220 N.pl3  96  ARG96       0.1354
     59  N        -33.3820    5.8120   11.8960 N.3   111  ARG111     -0.1245
     60  CA       -33.6320    4.8670   10.8030 C.3   111  ARG111      0.1563
     61  C        -33.1680    3.4940   11.2350 C.2   111  ARG111      0.2260
     62  O        -32.0130    3.3440   11.6230 O.2   111  ARG111     -0.2867
     63  CB       -32.8910    5.3400    9.5450 C.3   111  ARG111      0.0307
     64  CG       -32.4500    4.2560    8.5880 C.3   111  ARG111      0.0489
     65  CD       -31.6260    4.8670    7.4850 C.3   111  ARG111      0.2205
     66  NE       -31.3490    3.8800    6.4560 N.pl3 111  ARG111     -0.0865
     67  CZ       -30.5960    4.1020    5.3890 C.cat 111  ARG111      0.5346
     68  NH1      -30.4300    3.1500    4.4880 N.pl3 111  ARG111      0.1354
     69  NH2      -30.0240    5.2780    5.2040 N.pl3 111  ARG111      0.1354
     70  N        -33.2030   -3.7780    3.2810 N.3   118  TYR118     -0.1241
     71  CA       -31.7330   -3.9840    3.2900 C.3   118  TYR118      0.1605
     72  C        -31.2860   -5.3570    3.8220 C.2   118  TYR118      0.2264
     73  O        -30.1000   -5.6550    3.8140 O.2   118  TYR118     -0.2867
     74  CB       -31.0460   -2.8890    4.1480 C.3   118  TYR118      0.0534
     75  CG       -31.0410   -1.5350    3.4920 C.ar  118  TYR118     -0.0201
     76  CD1      -32.2100   -0.7910    3.3780 C.ar  118  TYR118     -0.0009
     77  CD2      -29.8840   -1.0150    2.9430 C.ar  118  TYR118     -0.0009
     78  CE1      -32.2220    0.4460    2.7440 C.ar  118  TYR118      0.0417
     79  CE2      -29.8790    0.2350    2.3400 C.ar  118  TYR118      0.0417
     80  CZ       -31.0440    0.9530    2.2330 C.ar  118  TYR118      0.1957
     81  OH       -31.0240    2.1720    1.6170 O.3   118  TYR118     -0.2866
     82  N        -34.1940    5.9700    4.9330 N.3   218  ASP218     -0.1239
     83  CA       -33.2200    6.4380    3.9650 C.3   218  ASP218      0.1674
     84  C        -33.8610    7.5730    3.1900 C.2   218  ASP218      0.2266
     85  O        -33.2390    8.6270    2.9830 O.2   218  ASP218     -0.2867
     86  CB       -32.8190    5.2820    3.0450 C.3   218  ASP218      0.1410
     87  CG       -31.9290    5.7130    1.8900 C.2   218  ASP218      0.3668
     88  OD1      -30.7860    6.1940    2.1330 O.co2 218  ASP218     -0.2456
     89  OD2      -32.3730    5.5080    0.7330 O.co2 218  ASP218     -0.2456
     90  N        -33.0190   11.9830    3.6080 N.3   222  ASP222     -0.1239
     91  CA       -32.6130   12.8340    2.4850 C.3   222  ASP222      0.1674
     92  C        -33.5960   13.9910    2.2280 C.2   222  ASP222      0.2266
     93  O        -33.1790   15.1030    1.8910 O.2   222  ASP222     -0.2867
     94  CB       -32.4820   12.0110    1.2120 C.3   222  ASP222      0.1410
     95  CG       -31.0690   11.6170    0.9130 C.2   222  ASP222      0.3668
     96  OD1      -30.3130   11.3020    1.8480 O.co2 222  ASP222     -0.2456
     97  OD2      -30.7130   11.6150   -0.2830 O.co2 222  ASP222     -0.2456
     98  N        -20.5270    9.3700   10.0900 N.3   247  GLU247     -0.1245
     99  CA       -20.3130    9.7690    8.7190 C.3   247  GLU247      0.1567
    100  C        -21.2550   10.8770    8.4210 C.2   247  GLU247      0.2260
    101  O        -22.3780   10.8800    8.9350 O.2   247  GLU247     -0.2867
    102  CB       -20.6690    8.5970    7.8010 C.3   247  GLU247      0.0388
    103  CG       -22.1590    8.2240    7.8420 C.3   247  GLU247      0.1160
    104  CD       -22.5160    6.9950    7.0360 C.2   247  GLU247      0.3649
    105  OE1      -23.3810    6.1930    7.4930 O.co2 247  GLU247     -0.2457
    106  OE2      -21.9390    6.8580    5.9450 O.co2 247  GLU247     -0.2457
    107  N        -24.1320   12.5690    6.2710 N.3   249  VAL249     -0.1245
    108  CA       -25.1710   11.9860    5.4230 C.3   249  VAL249      0.1561
    109  C        -24.8030   12.0900    3.9470 C.2   249  VAL249      0.2260
    110  O        -25.0300   11.1570    3.2100 O.2   249  VAL249     -0.2867
    111  CB       -26.5620   12.5870    5.7050 C.3   249  VAL249      0.0252
    112  CG1      -27.5840   12.1360    4.6460 C.3   249  VAL249      0.0019
    113  CG2      -27.0300   12.1390    7.0930 C.3   249  VAL249      0.0019
@<TRIPOS>BOND
     1    11    10    2
     2    10     9    1
     3     9     8    1
     4     9    12    1
     5    14    12    1
     6    12    13    1
     7     3     4    2
     8     3     2    1
     9    15    16    1
    10    16    19    1
    11    16    17    1
    12     6     5    1
    13     2     5    1
    14     2     1    1
    15    19    20    1
    16    97    95   ar
    17     5     7    1
    18    17    18    2
    19    35    34    1
    20    89    87   ar
    21    95    94    1
    22    95    96   ar
    23    94    91    1
    24    81    80    1
    25    87    88   ar
    26    87    86    1
    27    93    92    2
    28    34    33    1
    29    34    36    1
    30    92    91    1
    31    80    79   ar
    32    80    78   ar
    33    79    77   ar
    34    91    90    1
    35    33    30    1
    36    78    76   ar
    37    77    75   ar
    38    21    22    1
    39    85    84    2
    40    86    83    1
    41    27    25    1
    42    84    83    1
    43   110   109    2
    44    70    71    1
    45    71    72    1
    46    71    74    1
    47    76    75   ar
    48    29    30    1
    49    29    23   am
    50    75    74    1
    51    30    31    1
    52    73    72    2
    53   109   108    1
    54    83    82    1
    55    22    25    1
    56    22    23    1
    57    25    26    1
    58    31    32    2
    59    68    67    1
    60    23    24    2
    61   112   111    1
    62    69    67    1
    63    46    45    1
    64    67    66    2
    65   108   111    1
    66   108   107    1
    67    57    56    1
    68    26    28    1
    69   111   113    1
    70    47    45    1
    71   106   104   ar
    72    45    44    2
    73    58    56    1
    74    66    65    1
    75    56    55    2
    76    44    43    1
    77   104   105   ar
    78   104   103    1
    79    43    42    1
    80    65    64    1
    81    55    54    1
    82   102   103    1
    83   102    99    1
    84    37    38    1
    85    42    41    1
    86    41    38    1
    87    54    53    1
    88   100    99    1
    89   100   101    2
    90    64    63    1
    91    99    98    1
    92    38    39    1
    93    39    40    2
    94    53    52    1
    95    63    60    1
    96    52    49    1
    97    60    61    1
    98    60    59    1
    99    61    62    2
   100    49    50    1
   101    49    48    1
   102    50    51    2
