@<TRIPOS>MOLECULE
tmp/5hn6A00.pdb
 113 102 0 0 0
SMALL
GASTEIGER

@<TRIPOS>ATOM
      1  N         22.3610   47.1060  142.9090 N.3    69  THR69      -0.1218
      2  CA        22.8590   46.0420  142.0720 C.3    69  THR69       0.1862
      3  C         22.0710   46.0410  140.8060 C.2    69  THR69       0.2287
      4  O         20.8250   46.1010  140.8150 O.2    69  THR69      -0.2866
      5  CB        22.7170   44.6930  142.7970 C.3    69  THR69       0.1770
      6  OG1       23.1970   43.6530  141.9610 O.3    69  THR69      -0.2211
      7  CG2       21.2500   44.3930  143.1680 C.3    69  THR69       0.0375
      8  N         20.4260   44.2190  137.8610 N.3    71  THR71      -0.1218
      9  CA        20.0080   42.8690  137.4940 C.3    71  THR71       0.1862
     10  C         19.4630   42.8340  136.0690 C.2    71  THR71       0.2287
     11  O         18.2720   43.1020  135.8410 O.2    71  THR71      -0.2866
     12  CB        19.0000   42.2730  138.4790 C.3    71  THR71       0.1770
     13  OG1       19.6100   42.1970  139.7810 O.3    71  THR71      -0.2211
     14  CG2       18.5620   40.8430  137.9920 C.3    71  THR71       0.0375
     15  N         18.8200   37.6900  141.2180 N.3    80  SER80      -0.1217
     16  CA        19.0630   38.9900  141.8960 C.3    80  SER80       0.1889
     17  C         19.8630   38.8360  143.2160 C.2    80  SER80       0.2288
     18  O         19.5050   38.0480  144.0790 O.2    80  SER80      -0.2866
     19  CB        17.7400   39.6970  142.2160 C.3    80  SER80       0.2089
     20  OG        17.8560   41.1130  142.0970 O.3    80  SER80      -0.2183
     21  N         20.0790   40.8670  145.7940 N.3    82  ILE82      -0.1231
     22  CA        19.2960   41.2200  146.9560 C.3    82  ILE82       0.1692
     23  C         18.2650   40.1760  147.3380 C.2    82  ILE82       0.2591
     24  O         18.0390   39.8970  148.5500 O.2    82  ILE82      -0.2718
     25  CB        18.7140   42.6480  146.8510 C.3    82  ILE82       0.0266
     26  CG1       18.0800   43.0380  148.1700 C.3    82  ILE82       0.0019
     27  CG2       17.7320   42.7970  145.6950 C.3    82  ILE82       0.0020
     28  CD1       19.0680   43.0690  149.3170 C.3    82  ILE82       0.0001
     29  N         17.6380   39.5490  146.3560 N.am   83  LEU83      -0.1980
     30  CA        16.6900   38.4420  146.6970 C.3    83  LEU83       0.1596
     31  C         17.4260   37.2730  147.3340 C.2    83  LEU83       0.2287
     32  O         16.9940   36.7170  148.3590 O.2    83  LEU83      -0.2864
     33  CB        15.8890   37.9720  145.4940 C.3    83  LEU83       0.0297
     34  CG        15.0420   39.0950  144.8760 C.3    83  LEU83       0.0022
     35  CD1       14.4440   38.6470  143.5450 C.3    83  LEU83       0.0001
     36  CD2       13.9720   39.6560  145.8210 C.3    83  LEU83       0.0001
     37  N         18.2960   38.3270  150.9270 N.3    86  ARG86      -0.1245
     38  CA        17.0490   38.2830  151.7000 C.3    86  ARG86       0.1563
     39  C         16.7090   36.8950  152.1550 C.2    86  ARG86       0.2260
     40  O         16.3640   36.6630  153.2990 O.2    86  ARG86      -0.2867
     41  CB        15.8820   38.8390  150.8770 C.3    86  ARG86       0.0307
     42  CG        15.9350   40.3550  150.7560 C.3    86  ARG86       0.0489
     43  CD        14.7710   40.9390  149.9920 C.3    86  ARG86       0.2205
     44  NE        15.0320   42.3390  149.7080 N.pl3  86  ARG86      -0.0865
     45  CZ        14.3500   43.0640  148.8300 C.cat  86  ARG86       0.5346
     46  NH1       13.3370   42.5180  148.1490 N.pl3  86  ARG86       0.1354
     47  NH2       14.6670   44.3520  148.6500 N.pl3  86  ARG86       0.1354
     48  N         10.2000   50.3130  155.2430 N.3    96  ARG96      -0.1245
     49  CA        10.5070   51.4400  154.3960 C.3    96  ARG96       0.1563
     50  C          9.7730   52.6400  154.9830 C.2    96  ARG96       0.2260
     51  O          8.5710   52.5690  155.2840 O.2    96  ARG96      -0.2867
     52  CB        10.0640   51.1270  152.9700 C.3    96  ARG96       0.0307
     53  CG        10.8940   50.0120  152.3620 C.3    96  ARG96       0.0489
     54  CD        10.4020   49.4120  151.0460 C.3    96  ARG96       0.2205
     55  NE        11.4590   48.5370  150.5590 N.pl3  96  ARG96      -0.0865
     56  CZ        11.6970   48.1950  149.3000 C.cat  96  ARG96       0.5346
     57  NH1       10.9380   48.6440  148.2810 N.pl3  96  ARG96       0.1354
     58  NH2       12.7260   47.3680  149.0580 N.pl3  96  ARG96       0.1354
     59  N          6.6800   45.8190  154.7490 N.3   111  ARG111     -0.1245
     60  CA         6.5080   44.9050  153.6380 C.3   111  ARG111      0.1563
     61  C          6.9730   43.5520  154.0940 C.2   111  ARG111      0.2260
     62  O          8.1440   43.3900  154.4090 O.2   111  ARG111     -0.2867
     63  CB         7.3560   45.3810  152.4520 C.3   111  ARG111      0.0307
     64  CG         7.5890   44.3590  151.3600 C.3   111  ARG111      0.0489
     65  CD         8.4780   44.9260  150.2700 C.3   111  ARG111      0.2205
     66  NE         8.8250   43.9040  149.3040 N.pl3 111  ARG111     -0.0865
     67  CZ         9.6250   44.0760  148.2690 C.cat 111  ARG111      0.5346
     68  NH1        9.8630   43.0620  147.4350 N.pl3 111  ARG111      0.1354
     69  NH2       10.1830   45.2510  148.0480 N.pl3 111  ARG111      0.1354
     70  N          6.8860   36.2470  146.1960 N.3   118  TYR118     -0.1241
     71  CA         8.3540   36.0830  146.1990 C.3   118  TYR118      0.1605
     72  C          8.7720   34.7090  146.7560 C.2   118  TYR118      0.2264
     73  O          9.9540   34.4130  146.8570 O.2   118  TYR118     -0.2867
     74  CB         9.0240   37.2050  147.0690 C.3   118  TYR118      0.0534
     75  CG         9.0070   38.5680  146.4130 C.ar  118  TYR118     -0.0201
     76  CD1        7.8150   39.2580  146.2150 C.ar  118  TYR118     -0.0009
     77  CD2       10.1670   39.1530  145.9520 C.ar  118  TYR118     -0.0009
     78  CE1        7.7890   40.5000  145.5820 C.ar  118  TYR118      0.0417
     79  CE2       10.1490   40.4090  145.3440 C.ar  118  TYR118      0.0417
     80  CZ         8.9550   41.0590  145.1410 C.ar  118  TYR118      0.1957
     81  OH         8.9460   42.2730  144.5260 O.3   118  TYR118     -0.2866
     82  N          6.0690   45.9120  147.9280 N.3   218  ASP218     -0.1239
     83  CA         6.9730   46.3960  146.8770 C.3   218  ASP218      0.1674
     84  C          6.3390   47.5460  146.1120 C.2   218  ASP218      0.2266
     85  O          6.9900   48.5760  145.8420 O.2   218  ASP218     -0.2867
     86  CB         7.3300   45.2790  145.8700 C.3   218  ASP218      0.1410
     87  CG         8.3150   45.7610  144.7730 C.2   218  ASP218      0.3668
     88  OD1        9.4520   46.2480  145.0860 O.co2 218  ASP218     -0.2456
     89  OD2        7.9300   45.6590  143.5920 O.co2 218  ASP218     -0.2456
     90  N          7.2740   52.0110  146.4880 N.3   222  ASP222     -0.1239
     91  CA         7.6920   52.8380  145.3840 C.3   222  ASP222      0.1674
     92  C          6.6720   53.9390  145.1860 C.2   222  ASP222      0.2266
     93  O          7.0440   55.0980  145.0530 O.2   222  ASP222     -0.2867
     94  CB         7.7700   52.0380  144.1110 C.3   222  ASP222      0.1410
     95  CG         9.1400   51.5660  143.8080 C.2   222  ASP222      0.3668
     96  OD1        9.8840   51.1680  144.7370 O.co2 222  ASP222     -0.2456
     97  OD2        9.4480   51.5670  142.5990 O.co2 222  ASP222     -0.2456
     98  N         19.6000   49.0100  152.9920 N.3   247  GLU247     -0.1245
     99  CA        19.8750   49.4460  151.6440 C.3   247  GLU247      0.1567
    100  C         18.9600   50.5680  151.2790 C.2   247  GLU247      0.2260
    101  O         17.8020   50.6080  151.7170 O.2   247  GLU247     -0.2867
    102  CB        19.6260   48.2880  150.6630 C.3   247  GLU247      0.0388
    103  CG        18.1450   47.8830  150.6080 C.3   247  GLU247      0.1160
    104  CD        17.8230   46.8280  149.5720 C.2   247  GLU247      0.3649
    105  OE1       16.8350   46.0930  149.8060 O.co2 247  GLU247     -0.2457
    106  OE2       18.5500   46.7340  148.5460 O.co2 247  GLU247     -0.2457
    107  N         16.2190   52.2110  149.0530 N.3   249  VAL249     -0.1245
    108  CA        15.1770   51.7180  148.1750 C.3   249  VAL249      0.1561
    109  C         15.5050   51.9090  146.6890 C.2   249  VAL249      0.2260
    110  O         15.2340   51.0440  145.9010 O.2   249  VAL249     -0.2867
    111  CB        13.8140   52.3400  148.5110 C.3   249  VAL249      0.0252
    112  CG1       12.7370   51.8470  147.5300 C.3   249  VAL249      0.0019
    113  CG2       13.4200   51.9620  149.9260 C.3   249  VAL249      0.0019
@<TRIPOS>BOND
     1    11    10    2
     2    10     9    1
     3     9     8    1
     4     9    12    1
     5    14    12    1
     6    12    13    1
     7     3     4    2
     8     3     2    1
     9    15    16    1
    10    16    19    1
    11    16    17    1
    12     6     5    1
    13     2     5    1
    14     2     1    1
    15    20    19    1
    16    97    95   ar
    17     5     7    1
    18    17    18    2
    19    35    34    1
    20    89    87   ar
    21    95    94    1
    22    95    96   ar
    23    94    91    1
    24    81    80    1
    25    87    88   ar
    26    87    86    1
    27    34    33    1
    28    34    36    1
    29    93    92    2
    30    80    79   ar
    31    80    78   ar
    32    92    91    1
    33    79    77   ar
    34    91    90    1
    35    33    30    1
    36    78    76   ar
    37    27    25    1
    38    21    22    1
    39    85    84    2
    40    86    83    1
    41   110   109    2
    42    77    75   ar
    43    84    83    1
    44    70    71    1
    45    71    72    1
    46    71    74    1
    47    76    75   ar
    48    29    30    1
    49    29    23   am
    50    75    74    1
    51   109   108    1
    52    30    31    1
    53    72    73    2
    54    25    22    1
    55    25    26    1
    56    83    82    1
    57    22    23    1
    58    31    32    2
    59    23    24    2
    60    68    67    1
    61   112   111    1
    62    69    67    1
    63    46    45    1
    64    26    28    1
    65   108   111    1
    66   108   107    1
    67    67    66    2
    68    57    56    1
    69   111   113    1
    70   106   104   ar
    71    47    45    1
    72    45    44    2
    73    58    56    1
    74    56    55    2
    75    66    65    1
    76   104   105   ar
    77   104   103    1
    78    44    43    1
    79    43    42    1
    80    65    64    1
    81    55    54    1
    82   103   102    1
    83   102    99    1
    84    42    41    1
    85    41    38    1
    86    37    38    1
    87    54    53    1
    88   100    99    1
    89   100   101    2
    90    64    63    1
    91    99    98    1
    92    38    39    1
    93    39    40    2
    94    53    52    1
    95    63    60    1
    96    52    49    1
    97    60    61    1
    98    60    59    1
    99    61    62    2
   100    49    50    1
   101    49    48    1
   102    50    51    2
