@<TRIPOS>MOLECULE
tmp/5hn8B00.pdb
 205 195 0 0 0
SMALL
GASTEIGER

@<TRIPOS>ATOM
      1  N         -0.4810  -15.9500  -37.7800 N.3    46  GLY46      -0.1210
      2  CA         0.1420  -17.0720  -37.0780 C.3    46  GLY46       0.1956
      3  C          1.5390  -17.3640  -37.5860 C.2    46  GLY46       0.2612
      4  O          1.9550  -16.8180  -38.6340 O.2    46  GLY46      -0.2717
      5  N          2.2520  -18.2350  -36.8650 N.am   47  LYS47      -0.1965
      6  CA         3.6640  -18.5250  -37.1700 C.3    47  LYS47       0.1728
      7  C          3.8420  -19.3780  -38.4100 C.2    47  LYS47       0.2616
      8  O          4.9150  -19.3740  -39.0230 O.2    47  LYS47      -0.2715
      9  CB         4.3500  -19.1940  -35.9940 C.3    47  LYS47       0.0311
     10  CG         4.3430  -18.3620  -34.7220 C.3    47  LYS47       0.0038
     11  CD         5.0200  -19.1180  -33.6010 C.3    47  LYS47       0.0206
     12  CE         4.2820  -20.4330  -33.2660 C.3    47  LYS47       0.1093
     13  NZ         2.9050  -20.2460  -32.6810 N.3    47  LYS47      -0.1314
     14  N          2.7810  -20.1070  -38.7680 N.am   48  ASN48      -0.1958
     15  CA         2.7010  -20.8930  -40.0150 C.3    48  ASN48       0.1819
     16  C          3.5850  -22.1250  -40.0790 C.2    48  ASN48       0.2621
     17  O          3.8910  -22.6030  -41.1740 O.2    48  ASN48      -0.2715
     18  CB         2.9360  -20.0230  -41.2570 C.3    48  ASN48       0.1195
     19  CG         1.9740  -18.8540  -41.3410 C.2    48  ASN48       0.2630
     20  OD1        0.7700  -19.0090  -41.1130 O.2    48  ASN48      -0.2716
     21  ND2        2.4940  -17.6760  -41.6700 N.am   48  ASN48      -0.0877
     22  N          3.9650  -22.6620  -38.9190 N.am   49  ASN49      -0.1958
     23  CA         4.8180  -23.8550  -38.8540 C.3    49  ASN49       0.1819
     24  C          4.2890  -25.0570  -39.6120 C.2    49  ASN49       0.2621
     25  O          5.0570  -25.7530  -40.2650 O.2    49  ASN49      -0.2715
     26  CB         5.0730  -24.2620  -37.4120 C.3    49  ASN49       0.1195
     27  CG         5.8790  -23.2280  -36.6440 C.2    49  ASN49       0.2630
     28  OD1        6.6390  -22.4440  -37.2370 O.2    49  ASN49      -0.2716
     29  ND2        5.7330  -23.2270  -35.3170 N.am   49  ASN49      -0.0877
     30  N          2.9770  -25.2850  -39.5280 N.am   50  ARG50      -0.1977
     31  CA         2.3260  -26.3960  -40.2160 C.3    50  ARG50       0.1597
     32  C          2.3750  -26.2080  -41.7070 C.2    50  ARG50       0.2287
     33  O          2.6140  -27.1770  -42.4470 O.2    50  ARG50      -0.2864
     34  CB         0.8820  -26.5460  -39.7550 C.3    50  ARG50       0.0334
     35  CG         0.7530  -26.9280  -38.2670 C.3    50  ARG50       0.0492
     36  CD        -0.6780  -26.8460  -37.7240 C.3    50  ARG50       0.2205
     37  NE        -0.7090  -27.0620  -36.2820 N.pl3  50  ARG50      -0.0865
     38  CZ        -0.4650  -26.1100  -35.3740 C.cat  50  ARG50       0.5346
     39  NH1       -0.2140  -24.8520  -35.7450 N.pl3  50  ARG50       0.1354
     40  NH2       -0.4790  -26.4020  -34.0830 N.pl3  50  ARG50       0.1354
     41  N         -3.1390  -24.2310  -43.1460 N.3    80  GLU80      -0.1245
     42  CA        -3.2660  -23.0010  -42.3720 C.3    80  GLU80       0.1567
     43  C         -4.7220  -22.6150  -42.2220 C.2    80  GLU80       0.2260
     44  O         -5.1110  -22.1430  -41.1640 O.2    80  GLU80      -0.2867
     45  CB        -2.4300  -21.8800  -42.9700 C.3    80  GLU80       0.0388
     46  CG        -0.8900  -22.0530  -42.7380 C.3    80  GLU80       0.1160
     47  CD        -0.4640  -22.1870  -41.2720 C.2    80  GLU80       0.3649
     48  OE1       -0.9310  -21.4430  -40.3840 O.co2  80  GLU80      -0.2457
     49  OE2        0.3800  -23.0480  -41.0040 O.co2  80  GLU80      -0.2457
     50  N         -6.0200  -24.9000  -39.6090 N.3    83  GLN83      -0.1245
     51  CA        -5.6680  -24.2580  -38.3520 C.3    83  GLN83       0.1566
     52  C         -6.6170  -23.1180  -38.0170 C.2    83  GLN83       0.2260
     53  O         -7.1400  -23.0700  -36.9110 O.2    83  GLN83      -0.2867
     54  CB        -4.2120  -23.7730  -38.3620 C.3    83  GLN83       0.0367
     55  CG        -3.7640  -22.9820  -37.1450 C.3    83  GLN83       0.0905
     56  CD        -3.6240  -23.8420  -35.9050 C.2    83  GLN83       0.2608
     57  OE1       -4.1260  -24.9750  -35.8490 O.2    83  GLN83      -0.2717
     58  NE2       -2.9240  -23.3140  -34.8890 N.am   83  GLN83      -0.0878
     59  N         -9.8560  -24.3580  -36.7550 N.3    86  PHE86      -0.1227
     60  CA        -9.7690  -24.9500  -35.4330 C.3    86  PHE86       0.1736
     61  C         -9.6400  -23.8760  -34.3850 C.2    86  PHE86       0.2595
     62  O        -10.2110  -23.9910  -33.3120 O.2    86  PHE86      -0.2718
     63  CB        -8.5940  -25.9080  -35.2980 C.3    86  PHE86       0.0547
     64  CG        -8.7680  -27.2110  -36.0120 C.ar   86  PHE86      -0.0202
     65  CD1      -10.0230  -27.6220  -36.4820 C.ar   86  PHE86      -0.0042
     66  CD2       -7.6690  -28.0620  -36.1940 C.ar   86  PHE86      -0.0042
     67  CE1      -10.1690  -28.8700  -37.1350 C.ar   86  PHE86      -0.0003
     68  CE2       -7.8060  -29.2910  -36.8390 C.ar   86  PHE86      -0.0003
     69  CZ        -9.0470  -29.6930  -37.3170 C.ar   86  PHE86      -0.0000
     70  N         -8.8790  -22.8350  -34.6660 N.am   87  LEU87      -0.1980
     71  CA        -8.7860  -21.7150  -33.7120 C.3    87  LEU87       0.1596
     72  C        -10.1600  -21.0780  -33.5070 C.2    87  LEU87       0.2287
     73  O        -10.6000  -20.9010  -32.3550 O.2    87  LEU87      -0.2864
     74  CB        -7.7510  -20.6810  -34.1380 C.3    87  LEU87       0.0297
     75  CG        -6.3170  -21.2510  -34.2720 C.3    87  LEU87       0.0022
     76  CD1       -5.2820  -20.1070  -34.5120 C.3    87  LEU87       0.0001
     77  CD2       -5.8690  -22.1460  -33.0680 C.3    87  LEU87       0.0001
     78  N        -13.1160  -22.2810  -33.9230 N.3    89  ALA89      -0.1231
     79  CA       -14.0150  -23.2000  -33.2000 C.3    89  ALA89       0.1694
     80  C        -13.5940  -23.2700  -31.7480 C.2    89  ALA89       0.2592
     81  O        -14.4240  -23.0220  -30.8710 O.2    89  ALA89      -0.2718
     82  CB       -14.0310  -24.5530  -33.8110 C.3    89  ALA89       0.0304
     83  N        -12.3020  -23.5240  -31.5110 N.am   90  ASP90      -0.1974
     84  CA       -11.7770  -23.6820  -30.1540 C.3    90  ASP90       0.1709
     85  C        -12.1090  -22.5030  -29.2720 C.2    90  ASP90       0.2293
     86  O        -12.4890  -22.7010  -28.1400 O.2    90  ASP90      -0.2864
     87  CB       -10.2450  -23.9520  -30.1390 C.3    90  ASP90       0.1436
     88  CG        -9.6800  -24.1400  -28.7100 C.2    90  ASP90       0.3671
     89  OD1      -10.0500  -25.0950  -28.0060 O.co2  90  ASP90      -0.2456
     90  OD2       -8.8670  -23.3130  -28.2860 O.co2  90  ASP90      -0.2456
     91  N        -15.7020  -22.6240  -28.2310 N.3    93  MET93      -0.1245
     92  CA       -15.8630  -23.6570  -27.2520 C.3    93  MET93       0.1570
     93  C        -15.3050  -23.2860  -25.8820 C.2    93  MET93       0.2261
     94  O        -15.9680  -23.5070  -24.8690 O.2    93  MET93      -0.2867
     95  CB       -15.2160  -24.9360  -27.7650 C.3    93  MET93       0.0387
     96  CG       -15.8800  -25.4400  -29.0250 C.3    93  MET93       0.0595
     97  SD       -15.2220  -26.9710  -29.6540 S.3    93  MET93      -0.1393
     98  CE       -15.3380  -28.0830  -28.2360 C.3    93  MET93       0.0692
     99  N         -6.8140  -13.9740  -29.2950 N.3    99  ARG99      -0.1231
    100  CA        -6.1390  -14.9400  -30.1470 C.3    99  ARG99       0.1694
    101  C         -5.3000  -14.2010  -31.1740 C.2    99  ARG99       0.2591
    102  O         -5.8310  -13.4020  -31.9580 O.2    99  ARG99      -0.2718
    103  CB        -7.1520  -15.8660  -30.8380 C.3    99  ARG99       0.0321
    104  CG        -6.5370  -16.9300  -31.7410 C.3    99  ARG99       0.0489
    105  CD        -5.8040  -18.0230  -30.9700 C.3    99  ARG99       0.2205
    106  NE        -6.7460  -18.9750  -30.4020 N.pl3  99  ARG99      -0.0865
    107  CZ        -6.4160  -20.1410  -29.8580 C.cat  99  ARG99       0.5346
    108  NH1       -5.1420  -20.5300  -29.8090 N.pl3  99  ARG99       0.1354
    109  NH2       -7.3770  -20.9120  -29.3610 N.pl3  99  ARG99       0.1354
    110  N         -3.9910  -14.4840  -31.1490 N.am  100  ARG100     -0.1980
    111  CA        -2.9800  -13.8060  -31.9780 C.3   100  ARG100      0.1597
    112  C         -2.9870  -12.2950  -31.7370 C.2   100  ARG100      0.2287
    113  O         -2.8790  -11.4920  -32.6870 O.2   100  ARG100     -0.2864
    114  CB        -3.1650  -14.1260  -33.4640 C.3   100  ARG100      0.0334
    115  CG        -2.8300  -15.5510  -33.8220 C.3   100  ARG100      0.0492
    116  CD        -3.1050  -15.8200  -35.2870 C.3   100  ARG100      0.2205
    117  NE        -3.0410  -17.2450  -35.5900 N.pl3 100  ARG100     -0.0865
    118  CZ        -3.3700  -17.7770  -36.7600 C.cat 100  ARG100      0.5346
    119  NH1       -3.2730  -19.0810  -36.9520 N.pl3 100  ARG100      0.1354
    120  NH2       -3.7980  -17.0000  -37.7500 N.pl3 100  ARG100      0.1354
    121  N        -16.9100  -21.6780  -39.2240 N.3   120  VAL120     -0.1245
    122  CA       -16.0480  -22.8160  -39.0310 C.3   120  VAL120      0.1561
    123  C        -16.2880  -23.8530  -40.1290 C.2   120  VAL120      0.2260
    124  O        -15.3400  -24.3790  -40.7290 O.2   120  VAL120     -0.2867
    125  CB       -16.2280  -23.4630  -37.6850 C.3   120  VAL120      0.0252
    126  CG1      -15.3160  -24.7170  -37.5780 C.3   120  VAL120      0.0019
    127  CG2      -15.8690  -22.4940  -36.5950 C.3   120  VAL120      0.0019
    128  N         -8.5420  -35.1430  -34.6160 N.3   155  THR155     -0.1203
    129  CA        -8.5760  -33.8490  -33.9200 C.3   155  THR155      0.1994
    130  C         -9.8900  -33.5660  -33.1770 C.2   155  THR155      0.2617
    131  O         -9.8710  -33.0230  -32.0770 O.2   155  THR155     -0.2717
    132  CB        -8.3240  -32.7220  -34.8960 C.3   155  THR155      0.1784
    133  OG1       -7.1970  -33.0820  -35.7160 O.3   155  THR155     -0.2211
    134  CG2       -8.0510  -31.4020  -34.1310 C.3   155  THR155      0.0376
    135  N        -11.0200  -33.9570  -33.7730 N.am  156  ILE156     -0.1979
    136  CA       -12.3000  -33.6830  -33.1790 C.3   156  ILE156      0.1595
    137  C        -12.4070  -34.5250  -31.9270 C.2   156  ILE156      0.2287
    138  O        -12.8590  -34.0360  -30.8940 O.2   156  ILE156     -0.2864
    139  CB       -13.4680  -33.9670  -34.1680 C.3   156  ILE156      0.0276
    140  CG1      -13.4780  -32.9700  -35.3290 C.3   156  ILE156      0.0022
    141  CG2      -14.8240  -33.9060  -33.4750 C.3   156  ILE156      0.0022
    142  CD1      -14.3400  -33.4280  -36.5340 C.3   156  ILE156      0.0001
    143  N        -10.3650  -33.1670  -29.1740 N.3   159  GLN159     -0.1245
    144  CA       -11.0240  -32.0060  -28.5920 C.3   159  GLN159      0.1566
    145  C        -12.1560  -32.4470  -27.6520 C.2   159  GLN159      0.2260
    146  O        -12.3600  -31.8630  -26.5820 O.2   159  GLN159     -0.2867
    147  CB       -11.5810  -31.0850  -29.6850 C.3   159  GLN159      0.0367
    148  CG       -12.3360  -29.8790  -29.1610 C.3   159  GLN159      0.0905
    149  CD       -11.4280  -28.7900  -28.5720 C.2   159  GLN159      0.2608
    150  OE1      -10.2690  -29.0400  -28.1240 O.2   159  GLN159     -0.2717
    151  NE2      -11.9600  -27.5600  -28.5530 N.am  159  GLN159     -0.0878
    152  N         -5.7040  -34.6230  -30.1750 N.3   199  LYS199     -0.1231
    153  CA        -6.0600  -33.2080  -30.2970 C.3   199  LYS199      0.1693
    154  C         -5.0660  -32.3950  -31.1430 C.2   199  LYS199      0.2592
    155  O         -5.4620  -31.4480  -31.8350 O.2   199  LYS199     -0.2718
    156  CB        -6.2180  -32.5640  -28.9170 C.3   199  LYS199      0.0285
    157  CG        -6.8260  -31.1460  -28.9560 C.3   199  LYS199      0.0035
    158  CD        -7.0210  -30.6080  -27.5550 C.3   199  LYS199      0.0206
    159  CE        -5.9470  -29.6520  -27.1800 C.3   199  LYS199      0.1093
    160  NZ        -6.3170  -28.3100  -27.6820 N.3   199  LYS199     -0.1314
    161  N         -3.7870  -32.7710  -31.0990 N.am  200  THR200     -0.1953
    162  CA        -2.7760  -31.9630  -31.7720 C.3   200  THR200      0.1897
    163  C         -1.8150  -32.6340  -32.7410 C.2   200  THR200      0.2313
    164  O         -1.3970  -31.9920  -33.6970 O.2   200  THR200     -0.2863
    165  CB        -1.9730  -31.1380  -30.7930 C.3   200  THR200      0.1794
    166  OG1       -0.8320  -30.6280  -31.4790 O.3   200  THR200     -0.2208
    167  CG2       -1.4810  -31.9790  -29.6840 C.3   200  THR200      0.0378
    168  N         -2.9270  -33.4670  -36.8590 N.3   203  TYR203     -0.1227
    169  CA        -3.1050  -32.3570  -37.7730 C.3   203  TYR203      0.1736
    170  C         -1.8900  -31.3980  -37.7880 C.2   203  TYR203      0.2596
    171  O         -1.6460  -30.7040  -38.7930 O.2   203  TYR203     -0.2718
    172  CB        -4.4190  -31.6190  -37.4950 C.3   203  TYR203      0.0548
    173  CG        -4.2630  -30.3860  -36.6350 C.ar  203  TYR203     -0.0200
    174  CD1       -4.0490  -29.1360  -37.2180 C.ar  203  TYR203     -0.0009
    175  CD2       -4.3480  -30.4580  -35.2530 C.ar  203  TYR203     -0.0009
    176  CE1       -3.9030  -28.0180  -36.4350 C.ar  203  TYR203      0.0417
    177  CE2       -4.2290  -29.3250  -34.4750 C.ar  203  TYR203      0.0417
    178  CZ        -3.9980  -28.1250  -35.0730 C.ar  203  TYR203      0.1957
    179  OH        -3.8300  -26.9920  -34.3480 O.3   203  TYR203     -0.2866
    180  N         -1.1390  -31.3500  -36.6900 N.am  204  SER204     -0.1952
    181  CA         0.0280  -30.4770  -36.6510 C.3   204  SER204      0.1924
    182  C          1.2560  -31.1020  -37.2770 C.2   204  SER204      0.2314
    183  O          2.1350  -30.3790  -37.7420 O.2   204  SER204     -0.2863
    184  CB         0.3330  -29.9840  -35.2400 C.3   204  SER204      0.2116
    185  OG        -0.7860  -29.2740  -34.7490 O.3   204  SER204     -0.2180
    186  N          5.4110  -31.3690  -27.2970 N.3   237  PHE237     -0.1227
    187  CA         5.2330  -30.0510  -27.7570 C.3   237  PHE237      0.1736
    188  C          4.0480  -29.3810  -27.0430 C.2   237  PHE237      0.2595
    189  O          4.1000  -28.2120  -26.6060 O.2   237  PHE237     -0.2718
    190  CB         5.0030  -30.2040  -29.2440 C.3   237  PHE237      0.0547
    191  CG         5.0210  -28.9320  -29.9800 C.ar  237  PHE237     -0.0202
    192  CD1        6.1470  -28.1020  -29.9230 C.ar  237  PHE237     -0.0042
    193  CD2        3.9010  -28.5570  -30.7440 C.ar  237  PHE237     -0.0042
    194  CE1        6.1570  -26.8870  -30.6110 C.ar  237  PHE237     -0.0003
    195  CE2        3.8790  -27.3530  -31.4400 C.ar  237  PHE237     -0.0003
    196  CZ         5.0130  -26.5020  -31.3780 C.ar  237  PHE237     -0.0000
    197  N          2.9800  -30.1540  -26.9210 N.am  238  GLN238     -0.1979
    198  CA         1.8820  -29.8000  -26.0780 C.3   238  GLN238      0.1601
    199  C          2.4030  -29.6860  -24.6470 C.2   238  GLN238      0.2287
    200  O          2.1060  -28.7400  -23.9610 O.2   238  GLN238     -0.2864
    201  CB         0.7590  -30.8410  -26.2390 C.3   238  GLN238      0.0394
    202  CG        -0.5210  -30.5480  -25.4610 C.3   238  GLN238      0.0908
    203  CD        -0.9850  -29.0950  -25.5640 C.2   238  GLN238      0.2608
    204  OE1       -1.2260  -28.6030  -26.6530 O.2   238  GLN238     -0.2717
    205  NE2       -1.1150  -28.4140  -24.4290 N.am  238  GLN238     -0.0878
@<TRIPOS>BOND
     1    41    42    1
     2    45    46    1
     3    45    42    1
     4    46    47    1
     5    33    32    2
     6    42    43    1
     7    43    44    2
     8    32    31    1
     9    21    19   am
    10    19    18    1
    11    19    20    2
    12    47    49   ar
    13    47    48   ar
    14    18    15    1
    15    17    16    2
    16   124   123    2
    17    25    24    2
    18    31    34    1
    19    31    30    1
    20   123   122    1
    21    16    15    1
    22    16    22   am
    23    15    14    1
    24    34    35    1
    25    24    30   am
    26    24    23    1
    27    50    51    1
    28   121   122    1
    29   122   125    1
    30     8     7    2
    31    22    23    1
    32    23    26    1
    33   171   170    2
    34    14     7   am
    35     4     3    2
    36     7     6    1
    37    54    51    1
    38    54    55    1
    39    51    52    1
    40    35    36    1
    41    52    53    2
    42   170   169    1
    43   170   180   am
    44     1     2    1
    45   169   172    1
    46   169   168    1
    47   120   118    1
    48   183   182    2
    49    36    37    1
    50   125   126    1
    51   125   127    1
    52     3     2    1
    53     3     5   am
    54   172   173    1
    55    26    27    1
    56    69    67   ar
    57    69    68   ar
    58   182   181    1
    59    28    27    2
    60   174   173   ar
    61   174   176   ar
    62     6     5    1
    63     6     9    1
    64    55    56    1
    65    67    65   ar
    66   119   118    1
    67    68    66   ar
    68   118   117    2
    69    59    60    1
    70   180   181    1
    71   181   184    1
    72    27    29   am
    73   173   175   ar
    74   142   140    1
    75    65    64   ar
    76   176   178   ar
    77    37    38    2
    78    66    64   ar
    79    64    63    1
    80     9    10    1
    81    56    57    2
    82    56    58   am
    83    39    38    1
    84   133   132    1
    85   117   116    1
    86    60    63    1
    87    60    61    1
    88    38    40    1
    89   140   139    1
    90   116   115    1
    91   175   177   ar
    92   184   185    1
    93   178   177   ar
    94   178   179    1
    95   132   134    1
    96   132   129    1
    97    10    11    1
    98    70    61   am
    99    70    71    1
   100   128   129    1
   101    76    75    1
   102    61    62    2
   103    75    74    1
   104    75    77    1
   105   139   141    1
   106   139   136    1
   107    74    71    1
   108    78    79    1
   109   129   130    1
   110   115   114    1
   111    82    79    1
   112   135   136    1
   113   135   130   am
   114    71    72    1
   115   164   163    2
   116    11    12    1
   117    72    73    2
   118   114   111    1
   119    12    13    1
   120    79    80    1
   121   136   137    1
   122   130   131    2
   123   163   162    1
   124   113   112    2
   125   111   112    1
   126   111   110    1
   127   102   101    2
   128   137   138    2
   129   155   154    2
   130   162   161    1
   131   162   165    1
   132    80    83   am
   133    80    81    2
   134   104   105    1
   135   104   103    1
   136    83    84    1
   137   166   165    1
   138   195   196   ar
   139   195   193   ar
   140   196   194   ar
   141   101   110   am
   142   101   100    1
   143   154   161   am
   144   154   153    1
   145   105   106    1
   146   103   100    1
   147   165   167    1
   148   193   191   ar
   149   194   192   ar
   150   106   107    2
   151   153   152    1
   152   153   156    1
   153    84    87    1
   154    84    85    1
   155   100    99    1
   156    87    88    1
   157   191   192   ar
   158   191   190    1
   159   107   108    1
   160   107   109    1
   161   147   148    1
   162   147   144    1
   163    97    96    1
   164    97    98    1
   165    85    86    2
   166   190   187    1
   167   143   144    1
   168   148   149    1
   169    96    95    1
   170   157   156    1
   171   157   158    1
   172    88    90   ar
   173    88    89   ar
   174   144   145    1
   175   149   151   am
   176   149   150    2
   177    91    92    1
   178    95    92    1
   179   187   186    1
   180   187   188    1
   181   160   159    1
   182   145   146    2
   183   158   159    1
   184    92    93    1
   185   188   197   am
   186   188   189    2
   187   197   198    1
   188   204   203    2
   189   201   198    1
   190   201   202    1
   191   198   199    1
   192    93    94    2
   193   203   202    1
   194   203   205   am
   195   199   200    2
