@<TRIPOS>MOLECULE
tmp/5hn8D00.pdb
 211 198 0 0 0
SMALL
GASTEIGER

@<TRIPOS>ATOM
      1  N        -38.8540  -36.9070  -40.4750 N.3    47  LYS47      -0.1245
      2  CA       -39.6700  -37.5220  -41.4950 C.3    47  LYS47       0.1561
      3  C        -38.8480  -38.2960  -42.5320 C.2    47  LYS47       0.2260
      4  O        -39.3520  -39.2480  -43.1320 O.2    47  LYS47      -0.2867
      5  CB       -40.5260  -36.4550  -42.1860 C.3    47  LYS47       0.0271
      6  CG       -41.3970  -35.6240  -41.2410 C.3    47  LYS47       0.0035
      7  CD       -42.2380  -34.6060  -41.9930 C.3    47  LYS47       0.0206
      8  CE       -41.4140  -33.5320  -42.7030 C.3    47  LYS47       0.1093
      9  NZ       -40.7890  -32.5940  -41.7480 N.3    47  LYS47      -0.1314
     10  N        -37.5130  -37.3450  -45.5100 N.3    49  ASN49      -0.1225
     11  CA       -37.8350  -37.1220  -46.9090 C.3    49  ASN49       0.1785
     12  C        -36.6270  -37.1290  -47.8010 C.2    49  ASN49       0.2597
     13  O        -36.6770  -37.6770  -48.9090 O.2    49  ASN49      -0.2718
     14  CB       -38.5590  -35.8040  -47.0680 C.3    49  ASN49       0.1169
     15  CG       -39.9690  -35.8330  -46.4930 C.2    49  ASN49       0.2627
     16  OD1      -40.6070  -36.8920  -46.3680 O.2    49  ASN49      -0.2716
     17  ND2      -40.4550  -34.6650  -46.1320 N.am   49  ASN49      -0.0877
     18  N        -35.5370  -36.5310  -47.3120 N.am   50  ARG50      -0.1979
     19  CA       -34.3060  -36.4310  -48.0790 C.3    50  ARG50       0.1597
     20  C        -33.7030  -37.8050  -48.2790 C.2    50  ARG50       0.2287
     21  O        -33.2240  -38.1360  -49.3580 O.2    50  ARG50      -0.2864
     22  CB       -33.3240  -35.4950  -47.3850 C.3    50  ARG50       0.0334
     23  CG       -33.8170  -34.0310  -47.3590 C.3    50  ARG50       0.0492
     24  CD       -32.9610  -33.1040  -46.4850 C.3    50  ARG50       0.2205
     25  NE       -33.5650  -31.7770  -46.3940 N.pl3  50  ARG50      -0.0865
     26  CZ       -34.5240  -31.4480  -45.5260 C.cat  50  ARG50       0.5346
     27  NH1      -34.9670  -32.3350  -44.6480 N.pl3  50  ARG50       0.1354
     28  NH2      -35.0370  -30.2340  -45.5310 N.pl3  50  ARG50       0.1354
     29  N        -28.4460  -33.6560  -42.6020 N.3    81  GLN81      -0.1245
     30  CA       -29.6070  -32.9830  -41.9970 C.3    81  GLN81       0.1566
     31  C        -29.4670  -32.8330  -40.4950 C.2    81  GLN81       0.2260
     32  O        -29.5790  -31.7110  -39.9620 O.2    81  GLN81      -0.2867
     33  CB       -30.9090  -33.6980  -42.3130 C.3    81  GLN81       0.0367
     34  CG       -32.1260  -33.1130  -41.6120 C.3    81  GLN81       0.0905
     35  CD       -32.5510  -31.7700  -42.1440 C.2    81  GLN81       0.2608
     36  OE1      -31.8020  -31.0740  -42.8130 O.2    81  GLN81      -0.2717
     37  NE2      -33.7760  -31.3880  -41.8300 N.am   81  GLN81      -0.0878
     38  N        -26.8850  -30.1070  -39.7880 N.3    84  PHE84      -0.1227
     39  CA       -27.4430  -28.7710  -40.0290 C.3    84  PHE84       0.1736
     40  C        -28.4120  -28.3460  -38.9300 C.2    84  PHE84       0.2595
     41  O        -28.3700  -27.2110  -38.4830 O.2    84  PHE84      -0.2718
     42  CB       -28.1300  -28.6820  -41.3920 C.3    84  PHE84       0.0547
     43  CG       -27.1870  -28.7370  -42.5470 C.ar   84  PHE84      -0.0202
     44  CD1      -25.7970  -28.5860  -42.3680 C.ar   84  PHE84      -0.0042
     45  CD2      -27.6780  -28.8930  -43.8460 C.ar   84  PHE84      -0.0042
     46  CE1      -24.8990  -28.6250  -43.4870 C.ar   84  PHE84      -0.0003
     47  CE2      -26.7840  -28.9140  -44.9780 C.ar   84  PHE84      -0.0003
     48  CZ       -25.3970  -28.7840  -44.7750 C.ar   84  PHE84      -0.0000
     49  N        -29.2780  -29.2570  -38.5030 N.am   85  LEU85      -0.1980
     50  CA       -30.2060  -28.9790  -37.4070 C.3    85  LEU85       0.1596
     51  C        -29.4880  -28.5760  -36.1200 C.2    85  LEU85       0.2287
     52  O        -29.7920  -27.5190  -35.5500 O.2    85  LEU85      -0.2864
     53  CB       -31.1420  -30.1820  -37.1770 C.3    85  LEU85       0.0297
     54  CG       -32.0990  -30.4680  -38.3530 C.3    85  LEU85       0.0022
     55  CD1      -33.2020  -31.3910  -37.9010 C.3    85  LEU85       0.0001
     56  CD2      -32.7050  -29.1850  -39.0400 C.3    85  LEU85       0.0001
     57  N        -26.4760  -27.4510  -35.8430 N.3    87  ALA87      -0.1231
     58  CA       -25.8040  -26.1830  -36.0150 C.3    87  ALA87       0.1694
     59  C        -26.8140  -25.0430  -35.9440 C.2    87  ALA87       0.2592
     60  O        -26.5920  -24.0460  -35.2450 O.2    87  ALA87      -0.2718
     61  CB       -25.0080  -26.1370  -37.3340 C.3    87  ALA87       0.0304
     62  N        -27.9260  -25.1960  -36.6640 N.am   88  ASP88      -0.1974
     63  CA       -28.9250  -24.1050  -36.8390 C.3    88  ASP88       0.1709
     64  C        -29.5340  -23.7010  -35.5040 C.2    88  ASP88       0.2293
     65  O        -29.7000  -22.5190  -35.2160 O.2    88  ASP88      -0.2864
     66  CB       -30.0250  -24.5080  -37.8310 C.3    88  ASP88       0.1436
     67  CG       -31.1210  -23.4540  -37.9580 C.2    88  ASP88       0.3671
     68  OD1      -30.8590  -22.3300  -38.4510 O.co2  88  ASP88      -0.2456
     69  OD2      -32.2660  -23.7620  -37.5760 O.co2  88  ASP88      -0.2456
     70  N        -26.9780  -21.5990  -33.6320 N.3    91  MET91      -0.1245
     71  CA       -26.9670  -20.2620  -34.2030 C.3    91  MET91       0.1570
     72  C        -28.2200  -19.4490  -33.8650 C.2    91  MET91       0.2261
     73  O        -28.1180  -18.2800  -33.4620 O.2    91  MET91      -0.2867
     74  CB       -26.7660  -20.3390  -35.7160 C.3    91  MET91       0.0387
     75  CG       -25.4470  -21.0260  -36.1000 C.3    91  MET91       0.0595
     76  SD       -25.1590  -21.1780  -37.8730 S.3    91  MET91      -0.1393
     77  CE       -25.4320  -19.4890  -38.3930 C.3    91  MET91       0.0692
     78  N        -36.6200  -29.0160  -30.9170 N.3    97  ARG97      -0.1245
     79  CA       -36.4140  -29.5860  -32.2440 C.3    97  ARG97       0.1563
     80  C        -36.8310  -31.0370  -32.2500 C.2    97  ARG97       0.2260
     81  O        -36.2730  -31.8400  -31.5110 O.2    97  ARG97      -0.2867
     82  CB       -34.9480  -29.4500  -32.6870 C.3    97  ARG97       0.0307
     83  CG       -34.6120  -30.0340  -34.0710 C.3    97  ARG97       0.0489
     84  CD       -35.1560  -29.1480  -35.2020 C.3    97  ARG97       0.2205
     85  NE       -34.3850  -27.9050  -35.3760 N.pl3  97  ARG97      -0.0865
     86  CZ       -34.5050  -27.0740  -36.4150 C.cat  97  ARG97       0.5346
     87  NH1      -35.3680  -27.3200  -37.3960 N.pl3  97  ARG97       0.1354
     88  NH2      -33.7560  -25.9880  -36.4800 N.pl3  97  ARG97       0.1354
     89  N        -21.0710  -30.8670  -34.4840 N.3   118  VAL118     -0.1245
     90  CA       -21.4790  -30.5780  -35.8540 C.3   118  VAL118      0.1561
     91  C        -20.3590  -31.0550  -36.8030 C.2   118  VAL118      0.2260
     92  O        -20.6210  -31.8290  -37.7480 O.2   118  VAL118     -0.2867
     93  CB       -21.7590  -29.1090  -36.0880 C.3   118  VAL118      0.0252
     94  CG1      -22.0680  -28.8620  -37.5410 C.3   118  VAL118      0.0019
     95  CG2      -22.9210  -28.6450  -35.2280 C.3   118  VAL118      0.0019
     96  N        -23.1720  -28.4770  -49.4600 N.3   150  THR150     -0.1218
     97  CA       -22.9340  -27.9310  -48.1230 C.3   150  THR150      0.1862
     98  C        -22.4560  -26.4670  -48.2530 C.2   150  THR150      0.2287
     99  O        -23.0190  -25.5880  -47.6090 O.2   150  THR150     -0.2866
    100  CB       -21.8890  -28.8000  -47.3740 C.3   150  THR150      0.1770
    101  OG1      -22.3760  -30.1490  -47.2700 O.3   150  THR150     -0.2211
    102  CG2      -21.5300  -28.2410  -45.9760 C.3   150  THR150      0.0375
    103  N        -25.1750  -24.3430  -48.9380 N.3   153  THR153     -0.1203
    104  CA       -26.0260  -24.2790  -47.7430 C.3   153  THR153      0.1994
    105  C        -25.4580  -23.3440  -46.7020 C.2   153  THR153      0.2617
    106  O        -26.2110  -22.6330  -46.0550 O.2   153  THR153     -0.2717
    107  CB       -26.2660  -25.6590  -47.1320 C.3   153  THR153      0.1784
    108  OG1      -26.8530  -26.5010  -48.1280 O.3   153  THR153     -0.2211
    109  CG2      -27.2110  -25.5420  -45.9640 C.3   153  THR153      0.0376
    110  N        -24.1420  -23.3300  -46.5630 N.am  154  ILE154     -0.1979
    111  CA       -23.4930  -22.4630  -45.6040 C.3   154  ILE154      0.1595
    112  C        -23.7550  -21.0200  -46.0210 C.2   154  ILE154      0.2287
    113  O        -24.1340  -20.2000  -45.1680 O.2   154  ILE154     -0.2864
    114  CB       -22.0070  -22.7620  -45.5150 C.3   154  ILE154      0.0276
    115  CG1      -21.7940  -24.1410  -44.8660 C.3   154  ILE154      0.0022
    116  CG2      -21.3370  -21.7410  -44.7250 C.3   154  ILE154      0.0022
    117  CD1      -20.4100  -24.7530  -45.0950 C.3   154  ILE154      0.0001
    118  N        -27.1610  -19.9820  -45.3540 N.3   157  GLN157     -0.1245
    119  CA       -27.3220  -19.7100  -43.9220 C.3   157  GLN157      0.1566
    120  C        -26.7570  -18.3450  -43.5790 C.2   157  GLN157      0.2260
    121  O        -27.3530  -17.6200  -42.8050 O.2   157  GLN157     -0.2867
    122  CB       -26.6570  -20.7890  -43.0600 C.3   157  GLN157      0.0367
    123  CG       -26.7720  -20.5520  -41.5580 C.3   157  GLN157      0.0905
    124  CD       -28.1660  -20.8050  -40.9860 C.2   157  GLN157      0.2608
    125  OE1      -29.1770  -20.7350  -41.6860 O.2   157  GLN157     -0.2717
    126  NE2      -28.2230  -21.0990  -39.6970 N.am  157  GLN157     -0.0878
    127  N        -29.9080  -21.7750  -49.0880 N.3   199  LYS199     -0.1231
    128  CA       -30.0620  -22.3480  -47.7420 C.3   199  LYS199      0.1693
    129  C        -30.6810  -23.7590  -47.7170 C.2   199  LYS199      0.2592
    130  O        -30.3630  -24.5810  -46.8610 O.2   199  LYS199     -0.2718
    131  CB       -30.8490  -21.4040  -46.8400 C.3   199  LYS199      0.0285
    132  CG       -30.7260  -21.7320  -45.3490 C.3   199  LYS199      0.0035
    133  CD       -31.4850  -20.7430  -44.4950 C.3   199  LYS199      0.0206
    134  CE       -32.8840  -21.2480  -44.1280 C.3   199  LYS199      0.1093
    135  NZ       -32.8650  -22.0990  -42.9010 N.3   199  LYS199     -0.1314
    136  N        -31.5340  -24.0530  -48.6850 N.am  200  THR200     -0.1953
    137  CA       -32.3110  -25.2650  -48.6000 C.3   200  THR200      0.1897
    138  C        -32.4280  -26.1420  -49.8670 C.2   200  THR200      0.2313
    139  O        -32.5680  -27.3680  -49.7550 O.2   200  THR200     -0.2863
    140  CB       -33.6960  -24.9840  -47.9980 C.3   200  THR200      0.1794
    141  OG1      -34.4460  -26.1900  -48.0320 O.3   200  THR200     -0.2208
    142  CG2      -34.4470  -23.9570  -48.8190 C.3   200  THR200      0.0378
    143  N        -29.2390  -28.9300  -50.8360 N.3   203  TYR203     -0.1227
    144  CA       -29.0780  -30.1000  -50.0060 C.3   203  TYR203      0.1736
    145  C        -30.3870  -30.8560  -49.7710 C.2   203  TYR203      0.2596
    146  O        -30.3740  -32.0460  -49.4790 O.2   203  TYR203     -0.2718
    147  CB       -28.4250  -29.7130  -48.6930 C.3   203  TYR203      0.0548
    148  CG       -29.3810  -29.5070  -47.5540 C.ar  203  TYR203     -0.0200
    149  CD1      -29.6670  -30.5590  -46.6670 C.ar  203  TYR203     -0.0009
    150  CD2      -30.0010  -28.2730  -47.3400 C.ar  203  TYR203     -0.0009
    151  CE1      -30.5360  -30.3870  -45.6110 C.ar  203  TYR203      0.0417
    152  CE2      -30.8600  -28.0980  -46.2820 C.ar  203  TYR203      0.0417
    153  CZ       -31.1030  -29.1580  -45.4190 C.ar  203  TYR203      0.1957
    154  OH       -31.9540  -29.0130  -44.3720 O.3   203  TYR203     -0.2866
    155  N        -31.5300  -30.1880  -49.8870 N.am  204  SER204     -0.1938
    156  CA       -32.8040  -30.9150  -49.7410 C.3   204  SER204      0.2055
    157  C        -33.2890  -31.6240  -51.0170 C.2   204  SER204      0.2643
    158  O        -33.9970  -32.6280  -50.9440 O.2   204  SER204     -0.2714
    159  CB       -33.9070  -30.0120  -49.1880 C.3   204  SER204      0.2130
    160  OG       -33.4720  -29.4450  -47.9840 O.3   204  SER204     -0.2179
    161  N        -32.8930  -31.1110  -52.1750 N.am  205  PHE205     -0.1973
    162  CA       -33.3820  -31.6760  -53.4090 C.3   205  PHE205      0.1639
    163  C        -32.2840  -32.1230  -54.3270 C.2   205  PHE205      0.2290
    164  O        -32.1570  -33.3160  -54.5820 O.2   205  PHE205     -0.2864
    165  CB       -34.3930  -30.7430  -54.0840 C.3   205  PHE205      0.0560
    166  CG       -35.5730  -30.4540  -53.2160 C.ar  205  PHE205     -0.0200
    167  CD1      -36.4350  -31.4700  -52.8490 C.ar  205  PHE205     -0.0042
    168  CD2      -35.7780  -29.2020  -52.6970 C.ar  205  PHE205     -0.0042
    169  CE1      -37.5090  -31.2300  -51.9800 C.ar  205  PHE205     -0.0003
    170  CE2      -36.8540  -28.9510  -51.8440 C.ar  205  PHE205     -0.0003
    171  CZ       -37.7140  -29.9690  -51.4910 C.ar  205  PHE205     -0.0000
    172  N        -37.2450  -25.9810  -53.9460 N.3   234  GLY234     -0.1225
    173  CA       -36.7900  -25.3730  -52.6850 C.3   234  GLY234      0.1811
    174  C        -37.6070  -24.1550  -52.2770 C.2   234  GLY234      0.2280
    175  O        -38.1150  -24.0690  -51.1550 O.2   234  GLY234     -0.2866
    176  N        -41.3740  -24.4020  -51.2790 N.3   237  PHE237     -0.1227
    177  CA       -41.4570  -25.2980  -50.1820 C.3   237  PHE237      0.1736
    178  C        -41.0430  -24.5720  -48.9030 C.2   237  PHE237      0.2595
    179  O        -41.6820  -24.7260  -47.8490 O.2   237  PHE237     -0.2718
    180  CB       -40.5350  -26.4440  -50.5420 C.3   237  PHE237      0.0547
    181  CG       -40.6530  -27.5980  -49.6640 C.ar  237  PHE237     -0.0202
    182  CD1      -41.8820  -28.1830  -49.4260 C.ar  237  PHE237     -0.0042
    183  CD2      -39.5180  -28.1210  -49.0710 C.ar  237  PHE237     -0.0042
    184  CE1      -41.9780  -29.2750  -48.5650 C.ar  237  PHE237     -0.0003
    185  CE2      -39.5820  -29.2220  -48.2160 C.ar  237  PHE237     -0.0003
    186  CZ       -40.8100  -29.8020  -47.9420 C.ar  237  PHE237     -0.0000
    187  N        -39.9930  -23.7550  -49.0100 N.am  238  GLN238     -0.1979
    188  CA       -39.6520  -22.8300  -47.9630 C.3   238  GLN238      0.1601
    189  C        -40.8180  -21.8560  -47.8260 C.2   238  GLN238      0.2287
    190  O        -41.2880  -21.5830  -46.7320 O.2   238  GLN238     -0.2864
    191  CB       -38.3350  -22.1470  -48.2910 C.3   238  GLN238      0.0394
    192  CG       -37.8330  -21.1590  -47.2460 C.3   238  GLN238      0.0908
    193  CD       -37.8770  -21.6710  -45.8220 C.2   238  GLN238      0.2608
    194  OE1      -37.3510  -22.7340  -45.5200 O.2   238  GLN238     -0.2717
    195  NE2      -38.4880  -20.9030  -44.9370 N.am  238  GLN238     -0.0878
    196  N        -43.4720  -23.3450  -45.8280 N.3   241  ASP241     -0.1239
    197  CA       -43.0750  -23.3150  -44.4320 C.3   241  ASP241      0.1674
    198  C        -43.3130  -21.9270  -43.8190 C.2   241  ASP241      0.2266
    199  O        -43.7730  -21.8080  -42.6840 O.2   241  ASP241     -0.2867
    200  CB       -41.6040  -23.7000  -44.3030 C.3   241  ASP241      0.1410
    201  CG       -41.1770  -23.9390  -42.8600 C.2   241  ASP241      0.3668
    202  OD1      -42.0440  -24.2860  -42.0360 O.co2 241  ASP241     -0.2456
    203  OD2      -39.9740  -23.7930  -42.5570 O.co2 241  ASP241     -0.2456
    204  N        -43.4240  -34.5590  -49.9220 N.3   333  LEU333     -0.1245
    205  CA       -42.5640  -33.6430  -49.1290 C.3   333  LEU333      0.1561
    206  C        -43.5340  -32.5900  -48.5820 C.2   333  LEU333      0.2260
    207  O        -43.2970  -31.9890  -47.5400 O.2   333  LEU333     -0.2867
    208  CB       -41.3400  -33.0490  -49.8850 C.3   333  LEU333      0.0270
    209  CG       -39.9410  -33.5760  -49.4420 C.3   333  LEU333      0.0019
    210  CD1      -39.1540  -34.2800  -50.5360 C.3   333  LEU333      0.0001
    211  CD2      -39.0360  -32.5590  -48.7740 C.3   333  LEU333      0.0001
@<TRIPOS>BOND
     1   164   163    2
     2   163   162    1
     3   165   162    1
     4   165   166    1
     5   172   173    1
     6   162   161    1
     7   166   167   ar
     8   166   168   ar
     9   167   169   ar
    10   168   170   ar
    11   173   174    1
    12   174   175    2
    13   161   157   am
    14   169   171   ar
    15   170   171   ar
    16   176   177    1
    17   157   158    2
    18   157   156    1
    19   143   144    1
    20   180   177    1
    21   180   181    1
    22   210   209    1
    23   177   178    1
    24   144   145    1
    25   144   147    1
    26   204   205    1
    27   155   145   am
    28   155   156    1
    29   208   209    1
    30   208   205    1
    31   138   139    2
    32   138   137    1
    33   145   146    2
    34   156   159    1
    35   181   182   ar
    36   181   183   ar
    37    96    97    1
    38   209   211    1
    39   182   184   ar
    40    21    20    2
    41   159   160    1
    42   205   206    1
    43   127   128    1
    44   183   185   ar
    45   187   178   am
    46   187   188    1
    47   103   104    1
    48    13    12    2
    49   178   179    2
    50   142   140    1
    51   147   148    1
    52   136   137    1
    53   136   129   am
    54   137   140    1
    55   206   207    2
    56   184   186   ar
    57   191   188    1
    58   191   192    1
    59    20    19    1
    60    98    97    1
    61    98    99    2
    62   185   186   ar
    63   108   107    1
    64    97   100    1
    65    19    22    1
    66    19    18    1
    67   141   140    1
    68   188   189    1
    69   189   190    2
    70    12    18   am
    71    12    11    1
    72   104   107    1
    73   104   105    1
    74   128   129    1
    75   128   131    1
    76   129   130    2
    77   148   150   ar
    78   148   149   ar
    79    22    23    1
    80   100   101    1
    81   100   102    1
    82    23    24    1
    83   150   152   ar
    84   192   193    1
    85   107   109    1
    86    14    11    1
    87    14    15    1
    88    11    10    1
    89   131   132    1
    90   105   110   am
    91   105   106    2
    92   149   151   ar
    93   110   111    1
    94    15    16    2
    95    15    17   am
    96    24    25    1
    97    25    26    2
    98   152   153   ar
    99   112   111    1
   100   112   113    2
   101   196   197    1
   102   193   194    2
   103   193   195   am
   104   151   153   ar
   105   111   114    1
   106    28    26    1
   107    26    27    1
   108   114   115    1
   109   114   116    1
   110   153   154    1
   111   118   119    1
   112   132   133    1
   113   117   115    1
   114    47    48   ar
   115    47    45   ar
   116    48    46   ar
   117   133   134    1
   118   197   200    1
   119   197   198    1
   120   200   201    1
   121   134   135    1
   122   119   120    1
   123   119   122    1
   124    45    43   ar
   125   198   199    2
   126   120   121    2
   127    46    44   ar
   128     4     3    2
   129   122   123    1
   130   201   203   ar
   131   201   202   ar
   132    36    35    2
   133     8     7    1
   134     8     9    1
   135    29    30    1
   136    43    44   ar
   137    43    42    1
   138     3     2    1
   139    33    30    1
   140    33    34    1
   141     5     2    1
   142     5     6    1
   143    35    37   am
   144    35    34    1
   145    30    31    1
   146     7     6    1
   147   125   124    2
   148   123   124    1
   149     2     1    1
   150    42    39    1
   151   124   126   am
   152    31    32    2
   153    39    38    1
   154    39    40    1
   155    56    54    1
   156    40    49   am
   157    40    41    2
   158    49    50    1
   159    68    67   ar
   160    77    76    1
   161    54    55    1
   162    54    53    1
   163    67    66    1
   164    67    69   ar
   165    76    75    1
   166    66    63    1
   167    92    91    2
   168    94    93    1
   169    50    53    1
   170    50    51    1
   171    87    86    1
   172    61    58    1
   173    63    62    1
   174    63    64    1
   175    91    90    1
   176    62    59   am
   177    88    86    1
   178    86    85    2
   179    51    52    2
   180    75    74    1
   181    93    90    1
   182    93    95    1
   183    58    59    1
   184    58    57    1
   185    59    60    2
   186    90    89    1
   187    74    71    1
   188    64    65    2
   189    85    84    1
   190    84    83    1
   191    71    72    1
   192    71    70    1
   193    83    82    1
   194    72    73    2
   195    82    79    1
   196    80    79    1
   197    80    81    2
   198    79    78    1
