@<TRIPOS>MOLECULE
tmp/5hn9C00.pdb
 223 210 0 0 0
SMALL
GASTEIGER

@<TRIPOS>ATOM
      1  N         68.1940  -22.0660  -16.2420 N.3    44  GLY44      -0.1210
      2  CA        68.7490  -21.1340  -17.2240 C.3    44  GLY44       0.1956
      3  C         69.3700  -21.8700  -18.3930 C.2    44  GLY44       0.2612
      4  O         69.2580  -23.0870  -18.4900 O.2    44  GLY44      -0.2717
      5  N         70.0820  -21.1450  -19.2510 N.am   45  LYS45      -0.1965
      6  CA        70.7060  -21.7660  -20.4220 C.3    45  LYS45       0.1728
      7  C         72.0920  -22.3820  -20.1350 C.2    45  LYS45       0.2616
      8  O         72.5590  -23.2270  -20.8770 O.2    45  LYS45      -0.2715
      9  CB        70.7770  -20.7850  -21.5980 C.3    45  LYS45       0.0311
     10  CG        69.4130  -20.3260  -22.1040 C.3    45  LYS45       0.0038
     11  CD        69.5350  -19.4040  -23.3230 C.3    45  LYS45       0.0206
     12  CE        70.3860  -18.1570  -23.0260 C.3    45  LYS45       0.1093
     13  NZ        69.8010  -17.2560  -21.9820 N.3    45  LYS45      -0.1314
     14  N         72.7330  -21.9530  -19.0550 N.am   46  ASN46      -0.1958
     15  CA        74.0540  -22.4690  -18.7150 C.3    46  ASN46       0.1819
     16  C         75.0930  -22.2170  -19.8110 C.2    46  ASN46       0.2621
     17  O         76.0710  -22.9580  -19.9380 O.2    46  ASN46      -0.2715
     18  CB        73.9750  -23.9590  -18.3920 C.3    46  ASN46       0.1195
     19  CG        72.9980  -24.2580  -17.2710 C.2    46  ASN46       0.2630
     20  OD1       72.2590  -25.2420  -17.3240 O.2    46  ASN46      -0.2716
     21  ND2       72.9290  -23.3590  -16.2890 N.am   46  ASN46      -0.0877
     22  N         74.8800  -21.1570  -20.5870 N.am   47  ASN47      -0.1958
     23  CA        75.8480  -20.7170  -21.5840 C.3    47  ASN47       0.1819
     24  C         77.2160  -20.4880  -20.9510 C.2    47  ASN47       0.2621
     25  O         78.2440  -20.9170  -21.4880 O.2    47  ASN47      -0.2715
     26  CB        75.3790  -19.4120  -22.2480 C.3    47  ASN47       0.1195
     27  CG        74.3020  -19.6350  -23.2900 C.2    47  ASN47       0.2630
     28  OD1       74.2850  -20.6610  -23.9710 O.2    47  ASN47      -0.2716
     29  ND2       73.4840  -18.6100  -23.5170 N.am   47  ASN47      -0.0877
     30  N         77.2220  -19.8210  -19.8000 N.am   48  ARG48      -0.1977
     31  CA        78.4740  -19.4940  -19.1120 C.3    48  ARG48       0.1597
     32  C         79.2080  -20.7410  -18.6320 C.2    48  ARG48       0.2287
     33  O         80.4060  -20.8830  -18.8540 O.2    48  ARG48      -0.2864
     34  CB        78.2300  -18.5150  -17.9570 C.3    48  ARG48       0.0334
     35  CG        77.7640  -17.1380  -18.4170 C.3    48  ARG48       0.0492
     36  CD        77.1740  -16.3230  -17.2560 C.3    48  ARG48       0.2205
     37  NE        76.4970  -15.1160  -17.7320 N.pl3  48  ARG48      -0.0865
     38  CZ        75.2140  -15.0650  -18.0830 C.cat  48  ARG48       0.5346
     39  NH1       74.4420  -16.1270  -17.9350 N.pl3  48  ARG48       0.1354
     40  NH2       74.6930  -13.9380  -18.5440 N.pl3  48  ARG48       0.1354
     41  N         77.7020  -20.6370  -12.6940 N.3    76  GLU76      -0.1245
     42  CA        76.2500  -20.6720  -12.6830 C.3    76  GLU76       0.1567
     43  C         75.7220  -20.2660  -11.3120 C.2    76  GLU76       0.2260
     44  O         74.6510  -19.7000  -11.2020 O.2    76  GLU76      -0.2867
     45  CB        75.7290  -22.0510  -13.0810 C.3    76  GLU76       0.0388
     46  CG        75.9610  -22.3830  -14.5530 C.3    76  GLU76       0.1160
     47  CD        75.2740  -21.3940  -15.4910 C.2    76  GLU76       0.3649
     48  OE1       74.1500  -20.9340  -15.1670 O.co2  76  GLU76      -0.2457
     49  OE2       75.8610  -21.0690  -16.5390 O.co2  76  GLU76      -0.2457
     50  N         76.0490  -16.4970  -11.3230 N.3    79  GLN79      -0.1245
     51  CA        74.9010  -16.0260  -12.0770 C.3    79  GLN79       0.1566
     52  C         73.6390  -16.0430  -11.2120 C.2    79  GLN79       0.2260
     53  O         72.8630  -15.0980  -11.2300 O.2    79  GLN79      -0.2867
     54  CB        74.7050  -16.8900  -13.3240 C.3    79  GLN79       0.0367
     55  CG        73.3870  -16.6730  -14.0590 C.3    79  GLN79       0.0905
     56  CD        73.3520  -15.3770  -14.8390 C.2    79  GLN79       0.2608
     57  OE1       74.1000  -14.4420  -14.5460 O.2    79  GLN79      -0.2717
     58  NE2       72.4820  -15.3160  -15.8550 N.am   79  GLN79      -0.0878
     59  N         73.7670  -13.1090   -8.6570 N.3    82  PHE82      -0.1227
     60  CA        73.5030  -11.8740   -9.3930 C.3    82  PHE82       0.1736
     61  C         72.0260  -11.7000   -9.7550 C.2    82  PHE82       0.2595
     62  O         71.4890  -10.5950   -9.6830 O.2    82  PHE82      -0.2718
     63  CB        74.3520  -11.8130  -10.6650 C.3    82  PHE82       0.0547
     64  CG        75.8190  -11.5480  -10.4120 C.ar   82  PHE82      -0.0202
     65  CD1       76.2200  -10.7670   -9.3340 C.ar   82  PHE82      -0.0042
     66  CD2       76.7660  -11.8780  -11.3780 C.ar   82  PHE82      -0.0042
     67  CE1       77.5760  -10.4490   -9.1400 C.ar   82  PHE82      -0.0003
     68  CE2       78.1190  -11.5400  -11.2070 C.ar   82  PHE82      -0.0003
     69  CZ        78.5210  -10.8690  -10.0610 C.ar   82  PHE82      -0.0000
     70  N         71.3830  -12.7790  -10.1880 N.am   83  LEU83      -0.1980
     71  CA        69.9670  -12.6990  -10.5520 C.3    83  LEU83       0.1596
     72  C         69.0800  -12.4350   -9.3470 C.2    83  LEU83       0.2287
     73  O         68.1980  -11.5780   -9.4010 O.2    83  LEU83      -0.2864
     74  CB        69.5030  -13.9400  -11.3210 C.3    83  LEU83       0.0297
     75  CG        69.5220  -15.3410  -10.7010 C.3    83  LEU83       0.0022
     76  CD1       68.3400  -15.5630   -9.7040 C.3    83  LEU83       0.0001
     77  CD2       69.4740  -16.3890  -11.8340 C.3    83  LEU83       0.0001
     78  N         69.9890  -10.9520   -6.6170 N.3    85  ALA85      -0.1231
     79  CA        70.2840   -9.5730   -6.2320 C.3    85  ALA85       0.1694
     80  C         69.6720   -8.5570   -7.2150 C.2    85  ALA85       0.2592
     81  O         69.1210   -7.5280   -6.7960 O.2    85  ALA85      -0.2718
     82  CB        71.8140   -9.3570   -6.1060 C.3    85  ALA85       0.0304
     83  N         69.7800   -8.8440   -8.5130 N.am   86  ASP86      -0.1974
     84  CA        69.2110   -7.9740   -9.5320 C.3    86  ASP86       0.1709
     85  C         67.7030   -7.8700   -9.3570 C.2    86  ASP86       0.2293
     86  O         67.1180   -6.8120   -9.5790 O.2    86  ASP86      -0.2864
     87  CB        69.5300   -8.4980  -10.9360 C.3    86  ASP86       0.1436
     88  CG        69.1050   -7.5220  -12.0430 C.2    86  ASP86       0.3671
     89  OD1       68.2610   -7.9030  -12.8980 O.co2  86  ASP86      -0.2456
     90  OD2       69.6000   -6.3750  -12.0480 O.co2  86  ASP86      -0.2456
     91  N         66.9970   -5.5390   -6.4560 N.3    89  MET89      -0.1245
     92  CA        67.3190   -4.1450   -6.8150 C.3    89  MET89       0.1570
     93  C         66.3440   -3.5090   -7.8150 C.2    89  MET89       0.2261
     94  O         66.0700   -2.3030   -7.7390 O.2    89  MET89      -0.2867
     95  CB        68.7550   -4.0320   -7.3390 C.3    89  MET89       0.0387
     96  CG        69.8120   -4.4630   -6.3350 C.3    89  MET89       0.0595
     97  SD        71.4890   -4.3810   -6.9800 S.3    89  MET89      -0.1393
     98  CE        71.4060   -5.5280   -8.3260 C.3    89  MET89       0.0692
     99  N         61.3930  -14.5850  -13.0950 N.3    95  ARG95      -0.1231
    100  CA        62.7310  -14.9420  -13.5370 C.3    95  ARG95       0.1694
    101  C         62.7620  -16.4340  -13.8580 C.2    95  ARG95       0.2591
    102  O         62.3580  -17.2470  -13.0430 O.2    95  ARG95      -0.2718
    103  CB        63.7590  -14.6180  -12.4390 C.3    95  ARG95       0.0321
    104  CG        65.1800  -15.0740  -12.7490 C.3    95  ARG95       0.0489
    105  CD        65.8280  -14.2010  -13.7940 C.3    95  ARG95       0.2205
    106  NE        66.1200  -12.8780  -13.2670 N.pl3  95  ARG95      -0.0865
    107  CZ        66.8050  -11.9490  -13.9210 C.cat  95  ARG95       0.5346
    108  NH1       67.2640  -12.1970  -15.1460 N.pl3  95  ARG95       0.1354
    109  NH2       67.0470  -10.7770  -13.3460 N.pl3  95  ARG95       0.1354
    110  N         63.2820  -16.7820  -15.0350 N.am   96  ARG96      -0.1980
    111  CA        63.2740  -18.1650  -15.5070 C.3    96  ARG96       0.1597
    112  C         61.8760  -18.7880  -15.3960 C.2    96  ARG96       0.2287
    113  O         61.7180  -19.9510  -15.0110 O.2    96  ARG96      -0.2864
    114  CB        64.3450  -18.9930  -14.7850 C.3    96  ARG96       0.0334
    115  CG        65.7710  -18.5850  -15.2010 C.3    96  ARG96       0.0492
    116  CD        66.8380  -19.2120  -14.3510 C.3    96  ARG96       0.2205
    117  NE        68.1730  -18.7820  -14.7740 N.pl3  96  ARG96      -0.0865
    118  CZ        69.2880  -19.0710  -14.1250 C.cat  96  ARG96       0.5346
    119  NH1       70.4590  -18.6580  -14.5920 N.pl3  96  ARG96       0.1354
    120  NH2       69.2330  -19.7740  -13.0060 N.pl3  96  ARG96       0.1354
    121  N         71.9390  -13.9250   -1.2450 N.3   116  VAL116     -0.1245
    122  CA        72.8980  -13.4720   -2.2460 C.3   116  VAL116      0.1561
    123  C         74.3290  -13.7000   -1.7320 C.2   116  VAL116      0.2260
    124  O         75.1830  -14.2420   -2.4410 O.2   116  VAL116     -0.2867
    125  CB        72.7290  -11.9780   -2.5820 C.3   116  VAL116      0.0252
    126  CG1       73.9160  -11.4830   -3.4810 C.3   116  VAL116      0.0019
    127  CG2       71.3870  -11.7230   -3.2670 C.3   116  VAL116      0.0019
    128  N         81.5660   -6.3220  -12.2600 N.3   151  THR151     -0.1203
    129  CA        80.1040   -6.4740  -12.3570 C.3   151  THR151      0.1994
    130  C         79.3700   -5.5630  -11.3690 C.2   151  THR151      0.2617
    131  O         78.3820   -4.9360  -11.7160 O.2   151  THR151     -0.2717
    132  CB        79.6400   -7.9420  -12.1640 C.3   151  THR151      0.1784
    133  OG1       80.4120   -8.8020  -13.0050 O.3   151  THR151     -0.2211
    134  CG2       78.1450   -8.0870  -12.5350 C.3   151  THR151      0.0376
    135  N         79.8690   -5.4830  -10.1460 N.am  152  ILE152     -0.1979
    136  CA        79.2730   -4.6010   -9.1500 C.3   152  ILE152      0.1595
    137  C         79.3210   -3.1230   -9.5970 C.2   152  ILE152      0.2287
    138  O         78.3800   -2.3670   -9.3620 O.2   152  ILE152     -0.2864
    139  CB        79.9530   -4.7440   -7.7910 C.3   152  ILE152      0.0276
    140  CG1       79.6820   -6.1330   -7.2030 C.3   152  ILE152      0.0022
    141  CG2       79.4680   -3.6530   -6.8420 C.3   152  ILE152      0.0022
    142  CD1       80.5640   -6.4830   -6.0110 C.3   152  ILE152      0.0001
    143  N         76.7420   -2.6580  -12.4130 N.3   155  GLN155     -0.1245
    144  CA        75.4090   -2.6320  -11.8410 C.3   155  GLN155      0.1566
    145  C         75.1370   -1.2660  -11.1620 C.2   155  GLN155      0.2260
    146  O         74.0670   -0.6730  -11.3300 O.2   155  GLN155     -0.2867
    147  CB        75.2400   -3.7820  -10.8500 C.3   155  GLN155      0.0367
    148  CG        73.8500   -3.8750  -10.2290 C.3   155  GLN155      0.0905
    149  CD        72.7650   -4.1840  -11.2580 C.2   155  GLN155      0.2608
    150  OE1       72.8230   -3.7260  -12.4000 O.2   155  GLN155     -0.2717
    151  NE2       71.7450   -4.9230  -10.8350 N.am  155  GLN155     -0.0878
    152  N         78.9780   -4.5230  -16.6000 N.3   194  LYS194     -0.1231
    153  CA        77.8380   -5.2110  -16.0490 C.3   194  LYS194      0.1693
    154  C         77.7060   -6.6710  -16.5470 C.2   194  LYS194      0.2592
    155  O         77.2450   -7.5370  -15.8090 O.2   194  LYS194     -0.2718
    156  CB        76.5620   -4.4240  -16.3520 C.3   194  LYS194      0.0285
    157  CG        75.2970   -5.0480  -15.7960 C.3   194  LYS194      0.0035
    158  CD        74.1230   -4.1020  -15.9310 C.3   194  LYS194      0.0206
    159  CE        72.8200   -4.7830  -15.5460 C.3   194  LYS194      0.1093
    160  NZ        72.3890   -5.7520  -16.5860 N.3   194  LYS194     -0.1314
    161  N         78.2120   -6.9500  -17.7490 N.am  195  THR195     -0.1953
    162  CA        77.9430   -8.2410  -18.4010 C.3   195  THR195      0.1897
    163  C         79.1810   -8.9540  -18.9730 C.2   195  THR195      0.2313
    164  O         79.2890  -10.1860  -18.9000 O.2   195  THR195     -0.2863
    165  CB        76.9110   -8.0680  -19.5400 C.3   195  THR195      0.1794
    166  OG1       75.7940   -7.3120  -19.0600 O.3   195  THR195     -0.2208
    167  CG2       76.4290   -9.4100  -20.0310 C.3   195  THR195      0.0378
    168  N         81.8860  -11.0580  -16.3330 N.3   198  TYR198     -0.1241
    169  CA        81.4440  -12.2870  -15.6820 C.3   198  TYR198      0.1605
    170  C         80.8220  -13.2950  -16.6660 C.2   198  TYR198      0.2264
    171  O         80.9300  -14.5060  -16.4700 O.2   198  TYR198     -0.2867
    172  CB        80.5090  -12.0020  -14.4880 C.3   198  TYR198      0.0534
    173  CG        79.0300  -12.0540  -14.8100 C.ar  198  TYR198     -0.0201
    174  CD1       78.2970  -13.2270  -14.6130 C.ar  198  TYR198     -0.0009
    175  CD2       78.3370  -10.9060  -15.1960 C.ar  198  TYR198     -0.0009
    176  CE1       76.9320  -13.2770  -14.8630 C.ar  198  TYR198      0.0417
    177  CE2       76.9480  -10.9300  -15.3870 C.ar  198  TYR198      0.0417
    178  CZ        76.2560  -12.1190  -15.2110 C.ar  198  TYR198      0.1957
    179  OH        74.8950  -12.1610  -15.4250 O.3   198  TYR198     -0.2866
    180  N         75.9450   -9.3040  -26.4320 N.3   232  PHE232     -0.1227
    181  CA        74.9590  -10.0250  -25.6240 C.3   232  PHE232      0.1736
    182  C         73.9340   -9.0750  -25.0000 C.2   232  PHE232      0.2595
    183  O         72.7410   -9.3420  -25.0270 O.2   232  PHE232     -0.2718
    184  CB        75.6440  -10.8660  -24.5240 C.3   232  PHE232      0.0547
    185  CG        74.7000  -11.8340  -23.8030 C.ar  232  PHE232     -0.0202
    186  CD1       74.3160  -13.0350  -24.4060 C.ar  232  PHE232     -0.0042
    187  CD2       74.2600  -11.5690  -22.5050 C.ar  232  PHE232     -0.0042
    188  CE1       73.4510  -13.9210  -23.7600 C.ar  232  PHE232     -0.0003
    189  CE2       73.3840  -12.4610  -21.8410 C.ar  232  PHE232     -0.0003
    190  CZ        72.9930  -13.6380  -22.4670 C.ar  232  PHE232     -0.0000
    191  N         74.3990   -7.9660  -24.4390 N.am  233  GLN233     -0.1979
    192  CA        73.4860   -7.0500  -23.7500 C.3   233  GLN233      0.1601
    193  C         72.5080   -6.3240  -24.6950 C.2   233  GLN233      0.2287
    194  O         71.3550   -6.0750  -24.3270 O.2   233  GLN233     -0.2864
    195  CB        74.2430   -6.0460  -22.8970 C.3   233  GLN233      0.0394
    196  CG        73.3280   -5.2160  -22.0120 C.3   233  GLN233      0.0908
    197  CD        72.5360   -6.0700  -21.0500 C.2   233  GLN233      0.2608
    198  OE1       71.3020   -6.0390  -21.0390 O.2   233  GLN233     -0.2717
    199  NE2       73.2340   -6.8880  -20.2860 N.am  233  GLN233     -0.0878
    200  N         69.9460   -8.6300  -25.4620 N.3   236  ASP236     -0.1239
    201  CA        69.1010   -8.7050  -24.2610 C.3   236  ASP236      0.1674
    202  C         68.1310   -7.5170  -24.2330 C.2   236  ASP236      0.2266
    203  O         66.9630   -7.6730  -23.9190 O.2   236  ASP236     -0.2867
    204  CB        69.9690   -8.6970  -22.9930 C.3   236  ASP236      0.1410
    205  CG        69.2490   -9.2620  -21.7830 C.2   236  ASP236      0.3668
    206  OD1       69.0570   -8.5090  -20.7950 O.co2 236  ASP236     -0.2456
    207  OD2       68.9530  -10.4810  -21.7790 O.co2 236  ASP236     -0.2456
    208  N         61.8810  -15.9940  -22.6830 N.3   242  THR242     -0.1218
    209  CA        62.9610  -15.3020  -21.9750 C.3   242  THR242      0.1862
    210  C         62.9160  -15.5920  -20.4730 C.2   242  THR242      0.2287
    211  O         63.9300  -15.4890  -19.7780 O.2   242  THR242     -0.2866
    212  CB        62.9080  -13.7720  -22.2020 C.3   242  THR242      0.1770
    213  OG1       61.8120  -13.2070  -21.4650 O.3   242  THR242     -0.2211
    214  CG2       62.7460  -13.4540  -23.6900 C.3   242  THR242      0.0375
    215  N         61.2950  -13.8630  -18.1430 N.3   244  LYS244     -0.1245
    216  CA        61.1930  -12.6560  -17.3110 C.3   244  LYS244      0.1561
    217  C         60.2270  -11.6340  -17.9140 C.2   244  LYS244      0.2260
    218  O         59.9160  -11.6900  -19.1050 O.2   244  LYS244     -0.2867
    219  CB        62.5820  -12.0260  -17.0950 C.3   244  LYS244      0.0271
    220  CG        63.3500  -11.7490  -18.3870 C.3   244  LYS244      0.0035
    221  CD        64.7980  -11.3350  -18.1240 C.3   244  LYS244      0.0206
    222  CE        65.5630  -11.1970  -19.4370 C.3   244  LYS244      0.1093
    223  NZ        66.9890  -10.8150  -19.2360 N.3   244  LYS244     -0.1314
@<TRIPOS>BOND
     1   180   181    1
     2   181   182    1
     3   181   184    1
     4   200   201    1
     5   183   182    2
     6   182   191   am
     7   193   194    2
     8   193   192    1
     9   184   185    1
    10   191   192    1
    11   186   185   ar
    12   186   188   ar
    13   201   202    1
    14   201   204    1
    15   202   203    2
    16    28    27    2
    17   185   187   ar
    18   188   190   ar
    19   192   195    1
    20   214   212    1
    21    29    27   am
    22    11    12    1
    23    11    10    1
    24    27    26    1
    25    12    13    1
    26   204   205    1
    27   195   196    1
    28   208   209    1
    29   187   189   ar
    30   190   189   ar
    31    26    23    1
    32   212   209    1
    33   212   213    1
    34    10     9    1
    35   196   197    1
    36   209   210    1
    37   205   207   ar
    38   205   206   ar
    39     9     6    1
    40    23    24    1
    41    23    22    1
    42    25    24    2
    43   197   198    2
    44   197   199   am
    45    24    30   am
    46     8     7    2
    47    22    16   am
    48   210   211    2
    49     6     7    1
    50     6     5    1
    51     7    14   am
    52   167   165    1
    53    17    16    2
    54    16    15    1
    55    30    31    1
    56   165   166    1
    57   165   162    1
    58   222   223    1
    59   222   221    1
    60     5     3   am
    61    31    32    1
    62    31    34    1
    63   218   217    2
    64    14    15    1
    65   163   164    2
    66   163   162    1
    67    33    32    2
    68    15    18    1
    69    40    38    1
    70     4     3    2
    71    35    34    1
    72    35    36    1
    73   162   161    1
    74     3     2    1
    75    18    19    1
    76   220   221    1
    77   220   219    1
    78   215   216    1
    79    38    39    1
    80    38    37    2
    81   217   216    1
    82   161   154   am
    83    37    36    1
    84    20    19    2
    85   216   219    1
    86    19    21   am
    87     2     1    1
    88   170   171    2
    89   170   169    1
    90   152   153    1
    91   160   159    1
    92   154   153    1
    93   154   155    2
    94    49    47   ar
    95   156   153    1
    96   156   157    1
    97   168   169    1
    98   158   157    1
    99   158   159    1
   100    58    56   am
   101   169   172    1
   102   111   112    1
   103   111   110    1
   104   111   114    1
   105    47    48   ar
   106    47    46    1
   107   179   178    1
   108   112   113    2
   109   177   178   ar
   110   177   175   ar
   111   178   176   ar
   112   115   114    1
   113   115   116    1
   114   175   173   ar
   115   108   107    1
   116   110   101   am
   117   176   174   ar
   118    56    57    2
   119    56    55    1
   120   173   174   ar
   121   173   172    1
   122   117   116    1
   123   117   118    2
   124   119   118    1
   125    46    45    1
   126   118   120    1
   127    55    54    1
   128   107   109    1
   129   107   106    2
   130   101   100    1
   131   101   102    2
   132   105   106    1
   133   105   104    1
   134   100    99    1
   135   100   103    1
   136    54    51    1
   137    45    42    1
   138   133   132    1
   139    89    88   ar
   140   104   103    1
   141    41    42    1
   142    42    43    1
   143   134   132    1
   144   143   144    1
   145   150   149    2
   146   129   128    1
   147   129   132    1
   148   129   130    1
   149    51    50    1
   150    51    52    1
   151    90    88   ar
   152    88    87    1
   153   144   145    1
   154   144   147    1
   155    77    75    1
   156   131   130    2
   157    66    68   ar
   158    66    64   ar
   159   130   135   am
   160   146   145    2
   161    74    75    1
   162    74    71    1
   163    43    44    2
   164   149   151   am
   165   149   148    1
   166    53    52    2
   167    68    69   ar
   168    87    84    1
   169   147   148    1
   170    75    76    1
   171    63    64    1
   172    63    60    1
   173    71    70    1
   174    71    72    1
   175    64    65   ar
   176    70    61   am
   177   135   136    1
   178    69    67   ar
   179    61    62    2
   180    61    60    1
   181   137   138    2
   182   137   136    1
   183    86    85    2
   184    84    85    1
   185    84    83    1
   186    73    72    2
   187    60    59    1
   188    65    67   ar
   189   136   139    1
   190    83    80   am
   191    98    97    1
   192    93    94    2
   193    93    92    1
   194   139   140    1
   195   139   141    1
   196    95    92    1
   197    95    96    1
   198    80    81    2
   199    80    79    1
   200   140   142    1
   201    97    96    1
   202    92    91    1
   203    78    79    1
   204    79    82    1
   205   126   125    1
   206   127   125    1
   207   125   122    1
   208   124   123    2
   209   122   123    1
   210   122   121    1
