@<TRIPOS>MOLECULE
tmp/5hnbA00.pdb
 151 142 0 0 0
SMALL
GASTEIGER

@<TRIPOS>ATOM
      1  N         -9.3100   15.4540   -3.2010 N.3    30  VAL30      -0.1231
      2  CA        -8.1220   14.6130   -2.9770 C.3    30  VAL30       0.1692
      3  C         -6.8500   15.1260   -3.6730 C.2    30  VAL30       0.2592
      4  O         -5.7740   14.5560   -3.4820 O.2    30  VAL30      -0.2718
      5  CB        -8.3820   13.1440   -3.4000 C.3    30  VAL30       0.0266
      6  CG1       -9.4500   12.5350   -2.5190 C.3    30  VAL30       0.0020
      7  CG2       -8.7760   13.0490   -4.8800 C.3    30  VAL30       0.0020
      8  N         -6.9680   16.1980   -4.4570 N.am   31  GLY31      -0.1957
      9  CA        -5.8400   16.7560   -5.1990 C.3    31  GLY31       0.1869
     10  C         -6.0540   18.2070   -5.5740 C.2    31  GLY31       0.2309
     11  O         -7.1900   18.6440   -5.7560 O.2    31  GLY31      -0.2863
     12  N         -2.9050   21.2880  -12.7640 N.3    35  TYR35      -0.1241
     13  CA        -3.9950   20.5970  -13.4750 C.3    35  TYR35       0.1605
     14  C         -5.3930   21.1270  -13.1140 C.2    35  TYR35       0.2264
     15  O         -6.2530   21.2570  -13.9900 O.2    35  TYR35      -0.2867
     16  CB        -3.9300   19.0730  -13.2590 C.3    35  TYR35       0.0534
     17  CG        -3.9530   18.5950  -11.8130 C.ar   35  TYR35      -0.0201
     18  CD1       -5.1580   18.4560  -11.1110 C.ar   35  TYR35      -0.0009
     19  CD2       -2.7680   18.2420  -11.1570 C.ar   35  TYR35      -0.0009
     20  CE1       -5.1800   18.0040   -9.7840 C.ar   35  TYR35       0.0417
     21  CE2       -2.7790   17.7860   -9.8300 C.ar   35  TYR35       0.0417
     22  CZ        -3.9880   17.6680   -9.1530 C.ar   35  TYR35       0.1957
     23  OH        -4.0030   17.2220   -7.8530 O.3    35  TYR35      -0.2866
     24  N         -9.0850   17.9190   -8.1900 N.3    38  VAL38      -0.1245
     25  CA        -9.5730   16.5380   -8.3310 C.3    38  VAL38       0.1561
     26  C        -10.3460   16.0930   -7.0770 C.2    38  VAL38       0.2260
     27  O         -9.8860   16.3110   -5.9550 O.2    38  VAL38      -0.2867
     28  CB        -8.4160   15.5510   -8.6210 C.3    38  VAL38       0.0252
     29  CG1       -8.9000   14.0970   -8.5830 C.3    38  VAL38       0.0019
     30  CG2       -7.8020   15.8510   -9.9770 C.3    38  VAL38       0.0019
     31  N        -13.3360    9.6220   -9.9990 N.3    53  ALA53      -0.1245
     32  CA       -12.5030   10.8210   -9.9280 C.3    53  ALA53       0.1562
     33  C        -13.1260   11.9080  -10.8050 C.2    53  ALA53       0.2260
     34  O        -13.3530   11.6790  -11.9980 O.2    53  ALA53      -0.2867
     35  CB       -11.0820   10.5170  -10.3810 C.3    53  ALA53       0.0290
     36  N        -12.3830   15.7040  -12.1430 N.3    55  LYS55      -0.1245
     37  CA       -11.3710   16.7360  -12.3300 C.3    55  LYS55       0.1561
     38  C        -12.0530   18.0010  -12.8270 C.2    55  LYS55       0.2260
     39  O        -12.6330   17.9980  -13.9160 O.2    55  LYS55      -0.2867
     40  CB       -10.3270   16.2740  -13.3540 C.3    55  LYS55       0.0271
     41  CG        -9.2040   17.2860  -13.6510 C.3    55  LYS55       0.0035
     42  CD        -8.2100   16.6960  -14.6420 C.3    55  LYS55       0.0206
     43  CE        -7.3150   17.7480  -15.2490 C.3    55  LYS55       0.1093
     44  NZ        -6.2420   17.1380  -16.0750 N.3    55  LYS55      -0.1314
     45  N         -5.3290    6.0690  -18.3180 N.3    82  ILE82      -0.1245
     46  CA        -6.5860    6.4640  -17.6650 C.3    82  ILE82       0.1561
     47  C         -7.6300    6.8860  -18.7180 C.2    82  ILE82       0.2260
     48  O         -7.3110    7.5960  -19.6780 O.2    82  ILE82      -0.2867
     49  CB        -6.3490    7.5930  -16.6060 C.3    82  ILE82       0.0252
     50  CG1       -7.5380    7.7230  -15.6470 C.3    82  ILE82       0.0019
     51  CG2       -6.0730    8.9320  -17.2790 C.3    82  ILE82       0.0019
     52  CD1       -7.6630    6.6080  -14.6280 C.3    82  ILE82       0.0001
     53  N        -13.4240   10.3890  -14.5740 N.3   100  PHE100     -0.1227
     54  CA       -12.6040    9.1770  -14.7500 C.3   100  PHE100      0.1736
     55  C        -12.9480    8.1520  -13.6710 C.2   100  PHE100      0.2595
     56  O        -13.5720    8.4930  -12.6580 O.2   100  PHE100     -0.2718
     57  CB       -11.1070    9.4900  -14.6160 C.3   100  PHE100      0.0547
     58  CG       -10.6360   10.6670  -15.4270 C.ar  100  PHE100     -0.0202
     59  CD1      -10.1680   10.4930  -16.7240 C.ar  100  PHE100     -0.0042
     60  CD2      -10.6290   11.9480  -14.8800 C.ar  100  PHE100     -0.0042
     61  CE1       -9.7080   11.5790  -17.4680 C.ar  100  PHE100     -0.0003
     62  CE2      -10.1790   13.0450  -15.6170 C.ar  100  PHE100     -0.0003
     63  CZ        -9.7110   12.8590  -16.9130 C.ar  100  PHE100     -0.0000
     64  N        -12.5270    6.9040  -13.8760 N.am  101  ASP101     -0.1960
     65  CA       -12.5740    5.8910  -12.8130 C.3   101  ASP101      0.1840
     66  C        -11.5350    6.2560  -11.7440 C.2   101  ASP101      0.2622
     67  O        -10.4930    6.8540  -12.0420 O.2   101  ASP101     -0.2715
     68  CB       -12.3170    4.4660  -13.3490 C.3   101  ASP101      0.1450
     69  CG       -13.5640    3.8100  -13.9800 C.2   101  ASP101      0.3671
     70  OD1      -14.7000    4.3090  -13.8170 O.co2 101  ASP101     -0.2456
     71  OD2      -13.4040    2.7570  -14.6390 O.co2 101  ASP101     -0.2456
     72  N        -11.8370    5.8950  -10.5030 N.am  102  TYR102     -0.1960
     73  CA       -11.0390    6.2980   -9.3520 C.3   102  TYR102      0.1771
     74  C         -9.9290    5.2890   -9.0880 C.2   102  TYR102      0.2619
     75  O        -10.2000    4.1000   -8.9400 O.2   102  TYR102     -0.2715
     76  CB       -11.9350    6.4130   -8.1170 C.3   102  TYR102      0.0574
     77  CG       -11.2350    6.9720   -6.9050 C.ar  102  TYR102     -0.0198
     78  CD1      -10.9760    8.3390   -6.7970 C.ar  102  TYR102     -0.0009
     79  CD2      -10.8300    6.1390   -5.8640 C.ar  102  TYR102     -0.0009
     80  CE1      -10.3360    8.8630   -5.6860 C.ar  102  TYR102      0.0417
     81  CE2      -10.1810    6.6570   -4.7430 C.ar  102  TYR102      0.0417
     82  CZ        -9.9370    8.0150   -4.6640 C.ar  102  TYR102      0.1957
     83  OH        -9.3060    8.5270   -3.5560 O.3   102  TYR102     -0.2866
     84  N         -8.6910    5.7800   -9.0240 N.am  103  ALA103     -0.1977
     85  CA        -7.5150    4.9670   -8.6810 C.3   103  ALA103      0.1597
     86  C         -7.1140    5.2850   -7.2400 C.2   103  ALA103      0.2287
     87  O         -6.7740    6.4250   -6.9270 O.2   103  ALA103     -0.2864
     88  CB        -6.3580    5.2610   -9.6410 C.3   103  ALA103      0.0319
     89  N         -0.9940    5.2890   -6.1480 N.3   106  ASP106     -0.1239
     90  CA        -0.0470    5.7860   -7.1530 C.3   106  ASP106      0.1674
     91  C          1.3770    5.4920   -6.7110 C.2   106  ASP106      0.2266
     92  O          1.6040    5.1730   -5.5360 O.2   106  ASP106     -0.2867
     93  CB        -0.2390    7.2870   -7.3930 C.3   106  ASP106      0.1410
     94  CG        -0.1230    8.1120   -6.1170 C.2   106  ASP106      0.3668
     95  OD1       -1.1630    8.5700   -5.6060 O.co2 106  ASP106     -0.2456
     96  OD2        1.0040    8.2990   -5.6230 O.co2 106  ASP106     -0.2456
     97  N          3.0260    7.6160   -3.6080 N.3   109  HIS109     -0.1241
     98  CA         2.6330    7.1230   -2.2740 C.3   109  HIS109      0.1621
     99  C          3.1710    5.7240   -1.9700 C.2   109  HIS109      0.2264
    100  O          3.6410    5.4800   -0.8610 O.2   109  HIS109     -0.2867
    101  CB         1.1100    7.1490   -2.0940 C.3   109  HIS109      0.0745
    102  CG         0.5450    8.5280   -1.9620 C.ar  109  HIS109      0.0817
    103  ND1       -0.0970    9.1750   -2.9980 N.ar  109  HIS109     -0.2268
    104  CD2        0.5300    9.3880   -0.9160 C.ar  109  HIS109      0.1154
    105  CE1       -0.4810   10.3730   -2.5960 C.ar  109  HIS109      0.1986
    106  NE2       -0.1130   10.5280   -1.3370 N.ar  109  HIS109     -0.2212
    107  N          4.1690   10.3730   -9.2910 N.3   152  ALA152     -0.1231
    108  CA         2.8470   10.9610   -8.9850 C.3   152  ALA152      0.1694
    109  C          1.7990   10.8010  -10.1040 C.2   152  ALA152      0.2592
    110  O          0.5950   10.8340   -9.8250 O.2   152  ALA152     -0.2718
    111  CB         2.9890   12.4340   -8.6100 C.3   152  ALA152      0.0304
    112  N          2.2580   10.6410  -11.3500 N.am  153  ASN153     -0.1974
    113  CA         1.3850   10.4450  -12.5220 C.3   153  ASN153      0.1688
    114  C          1.1680    8.9900  -12.9550 C.2   153  ASN153      0.2292
    115  O          0.4680    8.7410  -13.9430 O.2   153  ASN153     -0.2864
    116  CB         1.9490   11.2370  -13.7100 C.3   153  ASN153      0.1181
    117  CG         1.9130   12.7270  -13.4840 C.2   153  ASN153      0.2629
    118  OD1        1.1590   13.2260  -12.6490 O.2   153  ASN153     -0.2716
    119  ND2        2.7250   13.4520  -14.2380 N.am  153  ASN153     -0.0877
    120  N         -0.7030    6.0740  -11.7470 N.3   155  LEU155     -0.1245
    121  CA        -1.7430    5.6070  -10.8290 C.3   155  LEU155      0.1561
    122  C         -1.7950    4.0810  -10.8600 C.2   155  LEU155      0.2260
    123  O         -1.3940    3.4560  -11.8490 O.2   155  LEU155     -0.2867
    124  CB        -3.1190    6.1880  -11.1900 C.3   155  LEU155      0.0270
    125  CG        -3.2150    7.6770  -11.5630 C.3   155  LEU155      0.0019
    126  CD1       -4.6820    8.1100  -11.7530 C.3   155  LEU155      0.0001
    127  CD2       -2.5170    8.5470  -10.5370 C.3   155  LEU155      0.0001
    128  N         -1.5360    8.7910  -16.2090 N.3   169  ALA169     -0.1231
    129  CA        -2.4000    9.9690  -16.1140 C.3   169  ALA169      0.1694
    130  C         -1.6320   11.2900  -16.2510 C.2   169  ALA169      0.2592
    131  O         -0.4020   11.3200  -16.2010 O.2   169  ALA169     -0.2718
    132  CB        -3.1580    9.9380  -14.7880 C.3   169  ALA169      0.0304
    133  N         -2.3940   12.3660  -16.4390 N.am  170  ASP170     -0.1974
    134  CA        -1.9050   13.7540  -16.4680 C.3   170  ASP170      0.1709
    135  C         -0.8190   14.0200  -17.5250 C.2   170  ASP170      0.2293
    136  O          0.1930   14.6720  -17.2510 O.2   170  ASP170     -0.2864
    137  CB        -1.4520   14.1830  -15.0630 C.3   170  ASP170      0.1436
    138  CG        -1.4600   15.7050  -14.8590 C.2   170  ASP170      0.3671
    139  OD1       -2.1290   16.4410  -15.6190 O.co2 170  ASP170     -0.2456
    140  OD2       -0.8000   16.1710  -13.9060 O.co2 170  ASP170     -0.2456
    141  N         -5.9620    7.1240    0.1000 N.3   339  ARG339     -0.1245
    142  CA        -5.6070    8.5540    0.0670 C.3   339  ARG339      0.1563
    143  C         -6.6360    9.3950    0.8340 C.2   339  ARG339      0.2260
    144  O         -7.8400    9.1460    0.7410 O.2   339  ARG339     -0.2867
    145  CB        -5.4070    9.0690   -1.3770 C.3   339  ARG339      0.0307
    146  CG        -6.6370    9.0510   -2.2800 C.3   339  ARG339      0.0489
    147  CD        -6.3710    9.6950   -3.6530 C.3   339  ARG339      0.2205
    148  NE        -5.7750    8.7590   -4.6170 N.pl3 339  ARG339     -0.0865
    149  CZ        -4.4930    8.7270   -5.0030 C.cat 339  ARG339      0.5346
    150  NH1       -3.5870    9.5930   -4.5370 N.pl3 339  ARG339      0.1354
    151  NH2       -4.1040    7.8100   -5.8860 N.pl3 339  ARG339      0.1354
@<TRIPOS>BOND
     1    48    47    2
     2    47    46    1
     3    45    46    1
     4    46    49    1
     5   135   136    2
     6   135   134    1
     7    61    63   ar
     8    61    59   ar
     9    51    49    1
    10    63    62   ar
    11    59    58   ar
    12    49    50    1
    13   134   133    1
    14   134   137    1
    15   133   130   am
    16   130   131    2
    17   130   129    1
    18   128   129    1
    19   129   132    1
    20    44    43    1
    21    50    52    1
    22   139   138   ar
    23    62    60   ar
    24    58    60   ar
    25    58    57    1
    26    43    42    1
    27   137   138    1
    28   138   140   ar
    29    54    57    1
    30    54    53    1
    31    54    55    1
    32    42    41    1
    33    71    69   ar
    34   119   117   am
    35    15    14    2
    36    69    70   ar
    37    69    68    1
    38   115   114    2
    39    39    38    2
    40    64    55   am
    41    64    65    1
    42   116   117    1
    43   116   113    1
    44    55    56    2
    45    41    40    1
    46   117   118    2
    47    13    16    1
    48    13    14    1
    49    13    12    1
    50    40    37    1
    51    68    65    1
    52    16    17    1
    53   114   113    1
    54    38    37    1
    55    65    66    1
    56   113   112    1
    57    37    36    1
    58    67    66    2
    59    34    33    2
    60   123   122    2
    61    17    19   ar
    62    17    18   ar
    63   126   125    1
    64   120   121    1
    65    66    72   am
    66   125   124    1
    67   125   127    1
    68   112   109   am
    69   124   121    1
    70    19    21   ar
    71    18    20   ar
    72   122   121    1
    73    33    32    1
    74    72    73    1
    75    35    32    1
    76   109   110    2
    77   109   108    1
    78    31    32    1
    79    30    28    1
    80    21    22   ar
    81    20    22   ar
    82    88    85    1
    83    73    74    1
    84    73    76    1
    85   107   108    1
    86    22    23    1
    87    74    84   am
    88    74    75    2
    89    84    85    1
    90   108   111    1
    91    85    86    1
    92    28    29    1
    93    28    25    1
    94    25    24    1
    95    25    26    1
    96    76    77    1
    97    93    90    1
    98    93    94    1
    99    86    87    2
   100    90    91    1
   101    90    89    1
   102    26    27    2
   103    77    78   ar
   104    77    79   ar
   105    78    80   ar
   106    91    92    2
   107    94    96   ar
   108    94    95   ar
   109   151   149    1
   110    79    81   ar
   111    11    10    2
   112    80    82   ar
   113    10     9    1
   114     9     8    1
   115   149   148    2
   116   149   150    1
   117     7     5    1
   118    81    82   ar
   119    82    83    1
   120   148   147    1
   121     8     3   am
   122     3     4    2
   123     3     2    1
   124   147   146    1
   125    97    98    1
   126     5     2    1
   127     5     6    1
   128     1     2    1
   129   103   105   ar
   130   103   102   ar
   131   105   106   ar
   132   146   145    1
   133    98   101    1
   134    98    99    1
   135   101   102    1
   136    99   100    2
   137   102   104   ar
   138   145   142    1
   139   106   104   ar
   140   142   141    1
   141   142   143    1
   142   144   143    2
