@<TRIPOS>MOLECULE
tmp/5hneB01.pdb
 183 172 0 0 0
SMALL
GASTEIGER

@<TRIPOS>ATOM
      1  N         28.1180   33.2740   33.6100 N.3    23  PHE23      -0.1241
      2  CA        27.0990   34.0910   34.2770 C.3    23  PHE23       0.1605
      3  C         25.6840   33.5250   34.1490 C.2    23  PHE23       0.2264
      4  O         25.2610   33.1380   33.0570 O.2    23  PHE23      -0.2867
      5  CB        27.0910   35.5210   33.7310 C.3    23  PHE23       0.0534
      6  CG        25.8210   36.2660   34.0260 C.ar   23  PHE23      -0.0203
      7  CD1       25.5570   36.7270   35.3080 C.ar   23  PHE23      -0.0042
      8  CD2       24.8870   36.4920   33.0370 C.ar   23  PHE23      -0.0042
      9  CE1       24.3870   37.4040   35.5930 C.ar   23  PHE23      -0.0003
     10  CE2       23.7210   37.1680   33.3100 C.ar   23  PHE23      -0.0003
     11  CZ        23.4680   37.6270   34.5910 C.ar   23  PHE23      -0.0000
     12  N         12.0250   42.4550   36.5720 N.3    68  PHE68      -0.1241
     13  CA        13.1210   41.9010   37.3300 C.3    68  PHE68       0.1605
     14  C         14.0710   42.9960   37.7950 C.2    68  PHE68       0.2264
     15  O         13.9550   44.1680   37.4130 O.2    68  PHE68      -0.2867
     16  CB        13.8840   40.8700   36.5090 C.3    68  PHE68       0.0534
     17  CG        14.6350   41.4540   35.3420 C.ar   68  PHE68      -0.0203
     18  CD1       13.9700   41.7940   34.1730 C.ar   68  PHE68      -0.0042
     19  CD2       16.0040   41.6400   35.4050 C.ar   68  PHE68      -0.0042
     20  CE1       14.6530   42.3300   33.0910 C.ar   68  PHE68      -0.0003
     21  CE2       16.6950   42.1740   34.3310 C.ar   68  PHE68      -0.0003
     22  CZ        16.0160   42.5320   33.1720 C.ar   68  PHE68      -0.0000
     23  N         24.3160   43.1220   43.0110 N.3    72  LYS72      -0.1245
     24  CA        25.3900   42.2320   43.4460 C.3    72  LYS72       0.1561
     25  C         25.7170   42.3580   44.9350 C.2    72  LYS72       0.2260
     26  O         25.6070   43.4340   45.5200 O.2    72  LYS72      -0.2867
     27  CB        26.6590   42.4650   42.6220 C.3    72  LYS72       0.0271
     28  CG        26.6420   41.8450   41.2310 C.3    72  LYS72       0.0035
     29  CD        27.9140   42.1530   40.4530 C.3    72  LYS72       0.0206
     30  CE        27.9810   41.3900   39.1400 C.3    72  LYS72       0.1093
     31  NZ        29.2030   41.6530   38.3210 N.3    72  LYS72      -0.1314
     32  N         25.3170   37.3130   42.2640 N.3   134  TYR134     -0.1241
     33  CA        24.2810   38.0480   41.5260 C.3   134  TYR134      0.1605
     34  C         22.9080   37.7200   42.1160 C.2   134  TYR134      0.2264
     35  O         22.5780   36.5570   42.3190 O.2   134  TYR134     -0.2867
     36  CB        24.3360   37.7160   40.0380 C.3   134  TYR134      0.0534
     37  CG        23.4310   38.5850   39.1690 C.ar  134  TYR134     -0.0201
     38  CD1       23.8300   39.8490   38.7580 C.ar  134  TYR134     -0.0009
     39  CD2       22.1770   38.1280   38.7570 C.ar  134  TYR134     -0.0009
     40  CE1       23.0080   40.6430   37.9620 C.ar  134  TYR134      0.0417
     41  CE2       21.3410   38.9190   37.9720 C.ar  134  TYR134      0.0417
     42  CZ        21.7550   40.1740   37.5740 C.ar  134  TYR134      0.1957
     43  OH        20.9260   40.9360   36.7750 O.3   134  TYR134     -0.2866
     44  N         18.8300   38.1690   41.7700 N.3   136  ARG136     -0.1245
     45  CA        17.8240   38.3810   40.7220 C.3   136  ARG136      0.1563
     46  C         16.4380   38.2250   41.2990 C.2   136  ARG136      0.2260
     47  O         15.9260   37.1120   41.3930 O.2   136  ARG136     -0.2867
     48  CB        18.0560   37.3990   39.5640 C.3   136  ARG136      0.0307
     49  CG        16.9000   37.2530   38.5680 C.3   136  ARG136      0.0489
     50  CD        16.4830   38.5770   37.9150 C.3   136  ARG136      0.2205
     51  NE        17.5860   39.1880   37.1830 N.pl3 136  ARG136     -0.0865
     52  CZ        17.9420   38.9390   35.9190 C.cat 136  ARG136      0.5346
     53  NH1       17.2690   38.1030   35.1440 N.pl3 136  ARG136      0.1354
     54  NH2       18.9770   39.5720   35.3960 N.pl3 136  ARG136      0.1354
     55  N         28.8730   34.4520   40.6200 N.3   163  VAL163     -0.1231
     56  CA        29.4190   34.7860   39.3040 C.3   163  VAL163      0.1692
     57  C         30.9060   35.0890   39.3780 C.2   163  VAL163      0.2593
     58  O         31.4040   35.5630   40.3980 O.2   163  VAL163     -0.2718
     59  CB        28.6830   35.9790   38.6720 C.3   163  VAL163      0.0266
     60  CG1       27.2280   35.6270   38.4280 C.3   163  VAL163      0.0020
     61  CG2       28.7680   37.2090   39.5510 C.3   163  VAL163      0.0020
     62  N         31.6080   34.8170   38.2820 N.am  164  GLY164     -0.1942
     63  CA        33.0440   35.0650   38.2030 C.3   164  GLY164      0.2014
     64  C         33.3570   36.5190   37.9300 C.2   164  GLY164      0.2639
     65  O         32.4610   37.3650   37.9150 O.2   164  GLY164     -0.2714
     66  N         34.6390   36.8120   37.7320 N.am  165  ALA165     -0.1963
     67  CA        35.0850   38.1770   37.4280 C.3   165  ALA165      0.1728
     68  C         34.7390   38.5140   35.9830 C.2   165  ALA165      0.2616
     69  O         35.0550   37.7510   35.0740 O.2   165  ALA165     -0.2715
     70  CB        36.5840   38.3190   37.6610 C.3   165  ALA165      0.0334
     71  N         34.0960   39.6540   35.7620 N.am  166  TYR166     -0.1974
     72  CA        33.6970   40.0180   34.4050 C.3   166  TYR166      0.1639
     73  C         34.9060   40.0840   33.4600 C.2   166  TYR166      0.2290
     74  O         34.8030   39.6710   32.3020 O.2   166  TYR166     -0.2864
     75  CB        32.9010   41.3330   34.3730 C.3   166  TYR166      0.0560
     76  CG        32.3320   41.6290   32.9920 C.ar  166  TYR166     -0.0198
     77  CD1       33.0890   42.3150   32.0390 C.ar  166  TYR166     -0.0009
     78  CD2       31.0510   41.2040   32.6340 C.ar  166  TYR166     -0.0009
     79  CE1       32.5900   42.5730   30.7700 C.ar  166  TYR166      0.0417
     80  CE2       30.5430   41.4580   31.3620 C.ar  166  TYR166      0.0417
     81  CZ        31.3150   42.1450   30.4350 C.ar  166  TYR166      0.1957
     82  OH        30.8230   42.4030   29.1750 O.3   166  TYR166     -0.2866
     83  N         35.3100   46.8420   23.9530 N.3   175  VAL175     -0.1245
     84  CA        34.3660   46.2060   23.0250 C.3   175  VAL175      0.1561
     85  C         34.0410   47.0500   21.8230 C.2   175  VAL175      0.2260
     86  O         34.1820   48.2690   21.8440 O.2   175  VAL175     -0.2867
     87  CB        33.0380   45.8170   23.7040 C.3   175  VAL175      0.0252
     88  CG1       33.3020   44.8050   24.8110 C.3   175  VAL175      0.0019
     89  CG2       32.2930   47.0490   24.2260 C.3   175  VAL175      0.0019
     90  N         12.6340   48.2500   34.1280 N.3   195  LYS195     -0.1245
     91  CA        13.3430   47.0120   33.9050 C.3   195  LYS195      0.1561
     92  C         12.3470   45.8780   33.7330 C.2   195  LYS195      0.2260
     93  O         12.2360   44.9990   34.5900 O.2   195  LYS195     -0.2867
     94  CB        14.3200   46.7520   35.0690 C.3   195  LYS195      0.0271
     95  CG        15.6190   46.0730   34.6710 C.3   195  LYS195      0.0035
     96  CD        16.6650   46.1910   35.7780 C.3   195  LYS195      0.0206
     97  CE        18.0130   45.6350   35.3450 C.3   195  LYS195      0.1093
     98  NZ        18.6590   46.4370   34.2770 N.3   195  LYS195     -0.1314
     99  N         13.7500   43.2800   26.7340 N.3   200  TYR200     -0.1241
    100  CA        14.9660   42.4950   26.4590 C.3   200  TYR200      0.1605
    101  C         14.8420   41.4590   25.3190 C.2   200  TYR200      0.2264
    102  O         15.6970   41.4150   24.4310 O.2   200  TYR200     -0.2867
    103  CB        15.5220   41.9020   27.7780 C.3   200  TYR200      0.0534
    104  CG        15.8160   43.0480   28.7030 C.ar  200  TYR200     -0.0201
    105  CD1       14.8290   43.5560   29.5200 C.ar  200  TYR200     -0.0009
    106  CD2       17.0470   43.6970   28.6690 C.ar  200  TYR200     -0.0009
    107  CE1       15.0540   44.6590   30.3090 C.ar  200  TYR200      0.0417
    108  CE2       17.2870   44.8050   29.4580 C.ar  200  TYR200      0.0417
    109  CZ        16.2830   45.2790   30.2750 C.ar  200  TYR200      0.1957
    110  OH        16.4650   46.3940   31.0660 O.3   200  TYR200     -0.2866
    111  N         21.3260   41.7060   18.7660 N.3   207  GLN207     -0.1245
    112  CA        22.6580   41.3040   19.2080 C.3   207  GLN207      0.1566
    113  C         23.2850   40.3030   18.2070 C.2   207  GLN207      0.2260
    114  O         24.4690   40.4240   17.8590 O.2   207  GLN207     -0.2867
    115  CB        22.5850   40.7350   20.6280 C.3   207  GLN207      0.0367
    116  CG        23.8770   40.1470   21.1820 C.3   207  GLN207      0.0905
    117  CD        24.9620   41.1760   21.3890 C.2   207  GLN207      0.2608
    118  OE1       24.7350   42.3770   21.2470 O.2   207  GLN207     -0.2717
    119  NE2       26.1580   40.7070   21.7270 N.am  207  GLN207     -0.0878
    120  N         28.6790   44.3220   20.7820 N.3   217  GLN217     -0.1245
    121  CA        27.4590   44.8100   21.4650 C.3   217  GLN217      0.1566
    122  C         26.7280   45.7860   20.5710 C.2   217  GLN217      0.2260
    123  O         27.2500   46.2070   19.5410 O.2   217  GLN217     -0.2867
    124  CB        27.8100   45.5240   22.7670 C.3   217  GLN217      0.0367
    125  CG        28.4990   44.6610   23.8030 C.3   217  GLN217      0.0905
    126  CD        27.6240   43.5480   24.3420 C.2   217  GLN217      0.2608
    127  OE1       26.3900   43.6350   24.3240 O.2   217  GLN217     -0.2717
    128  NE2       28.2620   42.4950   24.8550 N.am  217  GLN217     -0.0878
    129  N         24.1070   51.2040   25.6390 N.3   231  VAL231     -0.1231
    130  CA        24.9460   50.2070   24.9910 C.3   231  VAL231      0.1692
    131  C         24.6030   48.8520   25.5940 C.2   231  VAL231      0.2593
    132  O         24.7170   48.6440   26.8100 O.2   231  VAL231     -0.2718
    133  CB        26.4590   50.5170   25.1040 C.3   231  VAL231      0.0266
    134  CG1       26.9200   50.6270   26.5330 C.3   231  VAL231      0.0020
    135  CG2       27.2820   49.4480   24.3980 C.3   231  VAL231      0.0020
    136  N         24.1560   47.9310   24.7490 N.am  232  GLY232     -0.1942
    137  CA        23.7110   46.6280   25.2380 C.3   232  GLY232      0.2014
    138  C         22.6760   46.7970   26.3310 C.2   232  GLY232      0.2640
    139  O         21.6790   47.4760   26.1350 O.2   232  GLY232     -0.2714
    140  N         22.9390   46.2100   27.4940 N.am  233  THR233     -0.1936
    141  CA        22.0660   46.3600   28.6500 C.3   233  THR233      0.2028
    142  C         22.6940   47.3220   29.6590 C.2   233  THR233      0.2642
    143  O         22.4510   47.1950   30.8520 O.2   233  THR233     -0.2714
    144  CB        21.8320   45.0110   29.3730 C.3   233  THR233      0.1808
    145  OG1       23.0700   44.5630   29.9320 O.3   233  THR233     -0.2208
    146  CG2       21.2390   43.9410   28.4140 C.3   233  THR233      0.0379
    147  N         23.4790   48.2820   29.1700 N.am  234  MET234     -0.1976
    148  CA        24.1960   49.2290   30.0270 C.3   234  MET234      0.1605
    149  C         23.9970   50.6630   29.5810 C.2   234  MET234      0.2287
    150  O         23.7080   50.9390   28.4000 O.2   234  MET234     -0.2864
    151  CB        25.6910   48.9460   29.9490 C.3   234  MET234      0.0413
    152  CG        26.0630   47.4900   30.1640 C.3   234  MET234      0.0598
    153  SD        27.8070   47.1900   30.4960 S.3   234  MET234     -0.1393
    154  CE        28.6590   48.4280   29.6040 C.3   234  MET234      0.0692
    155  N         30.5660   51.7950   28.7560 N.3   303  GLY303     -0.1225
    156  CA        29.2850   51.4620   29.2910 C.3   303  GLY303      0.1811
    157  C         29.3800   51.3140   30.8040 C.2   303  GLY303      0.2280
    158  O         30.4590   51.0950   31.3530 O.2   303  GLY303     -0.2866
    159  N         25.7460   46.7370   36.3060 N.3   306  THR306     -0.1203
    160  CA        26.1130   45.7750   37.3400 C.3   306  THR306      0.1994
    161  C         26.9970   44.6510   36.8100 C.2   306  THR306      0.2617
    162  O         27.8090   44.0990   37.5560 O.2   306  THR306     -0.2717
    163  CB        24.8310   45.2210   37.9950 C.3   306  THR306      0.1784
    164  OG1       24.1520   46.3120   38.6160 O.3   306  THR306     -0.2211
    165  CG2       25.1050   44.1500   39.0400 C.3   306  THR306      0.0376
    166  N         26.8450   44.3130   35.5280 N.am  307  ALA307     -0.1979
    167  CA        27.6380   43.2550   34.9100 C.3   307  ALA307      0.1597
    168  C         29.1340   43.4480   35.1030 C.2   307  ALA307      0.2287
    169  O         29.8180   42.5620   35.6170 O.2   307  ALA307     -0.2864
    170  CB        27.3400   43.1700   33.4150 C.3   307  ALA307      0.0319
    171  N         32.8380   49.3090   31.2330 N.3   311  CYS311     -0.1235
    172  CA        33.3970   48.5790   30.1040 C.3   311  CYS311      0.1677
    173  C         33.8250   49.5250   28.9740 C.2   311  CYS311      0.2270
    174  O         32.9950   50.2070   28.3750 O.2   311  CYS311     -0.2867
    175  CB        32.4030   47.5450   29.5670 C.3   311  CYS311      0.0956
    176  SG        33.1730   46.4680   28.3320 S.3   311  CYS311     -0.0801
    177  N         35.0040   51.1160   25.4030 N.3   313  VAL313     -0.1245
    178  CA        34.6070   50.9380   24.0150 C.3   313  VAL313      0.1561
    179  C         35.7420   51.4290   23.1250 C.2   313  VAL313      0.2260
    180  O         36.2400   52.5500   23.3040 O.2   313  VAL313     -0.2867
    181  CB        33.3260   51.7200   23.6980 C.3   313  VAL313      0.0252
    182  CG1       33.0410   51.7000   22.1940 C.3   313  VAL313      0.0019
    183  CG2       32.1400   51.1350   24.4740 C.3   313  VAL313      0.0019
@<TRIPOS>BOND
     1   114   113    2
     2   113   112    1
     3   111   112    1
     4   112   115    1
     5   123   122    2
     6   122   121    1
     7   115   116    1
     8   120   121    1
     9   116   117    1
    10   118   117    2
    11   117   119   am
    12   121   124    1
    13    85    86    2
    14    85    84    1
    15   182   181    1
    16   124   125    1
    17    84    87    1
    18    84    83    1
    19   179   180    2
    20   179   178    1
    21   181   178    1
    22   181   183    1
    23    87    89    1
    24    87    88    1
    25   125   126    1
    26   178   177    1
    27   127   126    2
    28   126   128   am
    29   135   133    1
    30   102   101    2
    31   136   137    1
    32   136   131   am
    33   130   133    1
    34   130   131    1
    35   130   129    1
    36   133   134    1
    37   137   138    1
    38   101   100    1
    39   131   132    2
    40   139   138    2
    41   138   140   am
    42   100    99    1
    43   100   103    1
    44   140   141    1
    45   103   104    1
    46   176   175    1
    47   174   173    2
    48   150   149    2
    49   146   144    1
    50   141   144    1
    51   141   142    1
    52   106   104   ar
    53   106   108   ar
    54   104   105   ar
    55   155   156    1
    56   173   172    1
    57   147   142   am
    58   147   148    1
    59    82    81    1
    60   156   157    1
    61   144   145    1
    62   108   109   ar
    63   105   107   ar
    64   175   172    1
    65   149   148    1
    66   154   153    1
    67   142   143    2
    68   151   148    1
    69   151   152    1
    70   172   171    1
    71   152   153    1
    72   109   107   ar
    73   109   110    1
    74    81    79   ar
    75    81    80   ar
    76    79    77   ar
    77   157   158    2
    78    80    78   ar
    79    77    76   ar
    80    74    73    2
    81    78    76   ar
    82    76    75    1
    83     8    10   ar
    84     8     6   ar
    85     4     3    2
    86    20    22   ar
    87    20    18   ar
    88    22    21   ar
    89    10    11   ar
    90   170   167    1
    91    73    72    1
    92     1     2    1
    93     5     6    1
    94     5     2    1
    95    92    91    1
    96    92    93    2
    97    91    90    1
    98    91    94    1
    99     6     7   ar
   100     3     2    1
   101    18    17   ar
   102    98    97    1
   103    21    19   ar
   104    75    72    1
   105    72    71    1
   106    11     9   ar
   107    95    94    1
   108    95    96    1
   109   167   168    1
   110   167   166    1
   111    69    68    2
   112   168   169    2
   113    53    52    1
   114     7     9   ar
   115    17    19   ar
   116    17    16    1
   117    97    96    1
   118    54    52    1
   119   166   161   am
   120    71    68   am
   121    52    51    2
   122    68    67    1
   123   159   160    1
   124    16    13    1
   125    12    13    1
   126    43    42    1
   127   161   160    1
   128   161   162    2
   129    51    50    1
   130    13    14    1
   131   160   163    1
   132    15    14    2
   133    67    70    1
   134    67    66    1
   135    42    40   ar
   136    42    41   ar
   137    66    64   am
   138    50    49    1
   139    65    64    2
   140    64    63    1
   141    40    38   ar
   142    41    39   ar
   143   163   164    1
   144   163   165    1
   145    63    62    1
   146    62    57   am
   147    31    30    1
   148    60    59    1
   149    49    48    1
   150    59    56    1
   151    59    61    1
   152    39    37   ar
   153    38    37   ar
   154    30    29    1
   155    37    36    1
   156    56    57    1
   157    56    55    1
   158    57    58    2
   159    48    45    1
   160    36    33    1
   161    29    28    1
   162    45    46    1
   163    45    44    1
   164    28    27    1
   165    46    47    2
   166    33    34    1
   167    33    32    1
   168    34    35    2
   169    27    24    1
   170    23    24    1
   171    24    25    1
   172    25    26    2
