@<TRIPOS>MOLECULE
tmp/5hngA00.pdb
 121 113 0 0 0
SMALL
GASTEIGER

@<TRIPOS>ATOM
      1  N         31.4920   26.4370   16.3670 N.3    16  LYS16      -0.1245
      2  CA        32.5500   25.5410   15.9370 C.3    16  LYS16       0.1561
      3  C         33.4460   26.1320   14.9080 C.2    16  LYS16       0.2260
      4  O         33.0210   26.9970   14.1570 O.2    16  LYS16      -0.2867
      5  CB        32.0130   24.1730   15.4930 C.3    16  LYS16       0.0271
      6  CG        31.2510   24.0940   14.1920 C.3    16  LYS16       0.0035
      7  CD        31.0890   22.6250   13.8230 C.3    16  LYS16       0.0206
      8  CE        31.0160   22.3650   12.3360 C.3    16  LYS16       0.1093
      9  NZ        29.7130   22.7900   11.7340 N.3    16  LYS16      -0.1314
     10  N         35.2830   25.8470   11.4960 N.3    18  LEU18      -0.1245
     11  CA        34.9860   25.1610   10.2380 C.3    18  LEU18       0.1561
     12  C         36.2780   24.8920    9.4830 C.2    18  LEU18       0.2260
     13  O         36.4070   23.8400    8.8570 O.2    18  LEU18      -0.2867
     14  CB        34.0500   25.9970    9.3540 C.3    18  LEU18       0.0270
     15  CG        32.6750   26.3240    9.9180 C.3    18  LEU18       0.0019
     16  CD1       32.1160   27.5870    9.2760 C.3    18  LEU18       0.0001
     17  CD2       31.7070   25.1660    9.7140 C.3    18  LEU18       0.0001
     18  N         38.2770   29.9130   10.1640 N.3    26  VAL26      -0.1245
     19  CA        36.8790   30.2080    9.8510 C.3    26  VAL26       0.1561
     20  C         35.9900   29.6090   10.9380 C.2    26  VAL26       0.2260
     21  O         36.1150   28.4290   11.2460 O.2    26  VAL26      -0.2867
     22  CB        36.5010   29.7820    8.4180 C.3    26  VAL26       0.0252
     23  CG1       35.0310   30.0680    8.1120 C.3    26  VAL26       0.0019
     24  CG2       37.3900   30.5040    7.4240 C.3    26  VAL26       0.0019
     25  N         29.7560   32.3460    7.9940 N.3    39  ALA39      -0.1245
     26  CA        31.0460   31.6950    8.1800 C.3    39  ALA39       0.1562
     27  C         31.9880   32.8900    8.3750 C.2    39  ALA39       0.2260
     28  O         32.2350   33.6130    7.4070 O.2    39  ALA39      -0.2867
     29  CB        31.4350   30.9160    6.9300 C.3    39  ALA39       0.0290
     30  N         31.2250   32.4170   -2.9630 N.3    73  VAL73      -0.1245
     31  CA        30.9870   32.7730   -1.5850 C.3    73  VAL73       0.1561
     32  C         30.8670   34.2870   -1.5420 C.2    73  VAL73       0.2260
     33  O         31.6740   34.9490   -2.1650 O.2    73  VAL73      -0.2867
     34  CB        32.1290   32.2070   -0.6970 C.3    73  VAL73       0.0252
     35  CG1       32.4060   33.0850    0.5210 C.3    73  VAL73       0.0019
     36  CG2       31.8190   30.7610   -0.2690 C.3    73  VAL73       0.0019
     37  N         31.2670   35.9090    5.9010 N.3    89  LEU89      -0.1231
     38  CA        31.0730   35.1250    4.6760 C.3    89  LEU89       0.1693
     39  C         29.8220   34.2880    4.6730 C.2    89  LEU89       0.2593
     40  O         29.2910   33.9720    5.7330 O.2    89  LEU89      -0.2718
     41  CB        32.2850   34.2020    4.4200 C.3    89  LEU89       0.0284
     42  CG        33.6310   34.8700    4.2810 C.3    89  LEU89       0.0019
     43  CD1       34.7240   33.8590    4.4070 C.3    89  LEU89       0.0001
     44  CD2       33.7130   35.6580    2.9750 C.3    89  LEU89       0.0001
     45  N         29.3810   33.8850    3.4750 N.am   90  SER90      -0.1938
     46  CA        28.2250   33.0140    3.3040 C.3    90  SER90       0.2055
     47  C         28.6230   31.6240    3.7810 C.2    90  SER90       0.2643
     48  O         29.7190   31.1770    3.4850 O.2    90  SER90      -0.2714
     49  CB        27.7910   32.9900    1.8410 C.3    90  SER90       0.2130
     50  OG        28.8700   32.6180    1.0080 O.3    90  SER90      -0.2179
     51  N         27.7790   30.9790    4.5860 N.am   91  TYR91      -0.1959
     52  CA        28.0580   29.6520    5.1290 C.3    91  TYR91       0.1771
     53  C         27.4750   28.5170    4.2650 C.2    91  TYR91       0.2619
     54  O         26.2560   28.2910    4.2770 O.2    91  TYR91      -0.2715
     55  CB        27.5960   29.5660    6.5980 C.3    91  TYR91       0.0574
     56  CG        27.5220   28.1610    7.1620 C.ar   91  TYR91      -0.0198
     57  CD1       28.6050   27.2930    7.0690 C.ar   91  TYR91      -0.0009
     58  CD2       26.3780   27.7080    7.8070 C.ar   91  TYR91      -0.0009
     59  CE1       28.5310   25.9910    7.5510 C.ar   91  TYR91       0.0417
     60  CE2       26.3040   26.4180    8.3260 C.ar   91  TYR91       0.0417
     61  CZ        27.3850   25.5590    8.1970 C.ar   91  TYR91       0.1957
     62  OH        27.3430   24.2740    8.7060 O.3    91  TYR91      -0.2866
     63  N         28.3630   27.8020    3.5290 N.am   92  ALA92      -0.1963
     64  CA        28.0150   26.6330    2.7130 C.3    92  ALA92       0.1728
     65  C         27.7500   25.4710    3.6980 C.2    92  ALA92       0.2616
     66  O         28.6880   24.9660    4.3360 O.2    92  ALA92      -0.2715
     67  CB        29.1670   26.2810    1.7840 C.3    92  ALA92       0.0334
     68  N         26.4500   25.1020    3.8720 N.am   93  LYS93      -0.1963
     69  CA        26.0220   24.0700    4.8270 C.3    93  LYS93       0.1728
     70  C         26.6600   22.6810    4.6020 C.2    93  LYS93       0.2616
     71  O         27.0750   22.0470    5.5820 O.2    93  LYS93      -0.2715
     72  CB        24.4920   23.9670    4.8970 C.3    93  LYS93       0.0311
     73  CG        23.8880   24.8790    5.9690 C.3    93  LYS93       0.0038
     74  CD        22.5180   25.4700    5.5680 C.3    93  LYS93       0.0206
     75  CE        22.4480   26.9940    5.5960 C.3    93  LYS93       0.1093
     76  NZ        22.5520   27.6110    4.2390 N.3    93  LYS93      -0.1314
     77  N         26.8000   22.2490    3.3330 N.am   94  ASN94      -0.1958
     78  CA        27.3340   20.9330    2.9960 C.3    94  ASN94       0.1819
     79  C         28.8730   20.8380    2.8330 C.2    94  ASN94       0.2622
     80  O         29.3520   19.7800    2.4510 O.2    94  ASN94      -0.2715
     81  CB        26.6140   20.3730    1.7720 C.3    94  ASN94       0.1195
     82  CG        25.1530   20.1170    2.0620 C.2    94  ASN94       0.2630
     83  OD1       24.7880   19.5470    3.0930 O.2    94  ASN94      -0.2716
     84  ND2       24.2740   20.5520    1.1810 N.am   94  ASN94      -0.0877
     85  N         29.6320   21.8650    3.2090 N.am   95  GLY95      -0.1940
     86  CA        31.1020   21.8110    3.1810 C.3    95  GLY95       0.2014
     87  C         31.8100   21.5900    1.8570 C.2    95  GLY95       0.2638
     88  O         31.2780   21.9480    0.8170 O.2    95  GLY95      -0.2714
     89  N         33.0140   21.0270    1.8740 N.am   96  GLU96      -0.1977
     90  CA        33.8380   20.8020    0.6630 C.3    96  GLU96       0.1602
     91  C         33.3270   19.7150   -0.2970 C.2    96  GLU96       0.2287
     92  O         32.6600   18.7620    0.1220 O.2    96  GLU96      -0.2864
     93  CB        35.3080   20.4790    1.0350 C.3    96  GLU96       0.0415
     94  CG        36.0220   21.5680    1.8200 C.3    96  GLU96       0.1163
     95  CD        37.3520   21.2140    2.4600 C.2    96  GLU96       0.3649
     96  OE1       37.9110   20.1390    2.1420 O.co2  96  GLU96      -0.2457
     97  OE2       37.8490   22.0340    3.2670 O.co2  96  GLU96      -0.2457
     98  N         34.7730   16.1740    0.1550 N.3    99  LYS99      -0.1245
     99  CA        33.9870   15.3350    1.0480 C.3    99  LYS99       0.1561
    100  C         33.1050   14.4120    0.2040 C.2    99  LYS99       0.2260
    101  O         33.0950   13.2000    0.4430 O.2    99  LYS99      -0.2867
    102  CB        33.1220   16.1760    2.0130 C.3    99  LYS99       0.0271
    103  CG        32.0760   15.3630    2.8120 C.3    99  LYS99       0.0035
    104  CD        31.4100   16.1560    3.9430 C.3    99  LYS99       0.0206
    105  CE        30.1010   16.8290    3.5800 C.3    99  LYS99       0.1093
    106  NZ        28.9780   15.8620    3.4100 N.3    99  LYS99      -0.1314
    107  N         33.0760   24.6020   -2.5150 N.3   142  LEU142     -0.1245
    108  CA        32.1520   24.1790   -1.4550 C.3   142  LEU142      0.1561
    109  C         30.7810   23.9370   -1.9990 C.2   142  LEU142      0.2260
    110  O         30.4670   24.4050   -3.0880 O.2   142  LEU142     -0.2867
    111  CB        32.0640   25.1890   -0.2880 C.3   142  LEU142      0.0270
    112  CG        33.3610   25.7440    0.3240 C.3   142  LEU142      0.0019
    113  CD1       33.0540   26.9170    1.2000 C.3   142  LEU142      0.0001
    114  CD2       34.1460   24.6870    1.0990 C.3   142  LEU142      0.0001
    115  N         35.4960   29.4550   -2.9760 N.3   152  THR152     -0.1218
    116  CA        36.0520   30.2870   -1.9040 C.3   152  THR152      0.1862
    117  C         37.6150   30.4090   -2.0080 C.2   152  THR152      0.2287
    118  O         38.1820   30.0400   -3.0340 O.2   152  THR152     -0.2866
    119  CB        35.5100   29.7600   -0.5440 C.3   152  THR152      0.1770
    120  OG1       35.8840   30.6530    0.4950 O.3   152  THR152     -0.2211
    121  CG2       35.9820   28.3820   -0.2190 C.3   152  THR152      0.0375
@<TRIPOS>BOND
     1   110   109    2
     2   118   117    2
     3   115   116    1
     4    30    31    1
     5   107   108    1
     6    33    32    2
     7   117   116    1
     8   109   108    1
     9   116   119    1
    10    31    32    1
    11    31    34    1
    12   108   111    1
    13    34    36    1
    14    34    35    1
    15   119   121    1
    16   119   120    1
    17    91    92    2
    18    91    90    1
    19   111   112    1
    20    98    99    1
    21   100   101    2
    22   100    99    1
    23   112   114    1
    24   112   113    1
    25    90    93    1
    26    90    89    1
    27    88    87    2
    28    50    49    1
    29    93    94    1
    30    99   102    1
    31    84    82   am
    32    81    82    1
    33    81    78    1
    34    67    64    1
    35    94    95    1
    36    49    46    1
    37    87    89   am
    38    87    86    1
    39   102   103    1
    40    82    83    2
    41    96    95   ar
    42    80    79    2
    43    95    97   ar
    44    64    63    1
    45    64    65    1
    46   103   104    1
    47    79    78    1
    48    79    85   am
    49    44    42    1
    50    78    77    1
    51    86    85    1
    52    46    45    1
    53    46    47    1
    54    77    70   am
    55   106   105    1
    56    45    39   am
    57    48    47    2
    58    63    53   am
    59   105   104    1
    60    65    68   am
    61    65    66    2
    62    47    51   am
    63    68    69    1
    64    76    75    1
    65    53    54    2
    66    53    52    1
    67    42    43    1
    68    42    41    1
    69    41    38    1
    70    51    52    1
    71    70    69    1
    72    70    71    2
    73    39    38    1
    74    39    40    2
    75    38    37    1
    76    69    72    1
    77    72    73    1
    78    52    55    1
    79    74    75    1
    80    74    73    1
    81    55    56    1
    82    29    26    1
    83    57    56   ar
    84    57    59   ar
    85    56    58   ar
    86    28    27    2
    87    24    22    1
    88    59    61   ar
    89    58    60   ar
    90    25    26    1
    91    23    22    1
    92    26    27    1
    93    61    60   ar
    94    61    62    1
    95    22    19    1
    96    13    12    2
    97    16    15    1
    98    14    15    1
    99    14    11    1
   100    12    11    1
   101    17    15    1
   102    19    18    1
   103    19    20    1
   104    11    10    1
   105    20    21    2
   106     9     8    1
   107     8     7    1
   108     7     6    1
   109     4     3    2
   110     6     5    1
   111     3     2    1
   112     5     2    1
   113     2     1    1
