@<TRIPOS>MOLECULE
tmp/5hniA00.pdb
 161 155 0 0 0
SMALL
GASTEIGER

@<TRIPOS>ATOM
      1  N        -22.3180  -39.5610  -43.9140 N.3    14  VAL14      -0.1245
      2  CA       -20.9760  -39.7500  -43.3720 C.3    14  VAL14       0.1561
      3  C        -20.7490  -41.2030  -42.9720 C.2    14  VAL14       0.2260
      4  O        -21.6880  -41.9050  -42.5940 O.2    14  VAL14      -0.2867
      5  CB       -20.7470  -38.8560  -42.1310 C.3    14  VAL14       0.0252
      6  CG1      -19.3160  -38.9990  -41.6400 C.3    14  VAL14       0.0019
      7  CG2      -21.0530  -37.4100  -42.4690 C.3    14  VAL14       0.0019
      8  N        -17.7490  -44.2280  -41.1590 N.3    16  HIS16      -0.1241
      9  CA       -16.5480  -44.4650  -40.3660 C.3    16  HIS16       0.1621
     10  C        -15.3730  -44.7700  -41.2900 C.2    16  HIS16       0.2264
     11  O        -15.3580  -45.7960  -41.9680 O.2    16  HIS16      -0.2867
     12  CB       -16.7670  -45.6390  -39.4090 C.3    16  HIS16       0.0745
     13  CG       -17.7750  -45.3670  -38.3370 C.ar   16  HIS16       0.0817
     14  ND1      -17.4310  -45.2350  -37.0090 N.ar   16  HIS16      -0.2268
     15  CD2      -19.1170  -45.1980  -38.3960 C.ar   16  HIS16       0.1154
     16  CE1      -18.5180  -44.9940  -36.2960 C.ar   16  HIS16       0.1986
     17  NE2      -19.5540  -44.9670  -37.1150 N.ar   16  HIS16      -0.2212
     18  N        -13.6730  -39.6360  -39.7280 N.3    24  ALA24      -0.1245
     19  CA       -15.0370  -39.7400  -40.2340 C.3    24  ALA24       0.1562
     20  C        -15.0920  -39.1780  -41.6520 C.2    24  ALA24       0.2260
     21  O        -14.6200  -38.0680  -41.9090 O.2    24  ALA24      -0.2867
     22  CB       -15.9910  -38.9730  -39.3290 C.3    24  ALA24       0.0290
     23  N        -14.0460  -27.7660  -35.8210 N.3    47  LEU47      -0.1245
     24  CA       -13.7690  -29.0500  -36.4610 C.3    47  LEU47       0.1561
     25  C        -12.8590  -28.8210  -37.6610 C.2    47  LEU47       0.2260
     26  O        -13.1670  -28.0150  -38.5390 O.2    47  LEU47      -0.2867
     27  CB       -15.0730  -29.7200  -36.9190 C.3    47  LEU47       0.0270
     28  CG       -14.9690  -31.1440  -37.4880 C.3    47  LEU47       0.0019
     29  CD1      -14.4470  -32.0960  -36.4200 C.3    47  LEU47       0.0001
     30  CD2      -16.3390  -31.5960  -37.9760 C.3    47  LEU47       0.0001
     31  N        -12.8200  -35.9300  -42.0920 N.3    64  LEU64      -0.1231
     32  CA       -12.7790  -35.0960  -40.8960 C.3    64  LEU64       0.1678
     33  C        -12.2690  -35.9120  -39.7130 C.2    64  LEU64       0.2434
     34  O        -12.3840  -37.1360  -39.6980 O.2    64  LEU64      -0.2733
     35  CB       -14.1810  -34.5690  -40.5930 C.3    64  LEU64       0.0284
     36  CG       -14.8480  -33.7730  -41.7220 C.3    64  LEU64       0.0019
     37  CD1      -16.3560  -33.8610  -41.5920 C.3    64  LEU64       0.0001
     38  CD2      -14.3830  -32.3240  -41.6800 C.3    64  LEU64       0.0001
     39  N        -11.6950  -35.2430  -38.7020 N.am   65  PRO65      -0.2718
     40  CA       -11.2740  -35.9780  -37.5070 C.3    65  PRO65       0.1535
     41  C        -12.4870  -36.5750  -36.8000 C.2    65  PRO65       0.2599
     42  O        -13.5240  -35.9240  -36.6720 O.2    65  PRO65      -0.2715
     43  CB       -10.5640  -34.9190  -36.6600 C.3    65  PRO65       0.0310
     44  CG       -11.1260  -33.6220  -37.1260 C.3    65  PRO65       0.0237
     45  CD       -11.4580  -33.7940  -38.5790 C.3    65  PRO65       0.0939
     46  N        -12.3580  -37.8200  -36.3550 N.am   66  TYR66      -0.1960
     47  CA       -13.4520  -38.4930  -35.6710 C.3    66  TYR66       0.1771
     48  C        -13.5700  -37.9520  -34.2530 C.2    66  TYR66       0.2619
     49  O        -12.5660  -37.7070  -33.5850 O.2    66  TYR66      -0.2715
     50  CB       -13.2020  -40.0020  -35.6310 C.3    66  TYR66       0.0574
     51  CG       -14.3640  -40.8000  -35.0870 C.ar   66  TYR66      -0.0198
     52  CD1      -15.5150  -40.9880  -35.8400 C.ar   66  TYR66      -0.0009
     53  CD2      -14.3060  -41.3760  -33.8250 C.ar   66  TYR66      -0.0009
     54  CE1      -16.5730  -41.7280  -35.3540 C.ar   66  TYR66       0.0417
     55  CE2      -15.3610  -42.1180  -33.3300 C.ar   66  TYR66       0.0417
     56  CZ       -16.4910  -42.2920  -34.0990 C.ar   66  TYR66       0.1957
     57  OH       -17.5370  -43.0380  -33.6080 O.3    66  TYR66      -0.2866
     58  N        -14.8040  -37.7640  -33.7990 N.am   67  MET67      -0.1963
     59  CA       -15.0480  -37.1900  -32.4830 C.3    67  MET67       0.1736
     60  C        -15.5920  -38.2470  -31.5300 C.2    67  MET67       0.2616
     61  O        -16.7560  -38.6360  -31.6230 O.2    67  MET67      -0.2715
     62  CB       -16.0380  -36.0330  -32.6020 C.3    67  MET67       0.0427
     63  CG       -15.5430  -34.8920  -33.4720 C.3    67  MET67       0.0599
     64  SD       -14.3050  -33.9130  -32.6170 S.3    67  MET67      -0.1393
     65  CE       -12.7690  -34.6660  -33.1930 C.3    67  MET67       0.0692
     66  N        -14.7430  -38.6920  -30.6070 N.am   68  LYS68      -0.1963
     67  CA       -15.0420  -39.8430  -29.7540 C.3    68  LYS68       0.1728
     68  C        -16.4350  -39.7640  -29.1420 C.2    68  LYS68       0.2616
     69  O        -17.1490  -40.7670  -29.0680 O.2    68  LYS68      -0.2715
     70  CB       -14.0000  -39.9510  -28.6300 C.3    68  LYS68       0.0311
     71  CG       -14.2190  -41.1290  -27.6760 C.3    68  LYS68       0.0038
     72  CD       -13.2560  -41.0760  -26.4930 C.3    68  LYS68       0.0206
     73  CE       -13.4170  -42.2770  -25.5640 C.3    68  LYS68       0.1093
     74  NZ       -12.5230  -42.1920  -24.3620 N.3    68  LYS68      -0.1314
     75  N        -16.8330  -38.5720  -28.7060 N.am   69  HIS69      -0.1959
     76  CA       -18.0540  -38.4540  -27.9200 C.3    69  HIS69       0.1787
     77  C        -19.2660  -37.8990  -28.6700 C.2    69  HIS69       0.2621
     78  O        -20.3090  -37.6350  -28.0710 O.2    69  HIS69      -0.2715
     79  CB       -17.7700  -37.6360  -26.6560 C.3    69  HIS69       0.0785
     80  CG       -16.9560  -38.3800  -25.6420 C.ar   69  HIS69       0.0821
     81  ND1      -15.7080  -37.9630  -25.2300 N.ar   69  HIS69      -0.2267
     82  CD2      -17.1950  -39.5460  -24.9930 C.ar   69  HIS69       0.1154
     83  CE1      -15.2130  -38.8400  -24.3740 C.ar   69  HIS69       0.1986
     84  NE2      -16.0960  -39.8100  -24.2140 N.ar   69  HIS69      -0.2212
     85  N        -19.1290  -37.7460  -29.9830 N.am   70  GLY70      -0.1940
     86  CA       -20.2690  -37.3660  -30.7960 C.3    70  GLY70       0.2014
     87  C        -20.6740  -35.9190  -30.6090 C.2    70  GLY70       0.2638
     88  O        -19.8600  -35.0710  -30.2210 O.2    70  GLY70      -0.2714
     89  N        -21.9420  -35.6330  -30.8840 N.am   71  ASP71      -0.1971
     90  CA       -22.4370  -34.2630  -30.8260 C.3    71  ASP71       0.1709
     91  C        -22.7410  -33.8490  -29.3890 C.2    71  ASP71       0.2293
     92  O        -23.1060  -34.6760  -28.5490 O.2    71  ASP71      -0.2864
     93  CB       -23.6910  -34.1210  -31.6940 C.3    71  ASP71       0.1436
     94  CG       -24.8740  -34.8880  -31.1360 C.2    71  ASP71       0.3671
     95  OD1      -25.0130  -36.0860  -31.4440 O.co2  71  ASP71      -0.2456
     96  OD2      -25.6660  -34.2880  -30.3840 O.co2  71  ASP71      -0.2456
     97  N        -26.4510  -34.7550  -27.7550 N.3    74  ASN74      -0.1240
     98  CA       -26.6510  -36.1210  -27.2790 C.3    74  ASN74       0.1653
     99  C        -25.7700  -36.4000  -26.0660 C.2    74  ASN74       0.2266
    100  O        -26.1560  -37.1390  -25.1640 O.2    74  ASN74      -0.2867
    101  CB       -26.3740  -37.1380  -28.4010 C.3    74  ASN74       0.1155
    102  CG       -27.5120  -37.2130  -29.4100 C.2    74  ASN74       0.2627
    103  OD1      -27.2900  -37.2160  -30.6230 O.2    74  ASN74      -0.2716
    104  ND2      -28.7440  -37.2680  -28.9060 N.am   74  ASN74      -0.0877
    105  N        -26.4560  -29.5240  -31.3740 N.3   115  ARG115     -0.1231
    106  CA       -26.4160  -30.7060  -32.2390 C.3   115  ARG115      0.1694
    107  C        -25.3040  -30.6120  -33.2800 C.2   115  ARG115      0.2592
    108  O        -24.9160  -31.6200  -33.8810 O.2   115  ARG115     -0.2718
    109  CB       -27.7560  -30.8780  -32.9600 C.3   115  ARG115      0.0321
    110  CG       -28.1240  -29.7010  -33.8450 C.3   115  ARG115      0.0489
    111  CD       -29.5600  -29.7840  -34.3500 C.3   115  ARG115      0.2205
    112  NE       -30.1260  -28.4440  -34.4870 N.pl3 115  ARG115     -0.0865
    113  CZ       -29.9590  -27.6750  -35.5550 C.cat 115  ARG115      0.5346
    114  NH1      -29.2500  -28.1190  -36.5850 N.pl3 115  ARG115      0.1354
    115  NH2      -30.4760  -26.4520  -35.5840 N.pl3 115  ARG115      0.1354
    116  N        -24.8050  -29.3960  -33.4910 N.am  116  ASN116     -0.1974
    117  CA       -23.8030  -29.1300  -34.5180 C.3   116  ASN116      0.1688
    118  C        -22.4340  -28.8290  -33.9350 C.2   116  ASN116      0.2292
    119  O        -21.5460  -28.3390  -34.6370 O.2   116  ASN116     -0.2864
    120  CB       -24.2530  -27.9630  -35.4000 C.3   116  ASN116      0.1181
    121  CG       -25.3570  -28.3580  -36.3530 C.2   116  ASN116      0.2629
    122  OD1      -25.4190  -29.5040  -36.7960 O.2   116  ASN116     -0.2716
    123  ND2      -26.2390  -27.4180  -36.6700 N.am  116  ASN116     -0.0877
    124  N        -19.3350  -30.8600  -31.6700 N.3   118  MET118     -0.1245
    125  CA       -18.8460  -32.2090  -31.3960 C.3   118  MET118      0.1570
    126  C        -17.8760  -32.1720  -30.2180 C.2   118  MET118      0.2261
    127  O        -17.3430  -31.1180  -29.8860 O.2   118  MET118     -0.2867
    128  CB       -18.1300  -32.7590  -32.6310 C.3   118  MET118      0.0387
    129  CG       -18.8130  -32.4080  -33.9510 C.3   118  MET118      0.0595
    130  SD       -19.6430  -33.8030  -34.7320 S.3   118  MET118     -0.1393
    131  CE       -20.5090  -34.4490  -33.3830 C.3   118  MET118      0.0692
    132  N        -18.9890  -27.4250  -35.4440 N.3   128  ALA128     -0.1231
    133  CA       -19.0090  -28.1730  -36.6910 C.3   128  ALA128      0.1694
    134  C        -20.1490  -27.7360  -37.6000 C.2   128  ALA128      0.2592
    135  O        -20.7200  -26.6600  -37.4270 O.2   128  ALA128     -0.2718
    136  CB       -19.1170  -29.6660  -36.4000 C.3   128  ALA128      0.0304
    137  N        -20.4620  -28.5830  -38.5770 N.am  129  ASP129     -0.1974
    138  CA       -21.5450  -28.3290  -39.5190 C.3   129  ASP129      0.1709
    139  C        -21.3610  -27.0260  -40.2900 C.2   129  ASP129      0.2293
    140  O        -22.2560  -26.1810  -40.3240 O.2   129  ASP129     -0.2864
    141  CB       -22.8940  -28.3050  -38.7930 C.3   129  ASP129      0.1436
    142  CG       -24.0610  -28.1240  -39.7460 C.2   129  ASP129      0.3671
    143  OD1      -23.9200  -28.4870  -40.9340 O.co2 129  ASP129     -0.2456
    144  OD2      -25.1090  -27.6130  -39.3110 O.co2 129  ASP129     -0.2456
    145  N        -18.7300  -30.0190  -44.9070 N.3   133  ALA133     -0.1245
    146  CA       -19.4820  -30.9180  -44.0350 C.3   133  ALA133      0.1562
    147  C        -20.7350  -30.2490  -43.4820 C.2   133  ALA133      0.2260
    148  O        -21.1490  -30.5170  -42.3500 O.2   133  ALA133     -0.2867
    149  CB       -18.5930  -31.3900  -42.8930 C.3   133  ALA133      0.0290
    150  N        -28.6850  -33.2000  -41.0220 N.3   137  TYR137     -0.1241
    151  CA       -28.6370  -34.6310  -40.7430 C.3   137  TYR137      0.1605
    152  C        -29.8180  -35.0590  -39.8750 C.2   137  TYR137      0.2264
    153  O        -29.6550  -35.8230  -38.9220 O.2   137  TYR137     -0.2867
    154  CB       -27.3260  -34.9870  -40.0340 C.3   137  TYR137      0.0534
    155  CG       -26.0780  -34.5160  -40.7540 C.ar  137  TYR137     -0.0201
    156  CD1      -25.4890  -35.2880  -41.7490 C.ar  137  TYR137     -0.0009
    157  CD2      -25.4790  -33.3050  -40.4260 C.ar  137  TYR137     -0.0009
    158  CE1      -24.3360  -34.8680  -42.3940 C.ar  137  TYR137      0.0417
    159  CE2      -24.3280  -32.8760  -41.0650 C.ar  137  TYR137      0.0417
    160  CZ       -23.7610  -33.6620  -42.0470 C.ar  137  TYR137      0.1957
    161  OH       -22.6130  -33.2420  -42.6820 O.3   137  TYR137     -0.2866
@<TRIPOS>BOND
     1   145   146    1
     2   146   147    1
     3   146   149    1
     4     1     2    1
     5   147   148    2
     6     2     3    1
     7     2     5    1
     8     3     4    2
     9   161   160    1
    10     7     5    1
    11   158   160   ar
    12   158   156   ar
    13     5     6    1
    14    31    32    1
    15   160   159   ar
    16    11    10    2
    17    21    20    2
    18   156   155   ar
    19    36    38    1
    20    36    37    1
    21    36    35    1
    22    20    19    1
    23    10     9    1
    24     8     9    1
    25   159   157   ar
    26   150   151    1
    27   143   142   ar
    28    32    35    1
    29    32    33    1
    30   155   157   ar
    31   155   154    1
    32   151   154    1
    33   151   152    1
    34     9    12    1
    35   140   139    2
    36   139   138    1
    37    19    18    1
    38    19    22    1
    39   152   153    2
    40   142   144   ar
    41   142   141    1
    42    33    34    2
    43    33    39   am
    44   138   141    1
    45   138   137    1
    46    12    13    1
    47    39    45    1
    48    39    40    1
    49    45    44    1
    50   137   134   am
    51    26    25    2
    52    15    13   ar
    53    15    17   ar
    54    13    14   ar
    55    30    28    1
    56    25    24    1
    57   134   135    2
    58   134   133    1
    59    40    41    1
    60    40    43    1
    61    28    27    1
    62    28    29    1
    63    44    43    1
    64    17    16   ar
    65    14    16   ar
    66    27    24    1
    67    41    42    2
    68    41    46   am
    69   122   121    2
    70   133   136    1
    71   133   132    1
    72   123   121   am
    73   114   113    1
    74    24    23    1
    75    46    47    1
    76   121   120    1
    77    52    54   ar
    78    52    51   ar
    79    47    50    1
    80    47    48    1
    81    50    51    1
    82   115   113    1
    83   113   112    2
    84   120   117    1
    85    54    56   ar
    86    51    53   ar
    87   130   129    1
    88   130   131    1
    89   119   118    2
    90   117   118    1
    91   117   116    1
    92   112   111    1
    93   111   110    1
    94    48    58   am
    95    48    49    2
    96    56    57    1
    97    56    55   ar
    98   129   128    1
    99   108   107    2
   100   110   109    1
   101    53    55   ar
   102    58    59    1
   103   116   107   am
   104    63    64    1
   105    63    62    1
   106   107   106    1
   107    65    64    1
   108   109   106    1
   109   128   125    1
   110    62    59    1
   111    59    60    1
   112   106   105    1
   113    93    94    1
   114    93    90    1
   115   124   125    1
   116    61    60    2
   117    60    66   am
   118    95    94   ar
   119   125   126    1
   120    94    96   ar
   121    89    90    1
   122    89    87   am
   123    90    91    1
   124    86    87    1
   125    86    85    1
   126   103   102    2
   127    87    88    2
   128    66    67    1
   129   126   127    2
   130    85    77   am
   131    67    68    1
   132    67    70    1
   133   102   104   am
   134   102   101    1
   135    91    92    2
   136    68    69    2
   137    68    75   am
   138    75    76    1
   139    77    78    2
   140    77    76    1
   141    70    71    1
   142   101    98    1
   143    76    79    1
   144    97    98    1
   145    71    72    1
   146    98    99    1
   147    79    80    1
   148    72    73    1
   149    99   100    2
   150    80    81   ar
   151    80    82   ar
   152    73    74    1
   153    81    83   ar
   154    82    84   ar
   155    83    84   ar
