@<TRIPOS>MOLECULE
tmp/5hntA01.pdb
 195 195 0 0 0
SMALL
GASTEIGER

@<TRIPOS>ATOM
      1  N          7.6230   -2.0930    0.1290 N.3    19  TYR19      -0.1241
      2  CA         6.8150   -0.9550    0.5860 C.3    19  TYR19       0.1605
      3  C          7.7010    0.0440    1.2740 C.2    19  TYR19       0.2264
      4  O          8.4330   -0.3510    2.1820 O.2    19  TYR19      -0.2867
      5  CB         5.6570   -1.3180    1.5320 C.3    19  TYR19       0.0534
      6  CG         4.9170   -0.0370    1.9620 C.ar   19  TYR19      -0.0201
      7  CD1        4.0050    0.5920    1.0950 C.ar   19  TYR19      -0.0009
      8  CD2        5.2130    0.6190    3.1700 C.ar   19  TYR19      -0.0009
      9  CE1        3.3840    1.7890    1.4440 C.ar   19  TYR19       0.0417
     10  CE2        4.5910    1.8160    3.5200 C.ar   19  TYR19       0.0417
     11  CZ         3.6720    2.3950    2.6430 C.ar   19  TYR19       0.1957
     12  OH         3.0300    3.5600    2.9620 O.3    19  TYR19      -0.2866
     13  N         -1.4310   -1.5230   -3.5480 N.3    49  LEU49      -0.1231
     14  CA        -1.4180   -0.5390   -2.4670 C.3    49  LEU49       0.1693
     15  C         -0.1340    0.2830   -2.4310 C.2    49  LEU49       0.2592
     16  O         -0.1730    1.4540   -2.1450 O.2    49  LEU49      -0.2718
     17  CB        -1.7140   -1.2290   -1.1090 C.3    49  LEU49       0.0284
     18  CG        -1.7920   -0.2980    0.1210 C.3    49  LEU49       0.0019
     19  CD1       -3.0760    0.5680    0.1510 C.3    49  LEU49       0.0001
     20  CD2       -1.6570   -1.0730    1.4030 C.3    49  LEU49       0.0001
     21  N          0.9980   -0.3360   -2.7890 N.am   50  TYR50      -0.1976
     22  CA         2.2950    0.2510   -2.5860 C.3    50  TYR50       0.1639
     23  C          2.6160    1.3610   -3.5850 C.2    50  TYR50       0.2290
     24  O          3.5400    2.1380   -3.3590 O.2    50  TYR50      -0.2864
     25  CB         3.3990   -0.8180   -2.6210 C.3    50  TYR50       0.0560
     26  CG         3.2450   -1.9510   -1.6100 C.ar   50  TYR50      -0.0198
     27  CD1        2.3220   -1.8930   -0.5780 C.ar   50  TYR50      -0.0009
     28  CD2        4.0400   -3.0920   -1.7000 C.ar   50  TYR50      -0.0009
     29  CE1        2.1630   -2.9400    0.3290 C.ar   50  TYR50       0.0417
     30  CE2        3.8960   -4.1390   -0.7970 C.ar   50  TYR50       0.0417
     31  CZ         2.9320   -4.0710    0.2050 C.ar   50  TYR50       0.1957
     32  OH         2.7510   -5.0780    1.0990 O.3    50  TYR50      -0.2866
     33  N         -0.6500   -7.9790   -5.0520 N.3    79  LYS79      -0.1245
     34  CA        -1.7970   -8.1440   -4.1820 C.3    79  LYS79       0.1561
     35  C         -2.9850   -7.3380   -4.6930 C.2    79  LYS79       0.2260
     36  O         -2.8270   -6.2150   -5.2010 O.2    79  LYS79      -0.2867
     37  CB        -1.4760   -7.7980   -2.7220 C.3    79  LYS79       0.0271
     38  CG        -0.1480   -8.3860   -2.2410 C.3    79  LYS79       0.0035
     39  CD         0.0360   -8.1960   -0.7390 C.3    79  LYS79       0.0206
     40  CE         1.4500   -8.5180   -0.2710 C.3    79  LYS79       0.1093
     41  NZ         2.4260   -7.4190   -0.5140 N.3    79  LYS79      -0.1314
     42  N         -6.1090   -5.2390   -3.8950 N.3    81  TRP81      -0.1227
     43  CA        -6.4710   -4.3440   -2.8490 C.3    81  TRP81       0.1737
     44  C         -7.9580   -4.5340   -2.4630 C.2    81  TRP81       0.2596
     45  O         -8.7620   -5.1040   -3.2200 O.2    81  TRP81      -0.2718
     46  CB        -6.0700   -2.9070   -3.1870 C.3    81  TRP81       0.0564
     47  CG        -6.3580   -2.0200   -2.0540 C.ar   81  TRP81       0.0003
     48  CD1       -7.2130   -0.9280   -2.0580 C.ar   81  TRP81       0.0946
     49  CD2       -5.9530   -2.1990   -0.6810 C.ar   81  TRP81       0.0152
     50  NE1       -7.3140   -0.4110   -0.7890 N.ar   81  TRP81      -0.2442
     51  CE2       -6.5680   -1.1710    0.0740 C.ar   81  TRP81       0.0810
     52  CE3       -5.1520   -3.1450   -0.0160 C.ar   81  TRP81       0.0012
     53  CZ2       -6.3870   -1.0370    1.4530 C.ar   81  TRP81       0.0191
     54  CZ3       -4.9530   -3.0190    1.3470 C.ar   81  TRP81       0.0001
     55  CH2       -5.5740   -1.9530    2.0780 C.ar   81  TRP81       0.0015
     56  N         -8.2840   -4.1430   -1.2370 N.am   82  SER82      -0.1952
     57  CA        -9.5540   -4.4370   -0.6050 C.3    82  SER82       0.1924
     58  C        -10.7800   -3.7260   -1.2260 C.2    82  SER82       0.2314
     59  O        -11.9020   -4.1450   -1.0220 O.2    82  SER82      -0.2863
     60  CB        -9.4470   -4.0720    0.8720 C.3    82  SER82       0.2116
     61  OG        -8.3280   -4.6900    1.4720 O.3    82  SER82      -0.2180
     62  N         -5.1160   -9.1830   -0.3860 N.3   112  HIS112     -0.1226
     63  CA        -4.2770   -8.4150    0.5050 C.3   112  HIS112      0.1752
     64  C         -4.7650   -8.4540    1.9390 C.2   112  HIS112      0.2596
     65  O         -3.9920   -8.4930    2.8670 O.2   112  HIS112     -0.2718
     66  CB        -4.1980   -6.9290    0.0290 C.3   112  HIS112      0.0759
     67  CG        -2.9560   -6.2010    0.4700 C.ar  112  HIS112      0.0818
     68  ND1       -2.3700   -5.1950   -0.2730 N.ar  112  HIS112     -0.2268
     69  CD2       -2.1880   -6.3300    1.5780 C.ar  112  HIS112      0.1154
     70  CE1       -1.3080   -4.7300    0.3660 C.ar  112  HIS112      0.1986
     71  NE2       -1.1590   -5.4200    1.4810 N.ar  112  HIS112     -0.2212
     72  N         -6.0820   -8.4490    2.1120 N.am  113  SER113     -0.1952
     73  CA        -6.6980   -8.3820    3.4070 C.3   113  SER113      0.1924
     74  C         -8.1030   -8.9130    3.2600 C.2   113  SER113      0.2314
     75  O         -8.7250   -8.6820    2.2340 O.2   113  SER113     -0.2863
     76  CB        -6.7440   -6.9190    3.8830 C.3   113  SER113      0.2116
     77  OG        -7.5900   -6.7790    5.0000 O.3   113  SER113     -0.2180
     78  N        -10.4770   -7.6440    4.8220 N.3   115  MET115     -0.1245
     79  CA       -11.2690   -6.4930    5.1790 C.3   115  MET115      0.1570
     80  C        -11.7340   -5.6330    4.0050 C.2   115  MET115      0.2261
     81  O        -11.1410   -4.5930    3.6930 O.2   115  MET115     -0.2867
     82  CB       -10.5460   -5.6610    6.2450 C.3   115  MET115      0.0387
     83  CG       -10.4810   -6.3700    7.6070 C.3   115  MET115      0.0595
     84  SD        -9.5910   -5.4020    8.8830 S.3   115  MET115     -0.1393
     85  CE        -7.9360   -5.7540    8.3960 C.3   115  MET115      0.0692
     86  N         -3.2690  -11.7830    5.6750 N.3   162  ASN162     -0.1240
     87  CA        -4.0170  -11.2610    6.8420 C.3   162  ASN162      0.1653
     88  C         -5.2910  -12.0250    7.1780 C.2   162  ASN162      0.2266
     89  O         -6.1630  -11.5050    7.7730 O.2   162  ASN162     -0.2867
     90  CB        -4.3170   -9.7830    6.6880 C.3   162  ASN162      0.1155
     91  CG        -3.0750   -8.9540    6.6590 C.2   162  ASN162      0.2627
     92  OD1       -2.2780   -9.0080    7.6080 O.2   162  ASN162     -0.2716
     93  ND2       -2.8650   -8.2030    5.5790 N.am  162  ASN162     -0.0877
     94  N          0.0870  -14.6640    4.0540 N.3   185  GLN185     -0.1245
     95  CA         1.0790  -13.6610    4.4100 C.3   185  GLN185      0.1566
     96  C          0.5390  -12.8520    5.5640 C.2   185  GLN185      0.2260
     97  O         -0.4490  -12.1370    5.4160 O.2   185  GLN185     -0.2867
     98  CB         1.4120  -12.7420    3.2090 C.3   185  GLN185      0.0367
     99  CG         2.4470  -11.6720    3.5610 C.3   185  GLN185      0.0905
    100  CD         2.7980  -10.7070    2.4500 C.2   185  GLN185      0.2608
    101  OE1        2.7990   -9.4820    2.6530 O.2   185  GLN185     -0.2717
    102  NE2        3.1810  -11.2520    1.2920 N.am  185  GLN185     -0.0878
    103  N          5.4550  -11.0230    7.3780 N.3   211  TYR211     -0.1241
    104  CA         5.7700   -9.6230    7.2200 C.3   211  TYR211      0.1605
    105  C          5.9650   -8.9230    8.5770 C.2   211  TYR211      0.2264
    106  O          5.6200   -9.4540    9.6200 O.2   211  TYR211     -0.2867
    107  CB         4.7290   -8.9340    6.3590 C.3   211  TYR211      0.0534
    108  CG         3.4000   -8.5770    6.9830 C.ar  211  TYR211     -0.0201
    109  CD1        3.2920   -7.6160    7.9890 C.ar  211  TYR211     -0.0009
    110  CD2        2.2140   -9.1520    6.5210 C.ar  211  TYR211     -0.0009
    111  CE1        2.0580   -7.2690    8.5230 C.ar  211  TYR211      0.0417
    112  CE2        0.9810   -8.8310    7.0660 C.ar  211  TYR211      0.0417
    113  CZ         0.9050   -7.8930    8.0490 C.ar  211  TYR211      0.1957
    114  OH        -0.3050   -7.5140    8.5880 O.3   211  TYR211     -0.2866
    115  N         -0.1220    3.4300   11.9370 N.3   222  TRP222     -0.1241
    116  CA        -0.6240    2.1050   12.4180 C.3   222  TRP222      0.1605
    117  C          0.0370    1.5570   13.6780 C.2   222  TRP222      0.2264
    118  O         -0.4560    0.6420   14.3030 O.2   222  TRP222     -0.2867
    119  CB        -0.4330    1.0480   11.3250 C.3   222  TRP222      0.0550
    120  CG        -0.7230    1.5200    9.9630 C.ar  222  TRP222      0.0003
    121  CD1        0.1480    1.5920    8.9180 C.ar  222  TRP222      0.0946
    122  CD2       -1.9760    2.0070    9.4780 C.ar  222  TRP222      0.0152
    123  NE1       -0.4860    2.0870    7.7950 N.ar  222  TRP222     -0.2442
    124  CE2       -1.7890    2.3610    8.1150 C.ar  222  TRP222      0.0810
    125  CE3       -3.2420    2.1860   10.0610 C.ar  222  TRP222      0.0012
    126  CZ2       -2.8170    2.8690    7.3210 C.ar  222  TRP222      0.0191
    127  CZ3       -4.2820    2.7010    9.2590 C.ar  222  TRP222      0.0001
    128  CH2       -4.0530    3.0250    7.8960 C.ar  222  TRP222      0.0015
    129  N          0.6750   -3.5190   13.9340 N.3   301  PHE301     -0.1227
    130  CA        -0.3620   -2.8180   13.1840 C.3   301  PHE301      0.1736
    131  C         -1.6350   -2.7370   14.0310 C.2   301  PHE301      0.2595
    132  O         -2.1100   -3.7510   14.5470 O.2   301  PHE301     -0.2718
    133  CB        -0.6490   -3.4980   11.8490 C.3   301  PHE301      0.0547
    134  CG         0.3880   -3.2260   10.8200 C.ar  301  PHE301     -0.0202
    135  CD1        1.6190   -3.8960   10.8350 C.ar  301  PHE301     -0.0042
    136  CD2        0.1650   -2.2370    9.8430 C.ar  301  PHE301     -0.0042
    137  CE1        2.5790   -3.6180    9.8710 C.ar  301  PHE301     -0.0003
    138  CE2        1.1200   -1.9480    8.8930 C.ar  301  PHE301     -0.0003
    139  CZ         2.3200   -2.6370    8.8930 C.ar  301  PHE301     -0.0000
    140  N         -2.1260   -1.5170   14.2430 N.am  302  ASN302     -0.1960
    141  CA        -3.4340   -1.3160   14.8930 C.3   302  ASN302      0.1819
    142  C         -4.2580   -0.2570   14.2360 C.2   302  ASN302      0.2622
    143  O         -3.7030    0.7420   13.7310 O.2   302  ASN302     -0.2715
    144  CB        -3.2320   -0.8980   16.3350 C.3   302  ASN302      0.1195
    145  CG        -2.5660   -1.9850   17.1400 C.2   302  ASN302      0.2630
    146  OD1       -1.3870   -2.2120   16.9780 O.2   302  ASN302     -0.2716
    147  ND2       -3.3230   -2.7060   17.9340 N.am  302  ASN302     -0.0877
    148  N         -5.5810   -0.4730   14.2800 N.am  303  SER303     -0.1950
    149  CA        -6.5580    0.4690   13.7750 C.3   303  SER303      0.1924
    150  C         -7.8620    0.3570   14.5640 C.2   303  SER303      0.2314
    151  O         -8.5470   -0.6850   14.5380 O.2   303  SER303     -0.2863
    152  CB        -6.8120    0.2530   12.2810 C.3   303  SER303      0.2116
    153  OG        -7.9010    1.0910   11.8390 O.3   303  SER303     -0.2180
    154  N        -10.5220   -0.1420   11.8310 N.3   306  PHE306     -0.1241
    155  CA       -10.5680   -1.4830   11.2610 C.3   306  PHE306      0.1605
    156  C        -10.8030   -2.5740   12.3060 C.2   306  PHE306      0.2264
    157  O        -11.2210   -3.6760   11.9460 O.2   306  PHE306     -0.2867
    158  CB        -9.3390   -1.8250   10.4350 C.3   306  PHE306      0.0534
    159  CG        -9.2760   -1.0910    9.1340 C.ar  306  PHE306     -0.0203
    160  CD1       -9.7340   -1.6850    7.9670 C.ar  306  PHE306     -0.0042
    161  CD2       -8.7780    0.1940    9.0680 C.ar  306  PHE306     -0.0042
    162  CE1       -9.6830   -1.0290    6.7720 C.ar  306  PHE306     -0.0003
    163  CE2       -8.7180    0.8750    7.8670 C.ar  306  PHE306     -0.0003
    164  CZ        -9.1820    0.2620    6.7170 C.ar  306  PHE306     -0.0000
    165  N        -12.1400   -8.2610   10.5870 N.3   312  TYR312     -0.1228
    166  CA       -10.9080   -7.9700   11.2780 C.3   312  TYR312      0.1721
    167  C        -10.3410   -9.3300   11.7860 C.2   312  TYR312      0.2437
    168  O        -11.0060  -10.0780   12.4240 O.2   312  TYR312     -0.2733
    169  CB       -11.1830   -6.9860   12.3950 C.3   312  TYR312      0.0547
    170  CG       -10.0080   -6.5930   13.2400 C.ar  312  TYR312     -0.0200
    171  CD1       -8.9620   -5.8810   12.7050 C.ar  312  TYR312     -0.0009
    172  CD2       -9.9420   -6.9440   14.5840 C.ar  312  TYR312     -0.0009
    173  CE1       -7.8840   -5.4860   13.4850 C.ar  312  TYR312      0.0417
    174  CE2       -8.8670   -6.5830   15.3670 C.ar  312  TYR312      0.0417
    175  CZ        -7.8410   -5.8390   14.8340 C.ar  312  TYR312      0.1957
    176  OH        -6.7730   -5.4520   15.6310 O.3   312  TYR312     -0.2866
    177  N         -9.0990   -9.6480   11.4660 N.am  313  PRO313     -0.2718
    178  CA        -8.5970  -11.0110   11.7530 C.3   313  PRO313      0.1535
    179  C         -8.1500  -11.2690   13.1910 C.2   313  PRO313      0.2598
    180  O         -8.0420  -12.4110   13.5580 O.2   313  PRO313     -0.2715
    181  CB        -7.4000  -11.1590   10.8150 C.3   313  PRO313      0.0310
    182  CG        -7.0150   -9.7650   10.4410 C.3   313  PRO313      0.0237
    183  CD        -8.1730   -8.8430   10.6570 C.3   313  PRO313      0.0939
    184  N         -7.9840  -10.2180   13.9780 N.am  314  TYR314     -0.1974
    185  CA        -7.5150  -10.3280   15.3380 C.3   314  TYR314      0.1639
    186  C         -8.7150  -10.1910   16.3360 C.2   314  TYR314      0.2290
    187  O         -8.5180  -10.0110   17.5090 O.2   314  TYR314     -0.2864
    188  CB        -6.4260   -9.2560   15.6300 C.3   314  TYR314      0.0560
    189  CG        -5.2160   -9.2570   14.6780 C.ar  314  TYR314     -0.0198
    190  CD1       -4.5500  -10.4430   14.3300 C.ar  314  TYR314     -0.0009
    191  CD2       -4.7160   -8.0380   14.1530 C.ar  314  TYR314     -0.0009
    192  CE1       -3.4720  -10.4200   13.4720 C.ar  314  TYR314      0.0417
    193  CE2       -3.6590   -7.9880   13.2840 C.ar  314  TYR314      0.0417
    194  CZ        -3.0160   -9.1690   12.9580 C.ar  314  TYR314      0.1957
    195  OH        -1.9580   -9.1120   12.1260 O.3   314  TYR314     -0.2866
@<TRIPOS>BOND
     1    36    35    2
     2    33    34    1
     3    35    34    1
     4    34    37    1
     5    42    43    1
     6    23    24    2
     7    23    22    1
     8    13    14    1
     9    45    44    2
    10    46    43    1
    11    46    47    1
    12    43    44    1
    13    21    22    1
    14    21    15   am
    15    37    38    1
    16    25    22    1
    17    25    26    1
    18    14    15    1
    19    14    17    1
    20    44    56   am
    21    15    16    2
    22    38    39    1
    23    48    47   ar
    24    48    50   ar
    25    47    49   ar
    26    28    26   ar
    27    28    30   ar
    28    26    27   ar
    29    56    57    1
    30    58    59    2
    31    58    57    1
    32    17    18    1
    33    30    31   ar
    34    50    51   ar
    35    39    40    1
    36    49    52   ar
    37    49    51   ar
    38    57    60    1
    39    27    29   ar
    40    41    40    1
    41    62    63    1
    42    68    70   ar
    43    68    67   ar
    44    52    54   ar
    45    66    67    1
    46    66    63    1
    47    51    53   ar
    48    18    19    1
    49    18    20    1
    50     1     2    1
    51    31    29   ar
    52    31    32    1
    53    70    71   ar
    54    67    69   ar
    55    63    64    1
    56     2     3    1
    57     2     5    1
    58    60    61    1
    59     7     9   ar
    60     7     6   ar
    61     3     4    2
    62   102   100   am
    63    54    55   ar
    64     9    11   ar
    65    53    55   ar
    66    71    69   ar
    67     5     6    1
    68    64    72   am
    69    64    65    2
    70     6     8   ar
    71    72    73    1
    72    75    74    2
    73   100   101    2
    74   100    99    1
    75    11    12    1
    76    11    10   ar
    77     8    10   ar
    78    98    99    1
    79    98    95    1
    80    74    73    1
    81    73    76    1
    82    81    80    2
    83    76    77    1
    84    80    79    1
    85    94    95    1
    86    95    96    1
    87    78    79    1
    88    79    82    1
    89    97    96    2
    90    93    91   am
    91    86    87    1
    92    82    83    1
    93   107   108    1
    94   107   104    1
    95   110   108   ar
    96   110   112   ar
    97    91    90    1
    98    91    92    2
    99    90    87    1
   100   164   162   ar
   101   164   163   ar
   102   162   160   ar
   103    87    88    1
   104   108   109   ar
   105   112   113   ar
   106    88    89    2
   107   104   103    1
   108   104   105    1
   109   126   128   ar
   110   126   124   ar
   111    83    84    1
   112   123   124   ar
   113   123   121   ar
   114   163   161   ar
   115   128   127   ar
   116   160   159   ar
   117   109   111   ar
   118   113   111   ar
   119   113   114    1
   120   124   122   ar
   121    85    84    1
   122   105   106    2
   123   138   139   ar
   124   138   136   ar
   125   139   137   ar
   126   121   120   ar
   127   161   159   ar
   128   159   158    1
   129   127   125   ar
   130   122   120   ar
   131   122   125   ar
   132   136   134   ar
   133   137   135   ar
   134   120   119    1
   135   158   155    1
   136   182   183    1
   137   182   181    1
   138   165   166    1
   139   183   177    1
   140   181   178    1
   141   134   135   ar
   142   134   133    1
   143   155   154    1
   144   155   156    1
   145   166   167    1
   146   166   169    1
   147   119   116    1
   148   177   178    1
   149   177   167   am
   150   178   179    1
   151   167   168    2
   152   153   152    1
   153   133   130    1
   154   115   116    1
   155   157   156    2
   156   195   194    1
   157   152   149    1
   158   169   170    1
   159   116   117    1
   160   171   170   ar
   161   171   173   ar
   162   194   193   ar
   163   194   192   ar
   164   130   129    1
   165   130   131    1
   166   179   180    2
   167   179   184   am
   168   170   172   ar
   169   193   191   ar
   170   192   190   ar
   171   173   175   ar
   172   117   118    2
   173   143   142    2
   174   149   148    1
   175   149   150    1
   176   184   185    1
   177   131   140   am
   178   131   132    2
   179   191   189   ar
   180   142   148   am
   181   142   141    1
   182   140   141    1
   183   190   189   ar
   184   151   150    2
   185   172   174   ar
   186   189   188    1
   187   175   174   ar
   188   175   176    1
   189   141   144    1
   190   185   188    1
   191   185   186    1
   192   144   145    1
   193   186   187    2
   194   146   145    2
   195   145   147   am
