@<TRIPOS>MOLECULE
tmp/5hnuB00.pdb
 162 159 0 0 0
SMALL
GASTEIGER

@<TRIPOS>ATOM
      1  N          0.8460   19.7100   38.3460 N.3    19  TYR19      -0.1241
      2  CA         0.0550   20.6250   39.2030 C.3    19  TYR19       0.1605
      3  C          0.9270   21.3570   40.2400 C.2    19  TYR19       0.2264
      4  O          1.7230   20.7260   40.9060 O.2    19  TYR19      -0.2867
      5  CB        -1.0700   19.9180   39.9970 C.3    19  TYR19       0.0534
      6  CG        -1.8670   20.9400   40.8520 C.ar   19  TYR19      -0.0201
      7  CD1       -2.8300   21.7530   40.2570 C.ar   19  TYR19      -0.0009
      8  CD2       -1.5680   21.1400   42.2040 C.ar   19  TYR19      -0.0009
      9  CE1       -3.5450   22.6820   40.9940 C.ar   19  TYR19       0.0417
     10  CE2       -2.2740   22.0740   42.9460 C.ar   19  TYR19       0.0417
     11  CZ        -3.2440   22.8610   42.3280 C.ar   19  TYR19       0.1957
     12  OH        -3.9330   23.8110   43.0450 O.3    19  TYR19      -0.2866
     13  N         -8.3110   21.4610   35.0870 N.3    49  LEU49      -0.1231
     14  CA        -8.2470   21.9860   36.4270 C.3    49  LEU49       0.1693
     15  C         -6.9830   22.7490   36.7780 C.2    49  LEU49       0.2592
     16  O         -7.0390   23.6870   37.5430 O.2    49  LEU49      -0.2718
     17  CB        -8.4650   20.8820   37.4780 C.3    49  LEU49       0.0284
     18  CG        -8.4850   21.2770   38.9580 C.3    49  LEU49       0.0019
     19  CD1       -9.6630   22.1910   39.3190 C.3    49  LEU49       0.0001
     20  CD2       -8.5030   20.0270   39.7900 C.3    49  LEU49       0.0001
     21  N         -5.8530   22.3760   36.2030 N.am   50  TYR50      -0.1976
     22  CA        -4.5560   22.8630   36.7160 C.3    50  TYR50       0.1639
     23  C         -4.2040   24.2540   36.2690 C.2    50  TYR50       0.2290
     24  O         -3.1940   24.7830   36.7550 O.2    50  TYR50      -0.2864
     25  CB        -3.4260   21.8900   36.3300 C.3    50  TYR50       0.0560
     26  CG        -3.6350   20.4270   36.8090 C.ar   50  TYR50      -0.0198
     27  CD1       -4.6100   20.0940   37.7650 C.ar   50  TYR50      -0.0009
     28  CD2       -2.7940   19.4090   36.3740 C.ar   50  TYR50      -0.0009
     29  CE1       -4.7900   18.7700   38.1940 C.ar   50  TYR50       0.0417
     30  CE2       -2.9410   18.1010   36.8470 C.ar   50  TYR50       0.0417
     31  CZ        -3.9410   17.8000   37.7420 C.ar   50  TYR50       0.1957
     32  OH        -4.1150   16.5060   38.1860 O.3    50  TYR50      -0.2866
     33  N         -7.4000   16.0320   31.3390 N.3    79  LYS79      -0.1245
     34  CA        -8.5320   15.5260   32.0770 C.3    79  LYS79       0.1561
     35  C         -9.7350   16.4560   31.9270 C.2    79  LYS79       0.2260
     36  O         -9.5920   17.6850   31.9170 O.2    79  LYS79      -0.2867
     37  CB        -8.2140   15.2920   33.5790 C.3    79  LYS79       0.0271
     38  CG        -6.8530   14.6360   33.8610 C.3    79  LYS79       0.0035
     39  CD        -6.6920   14.2920   35.3440 C.3    79  LYS79       0.0206
     40  CE        -5.2930   13.8220   35.6600 C.3    79  LYS79       0.1093
     41  NZ        -4.2730   14.8750   35.8010 N.3    79  LYS79      -0.1314
     42  N        -12.8640   18.1100   33.2900 N.3    81  TRP81      -0.1241
     43  CA       -13.2370   18.5680   34.5740 C.3    81  TRP81       0.1605
     44  C        -14.7230   18.2830   34.7840 C.2    81  TRP81       0.2264
     45  O        -15.5090   18.1260   33.8520 O.2    81  TRP81      -0.2867
     46  CB       -12.8270   20.0560   34.7590 C.3    81  TRP81       0.0550
     47  CG       -13.1700   20.5790   36.1260 C.ar   81  TRP81       0.0003
     48  CD1      -14.0100   21.6510   36.4110 C.ar   81  TRP81       0.0946
     49  CD2      -12.7690   20.0510   37.3820 C.ar   81  TRP81       0.0152
     50  NE1      -14.1710   21.7720   37.7640 N.ar   81  TRP81      -0.2442
     51  CE2      -13.4440   20.7970   38.3880 C.ar   81  TRP81       0.0810
     52  CE3      -11.9830   18.9570   37.7730 C.ar   81  TRP81       0.0012
     53  CZ2      -13.2980   20.5360   39.7360 C.ar   81  TRP81       0.0191
     54  CZ3      -11.8500   18.6870   39.1650 C.ar   81  TRP81       0.0001
     55  CH2      -12.5060   19.4680   40.1060 C.ar   81  TRP81       0.0015
     56  N        -11.8740   13.2420   35.2260 N.3   112  HIS112     -0.1241
     57  CA       -11.0210   13.6460   36.3760 C.3   112  HIS112      0.1621
     58  C        -11.5460   13.0970   37.7280 C.2   112  HIS112      0.2264
     59  O        -10.7770   12.6950   38.5830 O.2   112  HIS112     -0.2867
     60  CB       -10.9160   15.1760   36.4310 C.3   112  HIS112      0.0745
     61  CG        -9.6810   15.6750   37.1120 C.ar  112  HIS112      0.0817
     62  ND1       -9.0930   16.8710   36.7780 N.ar  112  HIS112     -0.2268
     63  CD2       -8.9530   15.1700   38.1310 C.ar  112  HIS112      0.1154
     64  CE1       -8.0420   17.0650   37.5470 C.ar  112  HIS112      0.1986
     65  NE2       -7.9290   16.0400   38.3660 N.ar  112  HIS112     -0.2212
     66  N        -20.2350   25.8180   45.4920 N.3   132  VAL132     -0.1245
     67  CA       -20.0980   24.3800   45.0710 C.3   132  VAL132      0.1561
     68  C        -21.4340   23.7190   44.8610 C.2   132  VAL132      0.2260
     69  O        -22.1230   23.3680   45.8160 O.2   132  VAL132     -0.2867
     70  CB       -19.2520   23.4120   45.9340 C.3   132  VAL132      0.0252
     71  CG1      -18.8790   22.1650   45.1280 C.3   132  VAL132      0.0019
     72  CG2      -17.9970   24.1060   46.3610 C.3   132  VAL132      0.0019
     73  N         -9.9820    8.7370   40.1070 N.3   162  ASN162     -0.1240
     74  CA       -10.7060    8.8020   41.3880 C.3   162  ASN162      0.1653
     75  C        -11.9730    7.9710   41.4380 C.2   162  ASN162      0.2266
     76  O        -12.8710    8.2750   42.2270 O.2   162  ASN162     -0.2867
     77  CB       -11.0170   10.2580   41.8180 C.3   162  ASN162      0.1155
     78  CG        -9.7540   11.0540   42.0690 C.2   162  ASN162      0.2627
     79  OD1       -8.9390   10.6970   42.9460 O.2   162  ASN162     -0.2716
     80  ND2       -9.5230   12.0950   41.2330 N.am  162  ASN162     -0.0877
     81  N         -6.5920    6.5820   37.5050 N.3   185  GLN185     -0.1245
     82  CA        -5.5820    7.3880   38.2110 C.3   185  GLN185      0.1566
     83  C         -6.1480    7.7450   39.5730 C.2   185  GLN185      0.2260
     84  O         -7.1280    8.4760   39.6510 O.2   185  GLN185     -0.2867
     85  CB        -5.2300    8.6690   37.4220 C.3   185  GLN185      0.0367
     86  CG        -4.1850    9.5270   38.1280 C.3   185  GLN185      0.0905
     87  CD        -3.7940   10.8000   37.4040 C.2   185  GLN185      0.2608
     88  OE1       -3.8250   11.8870   38.0000 O.2   185  GLN185     -0.2717
     89  NE2       -3.4120   10.6900   36.1430 N.am  185  GLN185     -0.0878
     90  N         -1.1820    8.8180   41.8970 N.3   211  TYR211     -0.1241
     91  CA        -0.8310   10.1820   42.2710 C.3   211  TYR211      0.1605
     92  C         -0.5580   10.3140   43.7640 C.2   211  TYR211      0.2264
     93  O         -0.9740    9.4580   44.5510 O.2   211  TYR211     -0.2867
     94  CB        -1.8640   11.1910   41.7420 C.3   211  TYR211      0.0534
     95  CG        -3.2020   11.2490   42.4540 C.ar  211  TYR211     -0.0201
     96  CD1       -3.3050   11.8150   43.7510 C.ar  211  TYR211     -0.0009
     97  CD2       -4.3880   10.8240   41.8160 C.ar  211  TYR211     -0.0009
     98  CE1       -4.5290   11.9470   44.3850 C.ar  211  TYR211      0.0417
     99  CE2       -5.6050   10.9520   42.4300 C.ar  211  TYR211      0.0417
    100  CZ        -5.6590   11.5150   43.7020 C.ar  211  TYR211      0.1957
    101  OH        -6.8530   11.6340   44.2790 O.3   211  TYR211     -0.2866
    102  N         -0.6070   20.5290   50.7590 N.3   219  ASP219     -0.1239
    103  CA        -1.1680   21.8460   50.5710 C.3   219  ASP219      0.1674
    104  C         -2.0180   22.2030   51.8210 C.2   219  ASP219      0.2266
    105  O         -2.9740   21.5070   52.1890 O.2   219  ASP219     -0.2867
    106  CB        -2.0450   21.8460   49.3100 C.3   219  ASP219      0.1410
    107  CG        -2.4360   23.2520   48.8580 C.2   219  ASP219      0.3668
    108  OD1       -2.9680   24.0240   49.6960 O.co2 219  ASP219     -0.2456
    109  OD2       -2.2470   23.5780   47.6490 O.co2 219  ASP219     -0.2456
    110  N         -4.2580   24.3200   52.3350 N.3   221  ARG221     -0.1231
    111  CA        -5.6720   24.4400   52.0780 C.3   221  ARG221      0.1694
    112  C         -6.4570   23.1640   52.4420 C.2   221  ARG221      0.2592
    113  O         -7.6510   23.2710   52.7610 O.2   221  ARG221     -0.2718
    114  CB        -5.9310   24.8430   50.6030 C.3   221  ARG221      0.0321
    115  CG        -5.4270   26.2430   50.1610 C.3   221  ARG221      0.0489
    116  CD        -5.6110   26.4690   48.6430 C.3   221  ARG221      0.2205
    117  NE        -4.8120   25.5230   47.8280 N.pl3 221  ARG221     -0.0865
    118  CZ        -5.0480   25.1460   46.5480 C.cat 221  ARG221      0.5346
    119  NH1       -4.2460   24.2520   45.9400 N.pl3 221  ARG221      0.1354
    120  NH2       -6.0810   25.6410   45.8610 N.pl3 221  ARG221      0.1354
    121  N         -5.8470   21.9730   52.3260 N.am  222  TRP222     -0.1976
    122  CA        -6.5680   20.6910   52.6440 C.3   222  TRP222      0.1640
    123  C         -5.8740   19.8920   53.6920 C.2   222  TRP222      0.2290
    124  O         -6.4830   19.4870   54.6740 O.2   222  TRP222     -0.2864
    125  CB        -6.7070   19.7090   51.4450 C.3   222  TRP222      0.0576
    126  CG        -6.6910   20.4300   50.2170 C.ar  222  TRP222      0.0006
    127  CD1       -5.7110   20.4170   49.2850 C.ar  222  TRP222      0.0946
    128  CD2       -7.6480   21.4190   49.8050 C.ar  222  TRP222      0.0152
    129  NE1       -5.9990   21.3190   48.2950 N.ar  222  TRP222     -0.2442
    130  CE2       -7.1890   21.9450   48.5800 C.ar  222  TRP222      0.0810
    131  CE3       -8.8680   21.9030   50.3510 C.ar  222  TRP222      0.0012
    132  CZ2       -7.8990   22.9430   47.8720 C.ar  222  TRP222      0.0191
    133  CZ3       -9.5850   22.9000   49.6400 C.ar  222  TRP222      0.0001
    134  CH2       -9.0880   23.4040   48.4160 C.ar  222  TRP222      0.0015
    135  N         -5.6950   13.4630   50.1890 N.3   301  PHE301     -0.1241
    136  CA        -6.8300   14.1960   49.6460 C.3   301  PHE301      0.1605
    137  C         -8.0110   13.9980   50.6410 C.2   301  PHE301      0.2264
    138  O         -8.7720   13.0170   50.5520 O.2   301  PHE301     -0.2867
    139  CB        -7.0240   13.8750   48.1500 C.3   301  PHE301      0.0534
    140  CG        -5.9790   14.6160   47.3050 C.ar  301  PHE301     -0.0203
    141  CD1       -4.6190   14.3320   47.4800 C.ar  301  PHE301     -0.0042
    142  CD2       -6.3230   15.6860   46.4690 C.ar  301  PHE301     -0.0042
    143  CE1       -3.6430   15.0370   46.8270 C.ar  301  PHE301     -0.0003
    144  CE2       -5.3200   16.3990   45.7840 C.ar  301  PHE301     -0.0003
    145  CZ        -3.9890   16.0870   45.9840 C.ar  301  PHE301     -0.0000
    146  N        -15.0340   17.7850   52.5820 N.3   305  SER305     -0.1202
    147  CA       -15.9190   18.7890   51.9600 C.3   305  SER305      0.2020
    148  C        -17.0400   18.1800   51.0710 C.2   305  SER305      0.2618
    149  O        -18.2320   18.5180   51.1870 O.2   305  SER305     -0.2717
    150  CB       -14.9690   19.6630   51.0970 C.3   305  SER305      0.2103
    151  OG       -15.6220   20.6530   50.3190 O.3   305  SER305     -0.2182
    152  N        -16.6230   17.2300   50.2390 N.am  306  PHE306     -0.1975
    153  CA       -17.4450   16.6030   49.1840 C.3   306  PHE306      0.1639
    154  C        -18.1040   15.3070   49.6050 C.2   306  PHE306      0.2290
    155  O        -18.7600   14.6300   48.7790 O.2   306  PHE306     -0.2864
    156  CB       -16.5800   16.3590   47.9340 C.3   306  PHE306      0.0560
    157  CG       -16.2720   17.6220   47.1830 C.ar  306  PHE306     -0.0200
    158  CD1      -15.5110   18.6040   47.7910 C.ar  306  PHE306     -0.0042
    159  CD2      -16.7880   17.8700   45.9000 C.ar  306  PHE306     -0.0042
    160  CE1      -15.2460   19.8030   47.1620 C.ar  306  PHE306     -0.0003
    161  CE2      -16.5100   19.0770   45.2500 C.ar  306  PHE306     -0.0003
    162  CZ       -15.7360   20.0460   45.8870 C.ar  306  PHE306     -0.0000
@<TRIPOS>BOND
     1    33    34    1
     2    36    35    2
     3    35    34    1
     4    34    37    1
     5    42    43    1
     6    37    38    1
     7    45    44    2
     8    38    39    1
     9    43    46    1
    10    43    44    1
    11    46    47    1
    12    13    14    1
    13    56    57    1
    14    39    40    1
    15    40    41    1
    16    47    48   ar
    17    47    49   ar
    18    89    87   am
    19    21    22    1
    20    21    15   am
    21    23    22    1
    22    23    24    2
    23    25    22    1
    24    25    26    1
    25    28    26   ar
    26    28    30   ar
    27    57    60    1
    28    57    58    1
    29    48    50   ar
    30    14    15    1
    31    14    17    1
    32    60    61    1
    33    15    16    2
    34    62    61   ar
    35    62    64   ar
    36    26    27   ar
    37    30    31   ar
    38    61    63   ar
    39    49    52   ar
    40    49    51   ar
    41    87    88    2
    42    87    86    1
    43    85    86    1
    44    85    82    1
    45    17    18    1
    46    81    82    1
    47    64    65   ar
    48    58    59    2
    49    31    32    1
    50    31    29   ar
    51    50    51   ar
    52    27    29   ar
    53    52    54   ar
    54    63    65   ar
    55    82    83    1
    56     1     2    1
    57    51    53   ar
    58    18    19    1
    59    18    20    1
    60    54    55   ar
    61     2     5    1
    62     2     3    1
    63    83    84    2
    64    53    55   ar
    65     5     6    1
    66    73    74    1
    67     3     4    2
    68     7     6   ar
    69     7     9   ar
    70     6     8   ar
    71     9    11   ar
    72    80    78   am
    73    74    75    1
    74    74    77    1
    75    75    76    2
    76    94    91    1
    77    94    95    1
    78    97    99   ar
    79    97    95   ar
    80    77    78    1
    81    90    91    1
    82    78    79    2
    83     8    10   ar
    84    91    92    1
    85    11    10   ar
    86    11    12    1
    87    99   100   ar
    88    95    96   ar
    89   100   101    1
    90   100    98   ar
    91    96    98   ar
    92    92    93    2
    93    68    67    1
    94    68    69    2
    95    67    66    1
    96    67    70    1
    97    71    70    1
    98   161   162   ar
    99   161   159   ar
   100   144   145   ar
   101   144   142   ar
   102   120   118    1
   103   162   160   ar
   104   159   157   ar
   105    70    72    1
   106   119   118    1
   107   145   143   ar
   108   142   140   ar
   109   118   117    2
   110   143   141   ar
   111   160   158   ar
   112   157   158   ar
   113   157   156    1
   114   140   141   ar
   115   140   139    1
   116   109   107   ar
   117   117   116    1
   118   132   134   ar
   119   132   130   ar
   120   156   153    1
   121   139   136    1
   122   129   130   ar
   123   129   127   ar
   124   134   133   ar
   125   130   128   ar
   126   116   115    1
   127   155   154    2
   128   107   106    1
   129   107   108   ar
   130   153   154    1
   131   153   152    1
   132   127   126   ar
   133   106   103    1
   134   133   131   ar
   135   136   135    1
   136   136   137    1
   137   128   126   ar
   138   128   131   ar
   139   115   114    1
   140   126   125    1
   141   152   148   am
   142   151   150    1
   143   138   137    2
   144   103   102    1
   145   103   104    1
   146   114   111    1
   147   148   149    2
   148   148   147    1
   149   150   147    1
   150   125   122    1
   151   104   105    2
   152   147   146    1
   153   111   110    1
   154   111   112    1
   155   121   112   am
   156   121   122    1
   157   112   113    2
   158   122   123    1
   159   123   124    2
