@<TRIPOS>MOLECULE
tmp/5hnyC00.pdb
 155 149 0 0 0
SMALL
GASTEIGER

@<TRIPOS>ATOM
      1  N        383.1190  378.1860  624.0570 N.3     7  ARG7       -0.1245
      2  CA       383.2880  376.8000  624.3810 C.3     7  ARG7        0.1563
      3  C        384.3300  376.6480  625.4660 C.2     7  ARG7        0.2260
      4  O        385.5170  376.8780  625.2580 O.2     7  ARG7       -0.2867
      5  CB       383.7070  376.0130  623.1130 C.3     7  ARG7        0.0307
      6  CG       383.6850  374.4900  623.3320 C.3     7  ARG7        0.0489
      7  CD       385.0660  373.8870  623.5950 C.3     7  ARG7        0.2205
      8  NE       384.8310  372.4770  624.0580 N.pl3   7  ARG7       -0.0865
      9  CZ       385.8070  371.5940  624.2690 C.cat   7  ARG7        0.5346
     10  NH1      387.0660  371.8850  623.9690 N.pl3   7  ARG7        0.1354
     11  NH2      385.5200  370.4070  624.7930 N.pl3   7  ARG7        0.1354
     12  N        386.6880  374.1340  627.4930 N.3     9  ARG9       -0.1231
     13  CA       387.2190  372.7900  627.5690 C.3     9  ARG9        0.1679
     14  C        387.2720  372.3090  629.0140 C.2     9  ARG9        0.2434
     15  O        387.4910  373.1330  629.9070 O.2     9  ARG9       -0.2733
     16  CB       388.6280  372.7240  626.9250 C.3     9  ARG9        0.0321
     17  CG       389.7820  373.3760  627.7240 C.3     9  ARG9        0.0489
     18  CD       390.5910  372.4520  628.6460 C.3     9  ARG9        0.2205
     19  NE       391.9210  373.1070  628.8470 N.pl3   9  ARG9       -0.0865
     20  CZ       392.8810  372.7080  629.6820 C.cat   9  ARG9        0.5346
     21  NH1      392.9060  371.5030  630.2000 N.pl3   9  ARG9        0.1354
     22  NH2      393.8350  373.5640  630.0330 N.pl3   9  ARG9        0.1354
     23  N        387.1150  371.0310  629.3400 N.am   10  PRO10      -0.2729
     24  CA       387.2540  370.5910  630.7190 C.3    10  PRO10       0.1401
     25  C        388.7030  370.3340  631.0950 C.2    10  PRO10       0.2269
     26  O        389.5640  370.1130  630.2430 O.2    10  PRO10      -0.2865
     27  CB       386.4440  369.2870  630.7580 C.3    10  PRO10       0.0296
     28  CG       386.6200  368.7270  629.3450 C.3    10  PRO10       0.0237
     29  CD       386.5250  369.9920  628.4920 C.3    10  PRO10       0.0939
     30  N        391.5530  367.9560  633.0520 N.3    12  ASN12      -0.1240
     31  CA       391.7780  366.5400  633.2850 C.3    12  ASN12       0.1653
     32  C        392.2650  366.3340  634.7100 C.2    12  ASN12       0.2266
     33  O        392.8540  367.2370  635.2930 O.2    12  ASN12      -0.2867
     34  CB       392.7630  365.9100  632.2580 C.3    12  ASN12       0.1155
     35  CG       393.9600  366.7980  631.9380 C.2    12  ASN12       0.2627
     36  OD1      393.8770  367.6700  631.0810 O.2    12  ASN12      -0.2716
     37  ND2      395.1110  366.5810  632.6050 N.am   12  ASN12      -0.0877
     38  N        381.5890  367.4040  621.6040 N.3    51  GLN51      -0.1245
     39  CA       382.0650  367.8410  620.2960 C.3    51  GLN51       0.1566
     40  C        380.9380  367.8860  619.2710 C.2    51  GLN51       0.2260
     41  O        380.7970  368.8240  618.4890 O.2    51  GLN51      -0.2867
     42  CB       383.1060  366.8340  619.7660 C.3    51  GLN51       0.0367
     43  CG       384.3950  366.7460  620.6080 C.3    51  GLN51       0.0905
     44  CD       385.3580  367.7880  620.0630 C.2    51  GLN51       0.2608
     45  OE1      385.7560  367.7130  618.9060 O.2    51  GLN51      -0.2717
     46  NE2      385.6590  368.8480  620.8390 N.am   51  GLN51      -0.0878
     47  N        391.4720  380.7070  620.4610 N.3    78  GLY78      -0.1210
     48  CA       391.7250  380.2380  621.7920 C.3    78  GLY78       0.1956
     49  C        393.1770  379.9900  621.8450 C.2    78  GLY78       0.2612
     50  O        393.7820  379.4900  620.9110 O.2    78  GLY78      -0.2717
     51  N        393.7910  380.2720  622.9530 N.am   79  GLN79      -0.1965
     52  CA       395.2110  380.2070  623.0910 C.3    79  GLN79       0.1733
     53  C        395.7330  378.8030  623.3120 C.2    79  GLN79       0.2617
     54  O        395.0680  377.7880  623.1140 O.2    79  GLN79      -0.2715
     55  CB       395.3720  380.7740  624.4550 C.3    79  GLN79       0.0408
     56  CG       394.8940  382.2000  624.6690 C.3    79  GLN79       0.0908
     57  CD       396.0300  383.1780  624.6370 C.2    79  GLN79       0.2608
     58  OE1      397.1810  382.8300  624.5140 O.2    79  GLN79      -0.2717
     59  NE2      395.7400  384.3980  625.0480 N.am   79  GLN79      -0.0878
     60  N        396.9530  378.7180  623.8510 N.am   80  THR80      -0.1937
     61  CA       397.5540  377.4540  624.1910 C.3    80  THR80       0.2028
     62  C        396.8770  376.6960  625.3150 C.2    80  THR80       0.2643
     63  O        396.5690  377.2130  626.3840 O.2    80  THR80      -0.2714
     64  CB       399.0400  377.5310  624.3890 C.3    80  THR80       0.1808
     65  OG1      399.5850  378.5910  623.6240 O.3    80  THR80      -0.2208
     66  CG2      399.6200  376.2940  623.7300 C.3    80  THR80       0.0379
     67  N        396.5250  375.4260  625.0310 N.am   81  SER81      -0.1935
     68  CA       395.8460  374.5210  625.9550 C.3    81  SER81       0.2055
     69  C        394.3840  374.8930  626.1960 C.2    81  SER81       0.2644
     70  O        393.7390  374.4600  627.1480 O.2    81  SER81      -0.2714
     71  CB       396.6040  374.2600  627.2880 C.3    81  SER81       0.2130
     72  OG       397.9090  373.7520  627.0080 O.3    81  SER81      -0.2179
     73  N        393.7590  375.6740  625.2900 N.am   82  SER82      -0.1935
     74  CA       392.3490  376.0450  625.4020 C.3    82  SER82       0.2055
     75  C        391.3690  375.0480  624.8280 C.2    82  SER82       0.2644
     76  O        390.1840  375.0460  625.1440 O.2    82  SER82      -0.2714
     77  CB       392.0670  377.3470  624.6230 C.3    82  SER82       0.2130
     78  OG       392.2200  377.1750  623.2050 O.3    82  SER82      -0.2179
     79  N        391.8420  374.1680  623.9350 N.am   83  GLY83      -0.1939
     80  CA       391.0070  373.1430  623.3270 C.3    83  GLY83       0.2014
     81  C        390.7390  373.3100  621.8600 C.2    83  GLY83       0.2639
     82  O        389.8710  372.6200  621.3390 O.2    83  GLY83      -0.2714
     83  N        391.4640  374.1890  621.1330 N.am   84  LYS84      -0.1963
     84  CA       391.2860  374.3730  619.6880 C.3    84  LYS84       0.1728
     85  C        391.4690  373.1080  618.8480 C.2    84  LYS84       0.2617
     86  O        390.5940  372.7430  618.0630 O.2    84  LYS84      -0.2715
     87  CB       392.2820  375.4380  619.1460 C.3    84  LYS84       0.0311
     88  CG       391.7310  376.8750  619.1110 C.3    84  LYS84       0.0038
     89  CD       392.2660  377.6740  617.8970 C.3    84  LYS84       0.0206
     90  CE       393.7910  377.8520  617.7440 C.3    84  LYS84       0.1093
     91  NZ       394.2870  379.0290  618.4680 N.3    84  LYS84      -0.1314
     92  N        392.5850  372.3800  619.0560 N.am   85  THR85      -0.1937
     93  CA       392.9370  371.1460  618.3440 C.3    85  THR85       0.2028
     94  C        391.8960  370.0770  618.5480 C.2    85  THR85       0.2642
     95  O        391.4420  369.4110  617.6260 O.2    85  THR85      -0.2714
     96  CB       394.2860  370.6080  618.8200 C.3    85  THR85       0.1808
     97  OG1      395.2900  371.5880  618.6110 O.3    85  THR85      -0.2208
     98  CG2      394.7290  369.3350  618.0830 C.3    85  THR85       0.0379
     99  N        391.4280  369.9360  619.7980 N.am   86  HIS86      -0.1973
    100  CA       390.3180  369.0620  620.1090 C.3    86  HIS86       0.1656
    101  C        388.9980  369.4250  619.4160 C.2    86  HIS86       0.2291
    102  O        388.3350  368.5290  618.9360 O.2    86  HIS86      -0.2864
    103  CB       390.2000  368.8450  621.6380 C.3    86  HIS86       0.0771
    104  CG       389.2480  367.7610  622.0820 C.ar   86  HIS86       0.0820
    105  ND1      389.3820  366.4080  621.8240 N.ar   86  HIS86      -0.2267
    106  CD2      388.1060  367.8800  622.8080 C.ar   86  HIS86       0.1154
    107  CE1      388.3170  365.7900  622.4010 C.ar   86  HIS86       0.1986
    108  NE2      387.5320  366.6500  623.0260 N.ar   86  HIS86      -0.2212
    109  N        390.6000  363.8820  617.2290 N.3    91  LYS91      -0.1245
    110  CA       391.3440  362.8060  616.6040 C.3    91  LYS91       0.1561
    111  C        390.7130  362.5220  615.2400 C.2    91  LYS91       0.2260
    112  O        389.4980  362.5560  615.0850 O.2    91  LYS91      -0.2867
    113  CB       391.3520  361.5350  617.4950 C.3    91  LYS91       0.0271
    114  CG       392.3840  361.5250  618.6460 C.3    91  LYS91       0.0035
    115  CD       392.0490  362.4680  619.8180 C.3    91  LYS91       0.0206
    116  CE       393.0570  362.4430  620.9680 C.3    91  LYS91       0.1093
    117  NZ       394.3650  362.9430  620.4820 N.3    91  LYS91      -0.1314
    118  N        384.7370  361.6630  619.2000 N.3    97  LEU97      -0.1245
    119  CA       385.7790  362.5870  619.6460 C.3    97  LEU97       0.1561
    120  C        386.3410  363.4150  618.5310 C.2    97  LEU97       0.2260
    121  O        387.1330  364.3320  618.7430 O.2    97  LEU97      -0.2867
    122  CB       386.9330  361.8130  620.2940 C.3    97  LEU97       0.0270
    123  CG       387.9300  362.8000  620.8930 C.3    97  LEU97       0.0019
    124  CD1      387.2340  363.6410  621.9580 C.3    97  LEU97       0.0001
    125  CD2      389.0870  362.0340  621.5250 C.3    97  LEU97       0.0001
    126  N        403.3640  368.5810  625.1120 N.3   191  ASN191     -0.1240
    127  CA       401.9560  368.8210  625.3080 C.3   191  ASN191      0.1653
    128  C        401.4980  370.0950  624.6410 C.2   191  ASN191      0.2266
    129  O        400.4920  370.0760  623.9350 O.2   191  ASN191     -0.2867
    130  CB       401.5980  368.8640  626.8070 C.3   191  ASN191      0.1155
    131  CG       400.1970  369.4100  627.0020 C.2   191  ASN191      0.2627
    132  OD1      400.0340  370.4400  627.6560 O.2   191  ASN191     -0.2716
    133  ND2      399.1700  368.7330  626.4160 N.am  191  ASN191     -0.0877
    134  N        401.1250  373.1780  622.0390 N.3   193  HIS193     -0.1226
    135  CA       401.0130  373.4450  620.6250 C.3   193  HIS193      0.1752
    136  C        400.8000  374.9220  620.3750 C.2   193  HIS193      0.2597
    137  O        399.6680  375.3880  620.2320 O.2   193  HIS193     -0.2718
    138  CB       399.8090  372.6460  620.0820 C.3   193  HIS193      0.0759
    139  CG       399.4260  372.9070  618.6450 C.ar  193  HIS193      0.0818
    140  ND1      400.2640  372.6380  617.5890 N.ar  193  HIS193     -0.2268
    141  CD2      398.2740  373.3860  618.0970 C.ar  193  HIS193      0.1154
    142  CE1      399.5860  372.9430  616.4580 C.ar  193  HIS193      0.1986
    143  NE2      398.3630  373.3750  616.7040 N.ar  193  HIS193     -0.2212
    144  N        401.8960  375.6940  620.3030 N.am  194  SER194     -0.1938
    145  CA       401.8110  377.1460  620.2190 C.3   194  SER194      0.2055
    146  C        401.7910  377.6140  618.7820 C.2   194  SER194      0.2643
    147  O        402.8380  377.8240  618.1620 O.2   194  SER194     -0.2714
    148  CB       402.9740  377.8600  620.9500 C.3   194  SER194      0.2130
    149  OG       403.0680  377.3770  622.2910 O.3   194  SER194     -0.2179
    150  N        400.5860  377.7670  618.2080 N.am  195  SER195     -0.1949
    151  CA       400.3420  378.2260  616.8490 C.3   195  SER195      0.1924
    152  C        400.8000  379.6510  616.5700 C.2   195  SER195      0.2314
    153  O        400.3250  380.6030  617.1650 O.2   195  SER195     -0.2863
    154  CB       398.8390  378.0910  616.4500 C.3   195  SER195      0.2116
    155  OG       397.9360  378.3990  617.5200 O.3   195  SER195     -0.2180
@<TRIPOS>BOND
     1   112   111    2
     2   111   110    1
     3   154   151    1
     4   154   155    1
     5   142   143   ar
     6   142   140   ar
     7   152   151    1
     8   152   153    2
     9   110   109    1
    10   110   113    1
    11   143   141   ar
    12   151   150    1
    13   113   114    1
    14   140   139   ar
    15    95    94    2
    16    90    89    1
    17    90    91    1
    18    89    88    1
    19    86    85    2
    20    98    96    1
    21   141   139   ar
    22   147   146    2
    23   150   146   am
    24    93    94    1
    25    93    96    1
    26    93    92    1
    27    41    40    2
    28   120   121    2
    29   120   119    1
    30    94    99   am
    31    97    96    1
    32   139   138    1
    33   114   115    1
    34   146   145    1
    35    85    92   am
    36    85    84    1
    37    45    44    2
    38   102   101    2
    39    88    87    1
    40    87    84    1
    41   118   119    1
    42    40    39    1
    43   101   100    1
    44   119   122    1
    45    84    83    1
    46    42    39    1
    47    42    43    1
    48    99   100    1
    49   115   116    1
    50    44    43    1
    51    44    46   am
    52   138   135    1
    53   100   103    1
    54   145   144    1
    55   145   148    1
    56   137   136    2
    57   122   123    1
    58    39    38    1
    59   144   136   am
    60   136   135    1
    61    47    48    1
    62   117   116    1
    63   135   134    1
    64   123   125    1
    65   123   124    1
    66    50    49    2
    67   148   149    1
    68    83    81   am
    69    82    81    2
    70   103   104    1
    71    48    49    1
    72   105   104   ar
    73   105   107   ar
    74    49    51   am
    75    81    80    1
    76   104   106   ar
    77   107   108   ar
    78   106   108   ar
    79    51    52    1
    80    52    53    1
    81    52    55    1
    82     5     6    1
    83     5     2    1
    84    54    53    2
    85    78    77    1
    86    53    60   am
    87    80    79    1
    88     6     7    1
    89     7     8    1
    90    65    64    1
    91    66    64    1
    92    60    61    1
    93    79    75   am
    94   129   128    2
    95    10     9    1
    96     1     2    1
    97     8     9    2
    98    61    64    1
    99    61    62    1
   100     9    11    1
   101     2     3    1
   102    55    56    1
   103    58    57    2
   104    77    74    1
   105    57    56    1
   106    57    59   am
   107   128   127    1
   108    75    76    2
   109    75    74    1
   110    67    62   am
   111    67    68    1
   112   126   127    1
   113     4     3    2
   114    73    74    1
   115    73    69   am
   116   127   130    1
   117    62    63    2
   118    68    69    1
   119    68    71    1
   120    69    70    2
   121   133   131   am
   122   130   131    1
   123    16    13    1
   124    16    17    1
   125   131   132    2
   126    72    71    1
   127    12    13    1
   128    13    14    1
   129    17    18    1
   130    29    23    1
   131    29    28    1
   132    18    19    1
   133    19    20    2
   134    14    23   am
   135    14    15    2
   136    23    24    1
   137    28    27    1
   138    20    22    1
   139    20    21    1
   140    26    25    2
   141    24    27    1
   142    24    25    1
   143    36    35    2
   144    35    34    1
   145    35    37   am
   146    34    31    1
   147    30    31    1
   148    31    32    1
   149    32    33    2
