@<TRIPOS>MOLECULE
tmp/5ho7A00.pdb
 116 107 0 0 0
SMALL
GASTEIGER

@<TRIPOS>ATOM
      1  N         40.0070   17.0890   -3.6630 N.3    18  LEU18      -0.1231
      2  CA        39.3120   17.1060   -2.3590 C.3    18  LEU18       0.1693
      3  C         39.5800   18.3700   -1.5390 C.2    18  LEU18       0.2592
      4  O         38.7540   18.7570   -0.7070 O.2    18  LEU18      -0.2718
      5  CB        39.6910   15.8860   -1.5170 C.3    18  LEU18       0.0284
      6  CG        39.4390   14.5320   -2.1380 C.3    18  LEU18       0.0019
      7  CD1       39.8560   13.4210   -1.1640 C.3    18  LEU18       0.0001
      8  CD2       37.9980   14.4000   -2.6080 C.3    18  LEU18       0.0001
      9  N         40.7440   18.9640   -1.7650 N.am   19  GLY19      -0.1957
     10  CA        41.1880   20.1690   -1.0870 C.3    19  GLY19       0.1869
     11  C         42.4310   20.7440   -1.7250 C.2    19  GLY19       0.2309
     12  O         43.1860   20.0290   -2.3920 O.2    19  GLY19      -0.2863
     13  N         45.1180   17.9170   -2.3610 N.3    26  VAL26      -0.1245
     14  CA        44.6150   16.5870   -2.0210 C.3    26  VAL26       0.1561
     15  C         43.6170   16.1310   -3.1090 C.2    26  VAL26       0.2260
     16  O         42.6690   16.8580   -3.3980 O.2    26  VAL26      -0.2867
     17  CB        44.0470   16.5150   -0.6040 C.3    26  VAL26       0.0252
     18  CG1       43.6760   15.0800   -0.2560 C.3    26  VAL26       0.0019
     19  CG2       45.0480   17.0740    0.3930 C.3    26  VAL26       0.0019
     20  N         43.1140    9.5450   -0.2180 N.3    39  ALA39      -0.1245
     21  CA        43.1700   10.9870   -0.4010 C.3    39  ALA39       0.1562
     22  C         44.6560   11.2580   -0.6240 C.2    39  ALA39       0.2260
     23  O         45.4550   11.2240    0.3200 O.2    39  ALA39      -0.2867
     24  CB        42.6700   11.6930    0.8530 C.3    39  ALA39       0.0290
     25  N         47.7140   13.4030   -1.0680 N.3    41  LYS41      -0.1245
     26  CA        48.2080   14.7720   -0.9500 C.3    41  LYS41       0.1561
     27  C         49.3860   14.9130   -1.9360 C.2    41  LYS41       0.2260
     28  O         50.3840   14.1900   -1.8070 O.2    41  LYS41      -0.2867
     29  CB        48.6640   15.0750    0.4970 C.3    41  LYS41       0.0271
     30  CG        48.7990   16.5670    0.8030 C.3    41  LYS41       0.0035
     31  CD        49.5420   16.8300    2.0920 C.3    41  LYS41       0.0206
     32  CE        48.9250   17.9500    2.9120 C.3    41  LYS41       0.1093
     33  NZ        47.9810   17.4520    3.9670 N.3    41  LYS41      -0.1314
     34  N         43.9080   10.8180   10.5860 N.3    73  VAL73      -0.1245
     35  CA        44.1550   10.4910    9.2020 C.3    73  VAL73       0.1561
     36  C         45.3250    9.5020    9.1610 C.2    73  VAL73       0.2260
     37  O         46.3070    9.6870    9.8740 O.2    73  VAL73      -0.2867
     38  CB        44.3680   11.7810    8.3340 C.3    73  VAL73       0.0252
     39  CG1       45.7520   12.3990    8.5240 C.3    73  VAL73       0.0019
     40  CG2       44.0820   11.5330    6.8510 C.3    73  VAL73       0.0019
     41  N         46.7160    9.2510    2.0130 N.3    89  LEU89      -0.1231
     42  CA        45.9500    9.4940    3.2300 C.3    89  LEU89       0.1693
     43  C         44.5920    8.8170    3.2210 C.2    89  LEU89       0.2593
     44  O         44.0730    8.5520    2.1460 O.2    89  LEU89      -0.2718
     45  CB        45.8230   11.0140    3.4980 C.3    89  LEU89       0.0284
     46  CG        47.1340   11.8190    3.3990 C.3    89  LEU89       0.0019
     47  CD1       46.8700   13.2580    3.1580 C.3    89  LEU89       0.0001
     48  CD2       48.0170   11.6060    4.5910 C.3    89  LEU89       0.0001
     49  N         44.0300    8.5020    4.4170 N.am   90  SER90      -0.1938
     50  CA        42.7010    7.8920    4.5370 C.3    90  SER90       0.2055
     51  C         41.6640    8.8950    4.0730 C.2    90  SER90       0.2643
     52  O         41.8170   10.0880    4.3250 O.2    90  SER90      -0.2714
     53  CB        42.4260    7.4550    5.9680 C.3    90  SER90       0.2130
     54  OG        42.8240    8.4240    6.9210 O.3    90  SER90      -0.2179
     55  N         40.6480    8.4350    3.3320 N.am   91  TYR91      -0.1959
     56  CA        39.6620    9.3380    2.7440 C.3    91  TYR91       0.1771
     57  C         38.3410    9.4220    3.5680 C.2    91  TYR91       0.2619
     58  O         37.6210    8.4220    3.7520 O.2    91  TYR91      -0.2715
     59  CB        39.4490    8.9800    1.2490 C.3    91  TYR91       0.0574
     60  CG        38.1650    9.4520    0.5930 C.ar   91  TYR91      -0.0198
     61  CD1       37.8230   10.8050    0.5720 C.ar   91  TYR91      -0.0009
     62  CD2       37.3320    8.5580   -0.0760 C.ar   91  TYR91      -0.0009
     63  CE1       36.6470   11.2440   -0.0350 C.ar   91  TYR91       0.0417
     64  CE2       36.1680    8.9880   -0.7060 C.ar   91  TYR91       0.0417
     65  CZ        35.8290   10.3340   -0.6840 C.ar   91  TYR91       0.1957
     66  OH        34.6690   10.7630   -1.2890 O.3    91  TYR91      -0.2866
     67  N         38.0540   10.6610    4.0530 N.am   92  ALA92      -0.1977
     68  CA        36.8580   11.0490    4.7960 C.3    92  ALA92       0.1597
     69  C         35.8120   11.6040    3.7940 C.2    92  ALA92       0.2287
     70  O         35.9060   12.7790    3.3790 O.2    92  ALA92      -0.2864
     71  CB        37.2160   12.1110    5.8230 C.3    92  ALA92       0.0319
     72  N         33.6280   15.0900    4.4430 N.3    95  GLY95      -0.1210
     73  CA        34.3660   16.3520    4.4820 C.3    95  GLY95       0.1956
     74  C         34.5020   17.0420    5.8240 C.2    95  GLY95       0.2611
     75  O         34.6250   16.3820    6.8560 O.2    95  GLY95      -0.2717
     76  N         34.5110   18.3790    5.8120 N.am   96  GLU96      -0.1979
     77  CA        34.6730   19.2260    7.0020 C.3    96  GLU96       0.1602
     78  C         33.5120   19.1900    7.9930 C.2    96  GLU96       0.2287
     79  O         32.3420   19.0160    7.6120 O.2    96  GLU96      -0.2864
     80  CB        34.9390   20.6860    6.5820 C.3    96  GLU96       0.0415
     81  CG        36.4180   21.0080    6.4960 C.3    96  GLU96       0.1163
     82  CD        36.9280   21.5820    5.1870 C.2    96  GLU96       0.3649
     83  OE1       36.6230   22.7660    4.9020 O.co2  96  GLU96      -0.2457
     84  OE2       37.6960   20.8770    4.4870 O.co2  96  GLU96      -0.2457
     85  N         37.9060   23.1280   10.1170 N.3   139  GLU139     -0.1245
     86  CA        38.4110   22.8740    8.7650 C.3   139  GLU139      0.1567
     87  C         39.3400   21.6120    8.7520 C.2   139  GLU139      0.2260
     88  O         39.3850   20.8950    7.7620 O.2   139  GLU139     -0.2867
     89  CB        39.1580   24.1030    8.2260 C.3   139  GLU139      0.0388
     90  CG        38.3280   25.0100    7.3390 C.3   139  GLU139      0.1160
     91  CD        39.0450   25.4730    6.0760 C.2   139  GLU139      0.3649
     92  OE1       40.1050   26.1330    6.1940 O.co2 139  GLU139     -0.2457
     93  OE2       38.5370   25.1840    4.9650 O.co2 139  GLU139     -0.2457
     94  N         37.8750   16.3540    9.8900 N.3   142  LEU142     -0.1245
     95  CA        37.1130   15.6930    8.8450 C.3   142  LEU142      0.1561
     96  C         36.1480   14.6390    9.3980 C.2   142  LEU142      0.2260
     97  O         36.2770   14.2070   10.5430 O.2   142  LEU142     -0.2867
     98  CB        38.0000   15.1280    7.7350 C.3   142  LEU142      0.0270
     99  CG        38.8830   16.1100    6.9840 C.3   142  LEU142      0.0019
    100  CD1       39.7310   15.3840    6.0400 C.3   142  LEU142      0.0001
    101  CD2       38.0720   17.1590    6.2020 C.3   142  LEU142      0.0001
    102  N         43.2410   15.9960   10.6230 N.3   152  THR152     -0.1203
    103  CA        44.3140   16.0660    9.6410 C.3   152  THR152      0.1994
    104  C         45.0580   17.4160    9.6940 C.2   152  THR152      0.2617
    105  O         44.7510   18.2220   10.5700 O.2   152  THR152     -0.2717
    106  CB        43.7770   15.7000    8.2550 C.3   152  THR152      0.1784
    107  OG1       44.8730   15.6680    7.3290 O.3   152  THR152     -0.2211
    108  CG2       42.6310   16.6090    7.8020 C.3   152  THR152      0.0376
    109  N         46.0670   17.6310    8.7910 N.am  153  ASP153     -0.1973
    110  CA        46.8830   18.8510    8.6870 C.3   153  ASP153      0.1709
    111  C         48.0110   18.9090    9.7330 C.2   153  ASP153      0.2293
    112  O         47.9840   19.7290   10.6600 O.2   153  ASP153     -0.2864
    113  CB        46.0040   20.1260    8.7180 C.3   153  ASP153      0.1436
    114  CG        46.0740   20.9730    7.4760 C.2   153  ASP153      0.3671
    115  OD1       46.1520   20.3860    6.3530 O.co2 153  ASP153     -0.2456
    116  OD2       45.9960   22.2220    7.6110 O.co2 153  ASP153     -0.2456
@<TRIPOS>BOND
     1     1     2    1
     2    16    15    2
     3    15    14    1
     4     8     6    1
     5    12    11    2
     6    13    14    1
     7     2     3    1
     8     2     5    1
     9     6     5    1
    10     6     7    1
    11    14    17    1
    12    27    28    2
    13    27    26    1
    14     9     3   am
    15     9    10    1
    16    11    10    1
    17     3     4    2
    18    66    65    1
    19    25    26    1
    20    26    29    1
    21    64    65   ar
    22    64    62   ar
    23    65    63   ar
    24    22    21    1
    25    22    23    2
    26    17    18    1
    27    17    19    1
    28    21    20    1
    29    21    24    1
    30    62    60   ar
    31    63    61   ar
    32    29    30    1
    33    61    60   ar
    34    60    59    1
    35    30    31    1
    36    59    56    1
    37    41    42    1
    38    31    32    1
    39    44    43    2
    40    56    55    1
    41    56    57    1
    42    32    33    1
    43    47    46    1
    44    43    42    1
    45    43    49   am
    46    42    45    1
    47    55    51   am
    48    70    69    2
    49    46    45    1
    50    46    48    1
    51    57    58    2
    52    57    67   am
    53    69    68    1
    54    67    68    1
    55    51    52    2
    56    51    50    1
    57    49    50    1
    58    72    73    1
    59    73    74    1
    60    84    82   ar
    61    50    53    1
    62    68    71    1
    63    83    82   ar
    64    93    91   ar
    65    82    81    1
    66    76    74   am
    67    76    77    1
    68    74    75    2
    69    53    54    1
    70   100    99    1
    71    91    92   ar
    72    91    90    1
    73   101    99    1
    74   115   114   ar
    75    81    80    1
    76    80    77    1
    77    40    38    1
    78    99    98    1
    79    77    78    1
    80   107   106    1
    81    90    89    1
    82   114   116   ar
    83   114   113    1
    84    79    78    2
    85    98    95    1
    86    88    87    2
    87   108   106    1
    88    89    86    1
    89   106   103    1
    90    38    39    1
    91    38    35    1
    92   110   113    1
    93   110   109    1
    94   110   111    1
    95    87    86    1
    96    86    85    1
    97   109   104   am
    98    95    96    1
    99    95    94    1
   100    36    35    1
   101    36    37    2
   102    35    34    1
   103    96    97    2
   104   103   104    1
   105   103   102    1
   106   104   105    2
   107   111   112    2
