@<TRIPOS>MOLECULE
tmp/5ho8A00.pdb
 163 151 0 0 0
SMALL
GASTEIGER

@<TRIPOS>ATOM
      1  N         39.4910   17.4060   -3.3270 N.3    18  LEU18      -0.1231
      2  CA        38.8110   17.4260   -2.0290 C.3    18  LEU18       0.1696
      3  C         39.2000   18.6590   -1.2470 C.2    18  LEU18       0.2632
      4  O         38.4780   19.0740   -0.3460 O.2    18  LEU18      -0.2714
      5  CB        39.1670   16.1880   -1.1970 C.3    18  LEU18       0.0284
      6  CG        38.8440   14.8310   -1.7850 C.3    18  LEU18       0.0019
      7  CD1       39.4590   13.7650   -0.9570 C.3    18  LEU18       0.0001
      8  CD2       37.3600   14.6170   -1.9050 C.3    18  LEU18       0.0001
      9  N         40.3470   19.2260   -1.5700 N.am   19  GLY19      -0.1718
     10  CA        40.8050   20.4100   -0.8690 C.2    19  GLY19       0.1480
     11  C         42.1570   20.9230   -1.2860 C.2    19  GLY19       0.2820
     12  O         42.8490   20.3130   -2.1040 O.2    19  GLY19      -0.2669
     13  N         42.5130   22.0780   -0.7160 N.am   20  GLU20      -0.1929
     14  CA        43.7720   22.7640   -0.9610 C.3    20  GLU20       0.1736
     15  C         44.4130   23.2160    0.3390 C.2    20  GLU20       0.2617
     16  O         43.7840   23.9070    1.1410 O.2    20  GLU20      -0.2715
     17  CB        43.5770   23.9540   -1.9170 C.3    20  GLU20       0.0429
     18  CG        43.8530   23.6000   -3.3680 C.3    20  GLU20       0.1163
     19  CD        42.6910   23.6600   -4.3450 C.2    20  GLU20       0.3649
     20  OE1       41.5430   23.3680   -3.9350 O.co2  20  GLU20      -0.2457
     21  OE2       42.9390   23.9590   -5.5380 O.co2  20  GLU20      -0.2457
     22  N         45.6450   22.7690    0.5470 N.am   21  GLY21      -0.1955
     23  CA        46.5040   23.1950    1.6440 C.3    21  GLY21       0.1869
     24  C         47.2930   24.4080    1.1700 C.2    21  GLY21       0.2309
     25  O         47.0130   24.9670    0.0870 O.2    21  GLY21      -0.2863
     26  N         44.6320   18.1460   -2.1680 N.3    26  VAL26      -0.1245
     27  CA        44.1470   16.7920   -1.8340 C.3    26  VAL26       0.1561
     28  C         43.1510   16.3320   -2.9040 C.2    26  VAL26       0.2260
     29  O         42.2080   17.0600   -3.2210 O.2    26  VAL26      -0.2867
     30  CB        43.5620   16.7030   -0.4020 C.3    26  VAL26       0.0252
     31  CG1       43.1610   15.2690   -0.0650 C.3    26  VAL26       0.0019
     32  CG2       44.5710   17.2260    0.6240 C.3    26  VAL26       0.0019
     33  N         42.2860    9.6410   -0.0960 N.3    39  ALA39      -0.1245
     34  CA        42.4400   11.0720   -0.2950 C.3    39  ALA39       0.1562
     35  C         43.9420   11.2650   -0.3950 C.2    39  ALA39       0.2260
     36  O         44.6470   11.0900    0.6010 O.2    39  ALA39      -0.2867
     37  CB        41.8730   11.8590    0.8800 C.3    39  ALA39       0.0290
     38  N         47.0610   13.5070   -0.8500 N.3    41  LYS41      -0.1245
     39  CA        47.5940   14.8530   -0.7200 C.3    41  LYS41       0.1561
     40  C         48.8150   14.8910   -1.6590 C.2    41  LYS41       0.2260
     41  O         49.7380   14.0790   -1.4910 O.2    41  LYS41      -0.2867
     42  CB        47.9610   15.1650    0.7530 C.3    41  LYS41       0.0271
     43  CG        48.4390   16.6150    0.9970 C.3    41  LYS41       0.0035
     44  CD        49.0130   16.8010    2.3990 C.3    41  LYS41       0.0206
     45  CE        48.6270   18.1180    3.0340 C.3    41  LYS41       0.1093
     46  NZ        49.7780   19.0780    3.1280 N.3    41  LYS41      -0.1314
     47  N         55.1790   16.7210    8.9910 N.3    60  GLU60      -0.1245
     48  CA        53.8250   16.2740    8.6510 C.3    60  GLU60       0.1567
     49  C         53.7760   14.7850    8.4050 C.2    60  GLU60       0.2260
     50  O         52.9650   14.0860    9.0270 O.2    60  GLU60      -0.2867
     51  CB        53.2760   17.0310    7.4400 C.3    60  GLU60       0.0388
     52  CG        51.8470   16.6390    7.1070 C.3    60  GLU60       0.1160
     53  CD        51.1410   17.2790    5.9230 C.2    60  GLU60       0.3649
     54  OE1       51.7420   18.1280    5.2210 O.co2  60  GLU60      -0.2457
     55  OE2       49.9550   16.9310    5.7180 O.co2  60  GLU60      -0.2457
     56  N         51.9580   11.9600   10.9880 N.3    64  MET64      -0.1245
     57  CA        50.9170   11.0650   10.4770 C.3    64  MET64       0.1570
     58  C         51.3130    9.5960   10.5340 C.2    64  MET64       0.2261
     59  O         50.4650    8.7800   10.8630 O.2    64  MET64      -0.2867
     60  CB        50.4510   11.4660    9.0940 C.3    64  MET64       0.0387
     61  CG        49.8990   12.8650    9.0530 C.3    64  MET64       0.0595
     62  SD        48.9040   13.1360    7.5700 S.3    64  MET64      -0.1393
     63  CE        50.2220   13.4370    6.3130 C.3    64  MET64       0.0692
     64  N         42.9780   10.7890   10.8660 N.3    73  VAL73      -0.1245
     65  CA        43.1970   10.3590    9.4990 C.3    73  VAL73       0.1561
     66  C         44.4690    9.4880    9.4900 C.2    73  VAL73       0.2260
     67  O         45.4020    9.7620   10.2560 O.2    73  VAL73      -0.2867
     68  CB        43.2790   11.6110    8.5880 C.3    73  VAL73       0.0252
     69  CG1       44.4770   11.5760    7.6510 C.3    73  VAL73       0.0019
     70  CG2       41.9810   11.8030    7.8130 C.3    73  VAL73       0.0019
     71  N         46.0850    9.2530    2.1620 N.3    89  LEU89      -0.1231
     72  CA        45.3500    9.4780    3.4090 C.3    89  LEU89       0.1693
     73  C         43.9820    8.8330    3.3800 C.2    89  LEU89       0.2593
     74  O         43.4230    8.6340    2.3000 O.2    89  LEU89      -0.2718
     75  CB        45.1690   10.9950    3.6630 C.3    89  LEU89       0.0284
     76  CG        46.4300   11.8420    3.6300 C.3    89  LEU89       0.0019
     77  CD1       46.0900   13.3030    3.7550 C.3    89  LEU89       0.0001
     78  CD2       47.4060   11.3900    4.7140 C.3    89  LEU89       0.0001
     79  N         43.4180    8.5390    4.5690 N.am   90  SER90      -0.1938
     80  CA        42.0640    8.0050    4.6430 C.3    90  SER90       0.2055
     81  C         41.0540    9.0490    4.1570 C.2    90  SER90       0.2643
     82  O         41.2170   10.2460    4.3880 O.2    90  SER90      -0.2714
     83  CB        41.7310    7.5190    6.0480 C.3    90  SER90       0.2130
     84  OG        42.0790    8.4460    7.0510 O.3    90  SER90      -0.2179
     85  N         40.0590    8.5920    3.3920 N.am   91  TYR91      -0.1959
     86  CA        39.0250    9.4560    2.8290 C.3    91  TYR91       0.1771
     87  C         37.7970    9.5470    3.7500 C.2    91  TYR91       0.2619
     88  O         37.1730    8.5440    4.0520 O.2    91  TYR91      -0.2715
     89  CB        38.6710    8.9810    1.4150 C.3    91  TYR91       0.0574
     90  CG        37.4450    9.6230    0.8020 C.ar   91  TYR91      -0.0198
     91  CD1       37.3470   11.0120    0.6720 C.ar   91  TYR91      -0.0009
     92  CD2       36.4240    8.8430    0.2630 C.ar   91  TYR91      -0.0009
     93  CE1       36.2210   11.6060    0.1040 C.ar   91  TYR91       0.0417
     94  CE2       35.3070    9.4250   -0.3260 C.ar   91  TYR91       0.0417
     95  CZ        35.2120   10.8080   -0.4160 C.ar   91  TYR91       0.1957
     96  OH        34.1150   11.3800   -1.0270 O.3    91  TYR91      -0.2866
     97  N         37.4960   10.7480    4.2220 N.am   92  ALA92      -0.1977
     98  CA        36.3380   11.0260    5.0540 C.3    92  ALA92       0.1597
     99  C         35.1490   11.4360    4.1100 C.2    92  ALA92       0.2287
    100  O         35.0500   12.6110    3.7380 O.2    92  ALA92      -0.2864
    101  CB        36.6770   12.1560    6.0080 C.3    92  ALA92       0.0319
    102  N         32.7770   14.5660    4.6420 N.3    95  GLY95      -0.1210
    103  CA        33.5030   15.8350    4.6550 C.3    95  GLY95       0.1956
    104  C         33.7900   16.4420    6.0070 C.2    95  GLY95       0.2611
    105  O         33.8550   15.7360    7.0140 O.2    95  GLY95      -0.2717
    106  N         33.9780   17.7570    6.0230 N.am   96  GLU96      -0.1979
    107  CA        34.2660   18.5810    7.1930 C.3    96  GLU96       0.1602
    108  C         33.0540   18.7220    8.0810 C.2    96  GLU96       0.2287
    109  O         31.9240   18.5730    7.6090 O.2    96  GLU96      -0.2864
    110  CB        34.7000   19.9770    6.7470 C.3    96  GLU96       0.0415
    111  CG        35.9500   19.9130    5.8890 C.3    96  GLU96       0.1163
    112  CD        36.3330   21.1430    5.0970 C.2    96  GLU96       0.3649
    113  OE1       35.6580   22.1880    5.2380 O.co2  96  GLU96      -0.2457
    114  OE2       37.3130   21.0520    4.3230 O.co2  96  GLU96      -0.2457
    115  N         40.5610   23.0770   13.9010 N.3   137  LYS137     -0.1245
    116  CA        39.3170   23.7690   13.6020 C.3   137  LYS137      0.1561
    117  C         38.3310   22.8300   12.9650 C.2   137  LYS137      0.2260
    118  O         38.7020   21.7700   12.5540 O.2   137  LYS137     -0.2867
    119  CB        39.5580   24.9730   12.6950 C.3   137  LYS137      0.0271
    120  CG        40.2800   24.6720   11.4120 C.3   137  LYS137      0.0035
    121  CD        41.0210   25.8660   10.8820 C.3   137  LYS137      0.0206
    122  CE        41.8520   25.4950    9.6720 C.3   137  LYS137      0.1093
    123  NZ        42.2060   26.6440    8.8160 N.3   137  LYS137     -0.1314
    124  N         37.0840   22.7820   10.1050 N.3   139  GLU139     -0.1182
    125  CA        37.5720   22.5220    8.7410 C.3   139  GLU139      0.1915
    126  C         38.4840   21.2550    8.7430 C.2   139  GLU139      0.2634
    127  O         38.4520   20.4770    7.7900 O.2   139  GLU139     -0.2714
    128  CB        38.3740   23.7520    8.2700 C.2   139  GLU139      0.0085
    129  CG        38.5680   23.8830    6.7650 C.2   139  GLU139      0.0835
    130  CD        39.5370   24.9550    6.2810 C.2   139  GLU139      0.3877
    131  OE1       39.7270   25.9730    6.9900 O.co2 139  GLU139     -0.2406
    132  OE2       40.0750   24.7940    5.1600 O.co2 139  GLU139     -0.2406
    133  N         39.3020   21.0830    9.8160 N.am  140  ASN140     -0.1972
    134  CA        40.2540   19.9940   10.1130 C.3   140  ASN140      0.1688
    135  C         39.5760   18.7420   10.6990 C.2   140  ASN140      0.2292
    136  O         40.1930   17.6710   10.7020 O.2   140  ASN140     -0.2864
    137  CB        41.2610   20.4720   11.1840 C.3   140  ASN140      0.1181
    138  CG        42.2070   21.5050   10.6980 C.2   140  ASN140      0.2629
    139  OD1       42.5020   21.5880    9.5100 O.2   140  ASN140     -0.2716
    140  ND2       42.7300   22.2990   11.6110 N.am  140  ASN140     -0.0877
    141  N         37.1590   16.1480   10.2120 N.3   142  LEU142     -0.1245
    142  CA        36.4000   15.4750    9.1730 C.3   142  LEU142      0.1561
    143  C         35.4770   14.4240    9.7370 C.2   142  LEU142      0.2260
    144  O         35.6970   13.9420   10.8510 O.2   142  LEU142     -0.2867
    145  CB        37.3410   14.8530    8.1400 C.3   142  LEU142      0.0270
    146  CG        38.4520   15.7120    7.5610 C.3   142  LEU142      0.0019
    147  CD1       39.3680   14.8530    6.7930 C.3   142  LEU142      0.0001
    148  CD2       37.9140   16.8060    6.6850 C.3   142  LEU142      0.0001
    149  N         42.5420   15.7260   10.6920 N.3   152  THR152     -0.1203
    150  CA        43.5610   15.7800    9.6710 C.3   152  THR152      0.1994
    151  C         44.2820   17.1010    9.6950 C.2   152  THR152      0.2617
    152  O         43.9920   17.9200   10.5100 O.2   152  THR152     -0.2717
    153  CB        42.9750   15.5190    8.2890 C.3   152  THR152      0.1784
    154  OG1       44.0260   15.4770    7.3450 O.3   152  THR152     -0.2211
    155  CG2       42.0540   16.5860    7.9140 C.3   152  THR152      0.0376
    156  N         45.2490   17.2810    8.8130 N.am  153  ASP153     -0.1973
    157  CA        46.0310   18.5090    8.7080 C.3   153  ASP153      0.1709
    158  C         47.1500   18.6590    9.7080 C.2   153  ASP153      0.2293
    159  O         47.1240   19.4870   10.5840 O.2   153  ASP153     -0.2864
    160  CB        45.1140   19.7150    8.7810 C.3   153  ASP153      0.1436
    161  CG        45.7010   20.9290    8.1190 C.2   153  ASP153      0.3671
    162  OD1       46.8880   20.9060    7.7950 O.co2 153  ASP153     -0.2456
    163  OD2       44.9860   21.9130    7.9250 O.co2 153  ASP153     -0.2456
@<TRIPOS>BOND
     1    21    19   ar
     2    19    20   ar
     3    19    18    1
     4    18    17    1
     5     1     2    1
     6    29    28    2
     7    28    27    1
     8    26    27    1
     9    12    11    2
    10     2     3    1
    11     2     5    1
    12    17    14    1
    13     8     6    1
    14    27    30    1
    15     6     5    1
    16     6     7    1
    17    40    41    2
    18    40    39    1
    19     9     3    1
    20     9    10    2
    21    11    10    1
    22    11    13   am
    23     3     4    2
    24    96    95    1
    25    14    13    1
    26    14    15    1
    27    38    39    1
    28    39    42    1
    29    95    94   ar
    30    95    93   ar
    31    30    31    1
    32    30    32    1
    33    35    34    1
    34    35    36    2
    35    94    92   ar
    36    34    33    1
    37    34    37    1
    38    25    24    2
    39    93    91   ar
    40    92    90   ar
    41    15    22   am
    42    15    16    2
    43    22    23    1
    44    91    90   ar
    45    42    43    1
    46    90    89    1
    47    43    44    1
    48    24    23    1
    49    89    86    1
    50    71    72    1
    51    74    73    2
    52    44    45    1
    53    86    85    1
    54    86    87    1
    55    45    46    1
    56    73    72    1
    57    73    79   am
    58    85    81   am
    59    72    75    1
    60    76    75    1
    61    76    77    1
    62    76    78    1
    63   100    99    2
    64    87    88    2
    65    87    97   am
    66    99    98    1
    67    81    82    2
    68    81    80    1
    69    97    98    1
    70   114   112   ar
    71    79    80    1
    72   102   103    1
    73    80    83    1
    74   103   104    1
    75    98   101    1
    76   112   113   ar
    77   112   111    1
    78   132   130   ar
    79    54    53   ar
    80    55    53   ar
    81   111   110    1
    82    53    52    1
    83   104   106   am
    84   104   105    2
    85   106   107    1
    86    83    84    1
    87   130   129    1
    88   130   131   ar
    89    63    62    1
    90   148   146    1
    91   110   107    1
    92   129   128    2
    93   147   146    1
    94    52    51    1
    95   107   108    1
    96   154   153    1
    97    51    48    1
    98   146   145    1
    99    62    61    1
   100   109   108    2
   101    69    68    1
   102   127   126    2
   103   162   161   ar
   104    70    68    1
   105   155   153    1
   106   163   161   ar
   107   161   160    1
   108   145   142    1
   109   128   125    1
   110   153   150    1
   111    49    48    1
   112    49    50    2
   113    68    65    1
   114    48    47    1
   115   157   160    1
   116   157   156    1
   117   157   158    1
   118   125   126    1
   119   125   124    1
   120   126   133   am
   121   156   151   am
   122   123   122    1
   123    61    60    1
   124    60    57    1
   125   142   143    1
   126   142   141    1
   127    66    65    1
   128    66    67    2
   129    65    64    1
   130   139   138    2
   131   150   151    1
   132   150   149    1
   133   122   121    1
   134   151   152    2
   135   158   159    2
   136   143   144    2
   137   133   134    1
   138   134   135    1
   139   134   137    1
   140    57    58    1
   141    57    56    1
   142    58    59    2
   143   138   137    1
   144   138   140   am
   145   135   136    2
   146   121   120    1
   147   120   119    1
   148   118   117    2
   149   119   116    1
   150   117   116    1
   151   116   115    1
