@<TRIPOS>MOLECULE
tmp/5ho9B06.pdb
 92 88 0 0 0
SMALL
GASTEIGER

@<TRIPOS>ATOM
      1  N        -13.3490   24.0630   -8.4590 N.3    22  TYR22      -0.1241
      2  CA       -13.4830   25.5020   -8.7090 C.3    22  TYR22       0.1605
      3  C        -13.3520   25.8390  -10.2040 C.2    22  TYR22       0.2264
      4  O        -12.4330   25.3790  -10.8820 O.2    22  TYR22      -0.2867
      5  CB       -12.4370   26.3010   -7.9160 C.3    22  TYR22       0.0534
      6  CG       -12.4620   26.0780   -6.4270 C.ar   22  TYR22      -0.0201
      7  CD1      -11.7320   25.0450   -5.8550 C.ar   22  TYR22      -0.0009
      8  CD2      -13.1930   26.9060   -5.5870 C.ar   22  TYR22      -0.0009
      9  CE1      -11.7410   24.8250   -4.4950 C.ar   22  TYR22       0.0417
     10  CE2      -13.2090   26.6970   -4.2130 C.ar   22  TYR22       0.0417
     11  CZ       -12.4790   25.6500   -3.6710 C.ar   22  TYR22       0.1957
     12  OH       -12.4710   25.4160   -2.3040 O.3    22  TYR22      -0.2866
     13  N         -8.9060   21.9440   -8.3890 N.3    35  LYS35      -0.1231
     14  CA        -9.4860   21.4110   -7.1700 C.3    35  LYS35       0.1693
     15  C         -8.9320   22.1140   -5.9290 C.2    35  LYS35       0.2592
     16  O         -9.4650   21.9390   -4.8280 O.2    35  LYS35      -0.2718
     17  CB        -9.2740   19.8950   -7.0870 C.3    35  LYS35       0.0285
     18  CG       -10.3120   19.0930   -7.8890 C.3    35  LYS35       0.0035
     19  CD       -10.2000   17.5830   -7.6500 C.3    35  LYS35       0.0206
     20  CE       -11.3430   16.7970   -8.3090 C.3    35  LYS35       0.1093
     21  NZ       -12.5520   16.6840   -7.4280 N.3    35  LYS35      -0.1314
     22  N         -7.9040   22.9470   -6.1210 N.am   36  ASP36      -0.1960
     23  CA        -7.1540   23.5200   -4.9990 C.3    36  ASP36       0.1840
     24  C         -6.8560   25.0350   -5.0470 C.2    36  ASP36       0.2622
     25  O         -6.2140   25.5620   -4.1460 O.2    36  ASP36      -0.2715
     26  CB        -5.8230   22.7610   -4.8400 C.3    36  ASP36       0.1450
     27  CG        -4.8900   22.9270   -6.0380 C.2    36  ASP36       0.3671
     28  OD1       -5.1550   23.7870   -6.9010 O.co2  36  ASP36      -0.2456
     29  OD2       -3.8710   22.2030   -6.1070 O.co2  36  ASP36      -0.2456
     30  N         -7.3010   25.7140   -6.0980 N.am   37  LEU37      -0.1963
     31  CA        -7.0290   27.1430   -6.3120 C.3    37  LEU37       0.1728
     32  C         -5.5380   27.4490   -6.5610 C.2    37  LEU37       0.2616
     33  O         -5.1150   28.6050   -6.4950 O.2    37  LEU37      -0.2715
     34  CB        -7.5560   27.9740   -5.1310 C.3    37  LEU37       0.0311
     35  CG        -9.0780   28.0800   -5.0020 C.3    37  LEU37       0.0022
     36  CD1       -9.4950   28.7630   -3.6980 C.3    37  LEU37       0.0001
     37  CD2       -9.6510   28.8230   -6.1990 C.3    37  LEU37       0.0001
     38  N         -4.7590   26.4180   -6.8840 N.am   38  MET38      -0.1977
     39  CA        -3.3260   26.5730   -7.1630 C.3    38  MET38       0.1605
     40  C         -2.8990   26.0100   -8.5410 C.2    38  MET38       0.2287
     41  O         -2.1950   26.6660   -9.3300 O.2    38  MET38      -0.2864
     42  CB        -2.5160   25.9000   -6.0600 C.3    38  MET38       0.0413
     43  CG        -2.5810   26.6040   -4.7320 C.3    38  MET38       0.0598
     44  SD        -1.4960   25.7850   -3.5460 S.3    38  MET38      -0.1393
     45  CE        -2.7120   24.8470   -2.5960 C.3    38  MET38       0.0692
     46  N        -15.8170   31.0080    1.0840 N.3   358  ASP358     -0.1239
     47  CA       -16.0200   29.5880    1.3880 C.3   358  ASP358      0.1674
     48  C        -16.9200   29.3660    2.6160 C.2   358  ASP358      0.2266
     49  O        -16.5250   29.6920    3.7310 O.2   358  ASP358     -0.2867
     50  CB       -14.6550   28.9240    1.6060 C.3   358  ASP358      0.1410
     51  CG       -14.7520   27.4310    1.8180 C.2   358  ASP358      0.3668
     52  OD1      -15.0150   27.0040    2.9680 O.co2 358  ASP358     -0.2456
     53  OD2      -14.5530   26.6860    0.8310 O.co2 358  ASP358     -0.2456
     54  N        -15.6800   27.4110    6.0040 N.3   361  THR361     -0.1218
     55  CA       -14.5250   27.8870    6.7820 C.3   361  THR361      0.1862
     56  C        -14.4420   29.4060    6.9680 C.2   361  THR361      0.2287
     57  O        -13.6710   29.9000    7.7940 O.2   361  THR361     -0.2866
     58  CB       -13.1940   27.4550    6.1370 C.3   361  THR361      0.1770
     59  OG1      -13.0100   28.1670    4.9100 O.3   361  THR361     -0.2211
     60  CG2      -13.1740   25.9580    5.8570 C.3   361  THR361      0.0375
     61  N        -13.1430   31.3890    4.9770 N.3   363  GLN363     -0.1245
     62  CA       -12.0080   31.8730    4.1960 C.3   363  GLN363      0.1566
     63  C        -12.5030   32.5670    2.9210 C.2   363  GLN363      0.2260
     64  O        -13.5300   32.2090    2.3610 O.2   363  GLN363     -0.2867
     65  CB       -11.0520   30.7260    3.8620 C.3   363  GLN363      0.0367
     66  CG       -10.2750   30.1650    5.0580 C.3   363  GLN363      0.0905
     67  CD        -9.3510   29.0080    4.6720 C.2   363  GLN363      0.2608
     68  OE1       -8.1290   29.1780    4.5420 O.2   363  GLN363     -0.2717
     69  NE2       -9.9360   27.8200    4.4800 N.am  363  GLN363     -0.0878
     70  N        -11.3510   34.4350   -0.9530 N.3   365  PHE365     -0.1241
     71  CA       -10.2520   34.4380   -1.9400 C.3   365  PHE365      0.1605
     72  C        -10.4290   35.4650   -3.0660 C.2   365  PHE365      0.2264
     73  O        -11.5020   35.5920   -3.6380 O.2   365  PHE365     -0.2867
     74  CB       -10.0620   33.0270   -2.5120 C.3   365  PHE365      0.0534
     75  CG        -9.7090   32.0170   -1.4640 C.ar  365  PHE365     -0.0203
     76  CD1       -8.3820   31.7720   -1.1360 C.ar  365  PHE365     -0.0042
     77  CD2      -10.7020   31.3500   -0.7580 C.ar  365  PHE365     -0.0042
     78  CE1       -8.0410   30.8520   -0.1330 C.ar  365  PHE365     -0.0003
     79  CE2      -10.3750   30.4290    0.2400 C.ar  365  PHE365     -0.0003
     80  CZ        -9.0420   30.1780    0.5540 C.ar  365  PHE365     -0.0000
     81  N         -2.0520   32.5460   -2.9530 N.3   401  TYR401     -0.1241
     82  CA        -2.5130   31.5260   -2.0160 C.3   401  TYR401      0.1605
     83  C         -1.7590   30.2290   -2.2140 C.2   401  TYR401      0.2264
     84  O         -1.7770   29.6520   -3.3010 O.2   401  TYR401     -0.2867
     85  CB        -4.0240   31.2850   -2.1660 C.3   401  TYR401      0.0534
     86  CG        -4.5450   30.0970   -1.3850 C.ar  401  TYR401     -0.0201
     87  CD1       -4.4970   30.0840   -0.0010 C.ar  401  TYR401     -0.0009
     88  CD2       -5.0880   28.9890   -2.0320 C.ar  401  TYR401     -0.0009
     89  CE1       -4.9700   29.0010    0.7300 C.ar  401  TYR401      0.0417
     90  CE2       -5.5640   27.8960   -1.3120 C.ar  401  TYR401      0.0417
     91  CZ        -5.5000   27.9100    0.0750 C.ar  401  TYR401      0.1957
     92  OH        -5.9620   26.8440    0.8150 O.3   401  TYR401     -0.2866
@<TRIPOS>BOND
     1     4     3    2
     2     3     2    1
     3    41    40    2
     4     2     1    1
     5     2     5    1
     6    40    39    1
     7    13    14    1
     8    20    19    1
     9    20    21    1
    10     5     6    1
    11    18    19    1
    12    18    17    1
    13    14    17    1
    14    14    15    1
    15    39    38    1
    16    39    42    1
    17    28    27   ar
    18    38    32   am
    19    32    33    2
    20    32    31    1
    21     6     7   ar
    22     6     8   ar
    23    31    30    1
    24    31    34    1
    25    37    35    1
    26    22    15   am
    27    22    23    1
    28    29    27   ar
    29    30    24   am
    30    42    43    1
    31    27    26    1
    32    15    16    2
    33     7     9   ar
    34     8    10   ar
    35    34    35    1
    36    24    23    1
    37    24    25    2
    38    35    36    1
    39    23    26    1
    40    43    44    1
    41     9    11   ar
    42    10    11   ar
    43    11    12    1
    44    73    72    2
    45    44    45    1
    46    84    83    2
    47    72    71    1
    48    81    82    1
    49    74    71    1
    50    74    75    1
    51    83    82    1
    52    85    82    1
    53    85    86    1
    54    88    86   ar
    55    88    90   ar
    56    71    70    1
    57    75    76   ar
    58    75    77   ar
    59    86    87   ar
    60    90    91   ar
    61    76    78   ar
    62    77    79   ar
    63    78    80   ar
    64    87    89   ar
    65    91    89   ar
    66    91    92    1
    67    79    80   ar
    68    53    51   ar
    69    46    47    1
    70    47    50    1
    71    47    48    1
    72    50    51    1
    73    51    52   ar
    74    64    63    2
    75    48    49    2
    76    63    62    1
    77    65    62    1
    78    65    66    1
    79    62    61    1
    80    69    67   am
    81    68    67    2
    82    67    66    1
    83    59    58    1
    84    60    58    1
    85    54    55    1
    86    58    55    1
    87    55    56    1
    88    56    57    2
