@<TRIPOS>MOLECULE
tmp/5ho9B12.pdb
 133 132 0 0 0
SMALL
GASTEIGER

@<TRIPOS>ATOM
      1  N         -8.2690   35.8070  -19.0240 N.3    11  HIS11      -0.1226
      2  CA        -8.4860   37.2190  -18.7620 C.3    11  HIS11       0.1752
      3  C         -9.8520   37.4330  -18.1060 C.2    11  HIS11       0.2596
      4  O        -10.8380   36.7900  -18.4930 O.2    11  HIS11      -0.2718
      5  CB        -8.3790   38.0110  -20.0570 C.3    11  HIS11       0.0759
      6  CG        -7.7800   39.3680  -19.8920 C.ar   11  HIS11       0.0818
      7  ND1       -8.5430   40.5110  -19.7940 N.ar   11  HIS11      -0.2268
      8  CD2       -6.4900   39.7700  -19.8340 C.ar   11  HIS11       0.1154
      9  CE1       -7.7490   41.5620  -19.6880 C.ar   11  HIS11       0.1986
     10  NE2       -6.4980   41.1400  -19.7090 N.ar   11  HIS11      -0.2212
     11  N         -9.8910   38.3210  -17.1090 N.am   12  ASP12      -0.1974
     12  CA       -11.1280   38.6640  -16.4030 C.3    12  ASP12       0.1709
     13  C        -11.8540   37.4530  -15.8320 C.2    12  ASP12       0.2293
     14  O        -13.0460   37.2620  -16.1010 O.2    12  ASP12      -0.2864
     15  CB       -12.0610   39.4110  -17.3430 C.3    12  ASP12       0.1436
     16  CG       -11.3420   40.4850  -18.1130 C.2    12  ASP12       0.3671
     17  OD1      -10.5100   41.2000  -17.5090 O.co2  12  ASP12      -0.2456
     18  OD2      -11.5820   40.6080  -19.3260 O.co2  12  ASP12      -0.2456
     19  N        -13.0010   36.2270  -20.2310 N.3    27  SER27      -0.1202
     20  CA       -13.2090   36.7740  -21.5600 C.3    27  SER27       0.2020
     21  C        -12.6930   35.8740  -22.6690 C.2    27  SER27       0.2618
     22  O        -11.7780   35.0640  -22.4540 O.2    27  SER27      -0.2717
     23  CB       -12.5350   38.1310  -21.6800 C.3    27  SER27       0.2103
     24  OG       -13.2380   39.0920  -20.9390 O.3    27  SER27      -0.2182
     25  N        -13.2710   36.0500  -23.8580 N.am   28  HIS28      -0.1975
     26  CA       -12.8510   35.3370  -25.0600 C.3    28  HIS28       0.1656
     27  C        -13.0570   33.8450  -24.9320 C.2    28  HIS28       0.2291
     28  O        -12.2320   33.0550  -25.3960 O.2    28  HIS28      -0.2864
     29  CB       -11.4020   35.6270  -25.3620 C.3    28  HIS28       0.0771
     30  CG       -11.0640   37.0760  -25.2800 C.ar   28  HIS28       0.0820
     31  ND1      -11.5610   38.0050  -26.1690 N.ar   28  HIS28      -0.2267
     32  CD2      -10.2590   37.7570  -24.4350 C.ar   28  HIS28       0.1154
     33  CE1      -11.0860   39.1990  -25.8660 C.ar   28  HIS28       0.1986
     34  NE2      -10.3020   39.0750  -24.8120 N.ar   28  HIS28      -0.2212
     35  N        -17.0270   39.2570  -23.9620 N.3    83  TRP83      -0.1227
     36  CA       -16.2290   39.6850  -22.8110 C.3    83  TRP83       0.1737
     37  C        -16.8500   39.4080  -21.4490 C.2    83  TRP83       0.2595
     38  O        -18.0650   39.5170  -21.2780 O.2    83  TRP83      -0.2718
     39  CB       -15.9420   41.1820  -22.8820 C.3    83  TRP83       0.0564
     40  CG       -15.2370   41.6290  -24.1100 C.ar   83  TRP83       0.0003
     41  CD1      -14.5530   40.8530  -25.0050 C.ar   83  TRP83       0.0946
     42  CD2      -15.1480   42.9710  -24.5910 C.ar   83  TRP83       0.0152
     43  NE1      -14.0390   41.6380  -26.0100 N.ar   83  TRP83      -0.2442
     44  CE2      -14.3960   42.9400  -25.7800 C.ar   83  TRP83       0.0810
     45  CE3      -15.6350   44.1970  -24.1290 C.ar   83  TRP83       0.0012
     46  CZ2      -14.1190   44.0860  -26.5140 C.ar   83  TRP83       0.0191
     47  CZ3      -15.3610   45.3380  -24.8610 C.ar   83  TRP83       0.0001
     48  CH2      -14.6120   45.2730  -26.0420 C.ar   83  TRP83       0.0015
     49  N        -15.9820   39.0570  -20.4940 N.am   84  ALA84      -0.1980
     50  CA       -16.2590   39.1250  -19.0560 C.3    84  ALA84       0.1597
     51  C        -17.5930   38.5430  -18.6410 C.2    84  ALA84       0.2287
     52  O        -18.4920   39.2790  -18.2530 O.2    84  ALA84      -0.2864
     53  CB       -16.1760   40.5600  -18.5880 C.3    84  ALA84       0.0319
     54  N        -21.4160   46.2010  -20.3290 N.3   194  ILE194     -0.1231
     55  CA       -20.5490   45.0040  -20.2680 C.3   194  ILE194      0.1692
     56  C        -20.1730   44.5980  -18.8320 C.2   194  ILE194      0.2592
     57  O        -20.6720   45.1900  -17.8780 O.2   194  ILE194     -0.2718
     58  CB       -19.2460   45.2020  -21.1000 C.3   194  ILE194      0.0266
     59  CG1      -18.3410   46.2550  -20.4900 C.3   194  ILE194      0.0019
     60  CG2      -19.5620   45.6360  -22.5280 C.3   194  ILE194      0.0020
     61  CD1      -17.3500   46.8140  -21.4760 C.3   194  ILE194      0.0001
     62  N        -19.3030   43.5980  -18.6830 N.am  195  ASP195     -0.1974
     63  CA       -18.8210   43.1120  -17.3660 C.3   195  ASP195      0.1709
     64  C        -19.9190   42.7790  -16.3310 C.2   195  ASP195      0.2293
     65  O        -19.8890   43.2930  -15.2180 O.2   195  ASP195     -0.2864
     66  CB       -17.8660   44.1410  -16.7230 C.3   195  ASP195      0.1436
     67  CG       -16.4560   44.1400  -17.3310 C.2   195  ASP195      0.3671
     68  OD1      -16.2900   43.9650  -18.5630 O.co2 195  ASP195     -0.2456
     69  OD2      -15.4960   44.3390  -16.5560 O.co2 195  ASP195     -0.2456
     70  N        -14.3740   49.2000  -13.7270 N.3   261  GLU261     -0.1245
     71  CA       -15.0410   48.0780  -14.3530 C.3   261  GLU261      0.1567
     72  C        -14.7090   46.8050  -13.5920 C.2   261  GLU261      0.2260
     73  O        -13.9340   46.8350  -12.6420 O.2   261  GLU261     -0.2867
     74  CB       -14.6170   47.9510  -15.8030 C.3   261  GLU261      0.0388
     75  CG       -13.2050   47.3830  -16.0030 C.3   261  GLU261      0.1160
     76  CD       -12.7420   47.4480  -17.4700 C.2   261  GLU261      0.3649
     77  OE1      -13.5440   47.8460  -18.3360 O.co2 261  GLU261     -0.2457
     78  OE2      -11.5760   47.1180  -17.7670 O.co2 261  GLU261     -0.2457
     79  N         -6.6430   51.3740  -16.9580 N.3   282  TRP282     -0.1227
     80  CA        -6.5670   50.5770  -18.1700 C.3   282  TRP282      0.1737
     81  C         -5.8100   49.2590  -17.9480 C.2   282  TRP282      0.2595
     82  O         -4.7850   49.2180  -17.2700 O.2   282  TRP282     -0.2718
     83  CB        -5.9220   51.3930  -19.3020 C.3   282  TRP282      0.0564
     84  CG        -5.5690   50.5590  -20.4680 C.ar  282  TRP282      0.0003
     85  CD1       -4.3280   50.3450  -20.9600 C.ar  282  TRP282      0.0946
     86  CD2       -6.4610   49.7660  -21.2550 C.ar  282  TRP282      0.0152
     87  NE1       -4.3830   49.4840  -22.0190 N.ar  282  TRP282     -0.2442
     88  CE2       -5.6840   49.1130  -22.2250 C.ar  282  TRP282      0.0810
     89  CE3       -7.8420   49.5570  -21.2440 C.ar  282  TRP282      0.0012
     90  CZ2       -6.2400   48.2620  -23.1830 C.ar  282  TRP282      0.0191
     91  CZ3       -8.3910   48.7070  -22.1950 C.ar  282  TRP282      0.0001
     92  CH2       -7.5880   48.0700  -23.1470 C.ar  282  TRP282      0.0015
     93  N         -6.3320   48.1970  -18.5640 N.am  283  LEU283     -0.1980
     94  CA        -5.9580   46.8190  -18.2750 C.3   283  LEU283      0.1596
     95  C         -4.5520   46.4230  -18.7070 C.2   283  LEU283      0.2287
     96  O         -3.9300   45.5890  -18.0390 O.2   283  LEU283     -0.2864
     97  CB        -6.9810   45.8660  -18.9230 C.3   283  LEU283      0.0297
     98  CG        -7.0180   45.6710  -20.4550 C.3   283  LEU283      0.0022
     99  CD1       -6.1830   44.4870  -20.8830 C.3   283  LEU283      0.0001
    100  CD2       -8.4410   45.4710  -20.9090 C.3   283  LEU283      0.0001
    101  N         -3.8540   49.4350  -14.1970 N.3   289  TYR289     -0.1241
    102  CA        -4.9690   48.6520  -13.6730 C.3   289  TYR289      0.1605
    103  C         -4.7620   48.4120  -12.1500 C.2   289  TYR289      0.2264
    104  O         -3.6930   47.9500  -11.7400 O.2   289  TYR289     -0.2867
    105  CB        -5.0670   47.3270  -14.4530 C.3   289  TYR289      0.0534
    106  CG        -6.4590   46.8320  -14.8460 C.ar  289  TYR289     -0.0201
    107  CD1       -7.3810   47.7040  -15.4250 C.ar  289  TYR289     -0.0009
    108  CD2       -6.7950   45.4640  -14.7770 C.ar  289  TYR289     -0.0009
    109  CE1       -8.6230   47.2520  -15.8470 C.ar  289  TYR289      0.0417
    110  CE2       -8.0370   45.0040  -15.1960 C.ar  289  TYR289      0.0417
    111  CZ        -8.9430   45.9040  -15.7300 C.ar  289  TYR289      0.1957
    112  OH       -10.1740   45.4580  -16.1530 O.3   289  TYR289     -0.2866
    113  N         -9.5140   43.1310  -12.5410 N.3   352  HIS352     -0.1241
    114  CA       -10.7590   42.4790  -12.9090 C.3   352  HIS352      0.1621
    115  C        -10.9610   41.2090  -12.1110 C.2   352  HIS352      0.2264
    116  O        -10.8330   40.0960  -12.6360 O.2   352  HIS352     -0.2867
    117  CB       -10.8230   42.1600  -14.4030 C.3   352  HIS352      0.0745
    118  CG       -12.2230   41.9940  -14.9020 C.ar  352  HIS352      0.0817
    119  ND1      -13.0400   40.9580  -14.4920 N.ar  352  HIS352     -0.2268
    120  CD2      -12.9700   42.7630  -15.7280 C.ar  352  HIS352      0.1154
    121  CE1      -14.2210   41.0840  -15.0680 C.ar  352  HIS352      0.1986
    122  NE2      -14.2060   42.1720  -15.8200 N.ar  352  HIS352     -0.2212
    123  N         -0.6800   41.0120  -15.3370 N.3   371  ARG371     -0.1245
    124  CA         0.5160   41.0030  -16.1460 C.3   371  ARG371      0.1563
    125  C          1.7410   41.0230  -15.2250 C.2   371  ARG371      0.2260
    126  O          1.6090   41.0820  -14.0030 O.2   371  ARG371     -0.2867
    127  CB         0.4930   42.1820  -17.1060 C.3   371  ARG371      0.0307
    128  CG        -0.4160   41.9280  -18.2920 C.3   371  ARG371      0.0489
    129  CD        -1.1280   43.1690  -18.7640 C.3   371  ARG371      0.2205
    130  NE        -1.9710   42.8640  -19.9170 N.pl3 371  ARG371     -0.0865
    131  CZ        -3.1270   42.2090  -19.8500 C.cat 371  ARG371      0.5346
    132  NH1       -3.5990   41.7790  -18.6860 N.pl3 371  ARG371      0.1354
    133  NH2       -3.8210   41.9790  -20.9500 N.pl3 371  ARG371      0.1354
@<TRIPOS>BOND
     1    46    48   ar
     2    46    44   ar
     3    31    33   ar
     4    31    30   ar
     5    48    47   ar
     6    43    44   ar
     7    43    41   ar
     8    33    34   ar
     9    44    42   ar
    10    28    27    2
    11    29    30    1
    12    29    26    1
    13    30    32   ar
    14    26    27    1
    15    26    25    1
    16    41    40   ar
    17    47    45   ar
    18    34    32   ar
    19    42    45   ar
    20    42    40   ar
    21    40    39    1
    22    35    36    1
    23    25    21   am
    24    90    92   ar
    25    90    88   ar
    26    92    91   ar
    27    39    36    1
    28    36    37    1
    29    21    22    2
    30    21    20    1
    31    60    58    1
    32    88    87   ar
    33    88    86   ar
    34    91    89   ar
    35    87    85   ar
    36    23    20    1
    37    23    24    1
    38    20    19    1
    39    61    59    1
    40    37    38    2
    41    37    49   am
    42    86    89   ar
    43    86    84   ar
    44    58    59    1
    45    58    55    1
    46    85    84   ar
    47   133   131    1
    48   100    98    1
    49    99    98    1
    50    49    50    1
    51    84    83    1
    52    98    97    1
    53    54    55    1
    54    55    56    1
    55     5     6    1
    56     5     2    1
    57   130   131    2
    58   130   129    1
    59     6     8   ar
    60     6     7   ar
    61   131   132    1
    62     8    10   ar
    63     7     9   ar
    64    10     9   ar
    65    18    16   ar
    66    83    80    1
    67    50    51    1
    68    50    53    1
    69     1     2    1
    70    97    94    1
    71    56    62   am
    72    56    57    2
    73   129   128    1
    74     2     3    1
    75    95    94    1
    76    95    96    2
    77    62    63    1
    78    51    52    2
    79    93    94    1
    80    93    81   am
    81    68    67   ar
    82     4     3    2
    83    77    76   ar
    84   128   127    1
    85    80    81    1
    86    80    79    1
    87    16    17   ar
    88    16    15    1
    89     3    11   am
    90    81    82    2
    91    78    76   ar
    92    76    75    1
    93    63    66    1
    94    63    64    1
    95    15    12    1
    96    67    66    1
    97    67    69   ar
    98    11    12    1
    99   127   124    1
   100    12    13    1
   101    64    65    2
   102   112   111    1
   103   124   123    1
   104   124   125    1
   105    14    13    2
   106    75    74    1
   107   109   111   ar
   108   109   107   ar
   109   122   120   ar
   110   122   121   ar
   111    74    71    1
   112   111   110   ar
   113   120   118   ar
   114   107   106   ar
   115   125   126    2
   116   110   108   ar
   117   121   119   ar
   118   118   119   ar
   119   118   117    1
   120   106   108   ar
   121   106   105    1
   122   105   102    1
   123   117   114    1
   124    71    70    1
   125    71    72    1
   126   101   102    1
   127   102   103    1
   128    72    73    2
   129   114   113    1
   130   114   115    1
   131   116   115    2
   132   103   104    2
