@<TRIPOS>MOLECULE
tmp/5ho9B08.pdb
 91 86 0 0 0
SMALL
GASTEIGER

@<TRIPOS>ATOM
      1  N        -28.8120   36.3840  -31.4210 N.3    64  GLY64      -0.1225
      2  CA       -29.6450   37.4260  -30.8410 C.3    64  GLY64       0.1811
      3  C        -28.8450   38.6310  -30.3740 C.2    64  GLY64       0.2280
      4  O        -29.2480   39.7820  -30.5800 O.2    64  GLY64      -0.2866
      5  N        -26.6750   40.4050  -33.4340 N.3    67  LYS67      -0.1245
      6  CA       -27.4640   41.3760  -34.2070 C.3    67  LYS67       0.1561
      7  C        -27.1340   42.8180  -33.8160 C.2    67  LYS67       0.2260
      8  O        -27.3530   43.7550  -34.5940 O.2    67  LYS67      -0.2867
      9  CB       -28.9740   41.1690  -34.0090 C.3    67  LYS67       0.0271
     10  CG       -29.5420   39.7970  -34.3440 C.3    67  LYS67       0.0035
     11  CD       -31.0060   39.8830  -34.8320 C.3    67  LYS67       0.0206
     12  CE       -31.8820   40.7490  -33.9140 C.3    67  LYS67       0.1093
     13  NZ       -33.3330   40.7890  -34.3100 N.3    67  LYS67      -0.1314
     14  N        -28.3570   29.9250  -25.6720 N.3   132  TYR132     -0.1241
     15  CA       -28.8710   31.2900  -25.5730 C.3   132  TYR132      0.1605
     16  C        -30.3020   31.3670  -25.0460 C.2   132  TYR132      0.2264
     17  O        -31.0760   30.4220  -25.1850 O.2   132  TYR132     -0.2867
     18  CB       -28.7890   31.9400  -26.9440 C.3   132  TYR132      0.0534
     19  CG       -29.3870   33.3210  -27.0820 C.ar  132  TYR132     -0.0201
     20  CD1      -30.7210   33.4970  -27.4290 C.ar  132  TYR132     -0.0009
     21  CD2      -28.5970   34.4530  -26.9330 C.ar  132  TYR132     -0.0009
     22  CE1      -31.2590   34.7650  -27.5860 C.ar  132  TYR132      0.0417
     23  CE2      -29.1260   35.7270  -27.0940 C.ar  132  TYR132      0.0417
     24  CZ       -30.4570   35.8760  -27.4180 C.ar  132  TYR132      0.1957
     25  OH       -30.9770   37.1410  -27.5780 O.3   132  TYR132     -0.2866
     26  N        -31.7500   35.1180  -23.9650 N.3   134  ASP134     -0.1225
     27  CA       -32.1510   36.4630  -24.3510 C.3   134  ASP134      0.1805
     28  C        -30.9780   37.4400  -24.2990 C.2   134  ASP134      0.2598
     29  O        -29.8870   37.0860  -23.8550 O.2   134  ASP134     -0.2718
     30  CB       -33.2980   36.9460  -23.4580 C.3   134  ASP134      0.1424
     31  CG       -34.1200   38.0510  -24.1050 C.2   134  ASP134      0.3668
     32  OD1      -33.9460   38.2830  -25.3200 O.co2 134  ASP134     -0.2456
     33  OD2      -34.9510   38.6790  -23.4100 O.co2 134  ASP134     -0.2456
     34  N        -31.2120   38.6520  -24.8010 N.am  135  THR135     -0.1953
     35  CA       -30.3010   39.7880  -24.6700 C.3   135  THR135      0.1897
     36  C        -31.0810   40.8400  -23.8800 C.2   135  THR135      0.2313
     37  O        -32.1840   41.2170  -24.2870 O.2   135  THR135     -0.2863
     38  CB       -29.8320   40.3320  -26.0550 C.3   135  THR135      0.1794
     39  OG1      -29.1140   39.3060  -26.7430 O.3   135  THR135     -0.2208
     40  CG2      -28.9170   41.5400  -25.9180 C.3   135  THR135      0.0378
     41  N        -28.7690   46.9880  -23.2650 N.3   138  TYR138     -0.1241
     42  CA       -28.0920   47.5180  -24.4380 C.3   138  TYR138      0.1605
     43  C        -27.5250   48.9050  -24.1530 C.2   138  TYR138      0.2264
     44  O        -28.2180   49.7470  -23.5850 O.2   138  TYR138     -0.2867
     45  CB       -29.0590   47.6210  -25.6480 C.3   138  TYR138      0.0534
     46  CG       -29.6220   46.3270  -26.2410 C.ar  138  TYR138     -0.0201
     47  CD1      -30.4370   45.4730  -25.4850 C.ar  138  TYR138     -0.0009
     48  CD2      -29.3830   45.9880  -27.5840 C.ar  138  TYR138     -0.0009
     49  CE1      -30.9700   44.3020  -26.0390 C.ar  138  TYR138      0.0417
     50  CE2      -29.9120   44.8300  -28.1480 C.ar  138  TYR138      0.0417
     51  CZ       -30.7050   43.9920  -27.3750 C.ar  138  TYR138      0.1957
     52  OH       -31.2260   42.8370  -27.9190 O.3   138  TYR138     -0.2866
     53  N        -34.5920   51.6180  -31.5120 N.3   158  THR158     -0.1203
     54  CA       -35.7010   50.7690  -31.9150 C.3   158  THR158      0.1994
     55  C        -35.2400   49.3720  -32.2820 C.2   158  THR158      0.2618
     56  O        -36.0630   48.4800  -32.4790 O.2   158  THR158     -0.2717
     57  CB       -36.4450   51.3840  -33.0940 C.3   158  THR158      0.1784
     58  OG1      -35.4970   51.9660  -34.0010 O.3   158  THR158     -0.2211
     59  CG2      -37.3550   52.4810  -32.6030 C.3   158  THR158      0.0376
     60  N        -33.9250   49.1840  -32.3700 N.am  159  ASN159     -0.1960
     61  CA       -33.3690   47.8870  -32.7380 C.3   159  ASN159      0.1819
     62  C        -32.9260   47.0900  -31.5260 C.2   159  ASN159      0.2622
     63  O        -32.3260   46.0130  -31.6600 O.2   159  ASN159     -0.2715
     64  CB       -32.2020   48.0620  -33.7020 C.3   159  ASN159      0.1195
     65  CG       -32.6270   48.6860  -35.0110 C.2   159  ASN159      0.2630
     66  OD1      -32.0570   49.6900  -35.4490 O.2   159  ASN159     -0.2716
     67  ND2      -33.6540   48.1090  -35.6360 N.am  159  ASN159     -0.0877
     68  N        -33.2450   47.6280  -30.3480 N.am  160  THR160     -0.1937
     69  CA       -32.9110   47.0110  -29.0610 C.3   160  THR160      0.2028
     70  C        -34.1200   46.2640  -28.5120 C.2   160  THR160      0.2642
     71  O        -35.1180   46.0600  -29.2180 O.2   160  THR160     -0.2714
     72  CB       -32.4640   48.0570  -28.0350 C.3   160  THR160      0.1808
     73  OG1      -33.4950   49.0320  -27.8920 O.3   160  THR160     -0.2208
     74  CG2      -31.2150   48.7640  -28.4990 C.3   160  THR160      0.0379
     75  N        -34.0530   45.8590  -27.2520 N.am  161  ASN161     -0.1971
     76  CA       -35.2160   45.2180  -26.6560 C.3   161  ASN161      0.1688
     77  C        -36.1270   46.2550  -26.0170 C.2   161  ASN161      0.2292
     78  O        -37.1440   45.9150  -25.4230 O.2   161  ASN161     -0.2864
     79  CB       -34.8000   44.1450  -25.6390 C.3   161  ASN161      0.1181
     80  CG       -34.0380   44.7120  -24.4410 C.2   161  ASN161      0.2629
     81  OD1      -33.6360   45.8810  -24.4180 O.2   161  ASN161     -0.2716
     82  ND2      -33.8240   43.8620  -23.4420 N.am  161  ASN161     -0.0877
     83  N        -40.0090   46.5610  -27.2350 N.3   164  LYS164     -0.1245
     84  CA       -40.7980   45.4460  -26.7200 C.3   164  LYS164      0.1561
     85  C        -41.1760   45.6840  -25.2600 C.2   164  LYS164      0.2260
     86  O        -42.2870   45.3540  -24.8370 O.2   164  LYS164     -0.2867
     87  CB       -40.0430   44.1190  -26.8550 C.3   164  LYS164      0.0271
     88  CG       -40.7500   42.9470  -26.1710 C.3   164  LYS164      0.0035
     89  CD       -39.9650   41.6400  -26.2870 C.3   164  LYS164      0.0206
     90  CE       -38.5800   41.7510  -25.6360 C.3   164  LYS164      0.1093
     91  NZ       -37.7110   40.5410  -25.8450 N.3   164  LYS164     -0.1314
@<TRIPOS>BOND
     1    67    65   am
     2    66    65    2
     3    65    64    1
     4    11    10    1
     5    11    12    1
     6     8     7    2
     7    10     9    1
     8    13    12    1
     9     6     9    1
    10     6     7    1
    11     6     5    1
    12    58    57    1
    13    64    61    1
    14    57    59    1
    15    57    54    1
    16    61    60    1
    17    61    62    1
    18    56    55    2
    19    60    55   am
    20    55    54    1
    21    54    53    1
    22    63    62    2
    23    62    68   am
    24     1     2    1
    25     2     3    1
    26     4     3    2
    27    68    69    1
    28    71    70    2
    29    69    70    1
    30    69    72    1
    31    70    75   am
    32    74    72    1
    33    50    48   ar
    34    50    51   ar
    35    72    73    1
    36    52    51    1
    37    22    20   ar
    38    22    24   ar
    39    48    46   ar
    40    25    24    1
    41    20    19   ar
    42    24    23   ar
    43    51    49   ar
    44    75    76    1
    45    83    84    1
    46    23    21   ar
    47    19    18    1
    48    19    21   ar
    49    18    15    1
    50    87    84    1
    51    87    88    1
    52    39    38    1
    53    84    85    1
    54    76    77    1
    55    76    79    1
    56    89    88    1
    57    89    90    1
    58    46    45    1
    59    46    47   ar
    60    38    40    1
    61    38    35    1
    62    49    47   ar
    63    77    78    2
    64    91    90    1
    65    14    15    1
    66    45    42    1
    67    79    80    1
    68    15    16    1
    69    32    31   ar
    70    85    86    2
    71    17    16    2
    72    34    35    1
    73    34    28   am
    74    35    36    1
    75    80    81    2
    76    80    82   am
    77    42    43    1
    78    42    41    1
    79    27    28    1
    80    27    26    1
    81    27    30    1
    82    28    29    2
    83    37    36    2
    84    43    44    2
    85    31    30    1
    86    31    33   ar
