@<TRIPOS>MOLECULE
tmp/5ho9B09.pdb
 80 77 0 0 0
SMALL
GASTEIGER

@<TRIPOS>ATOM
      1  N        -34.4500   58.9700   -7.9930 N.3   237  LYS237     -0.1245
      2  CA       -33.2150   58.8880   -7.2100 C.3   237  LYS237      0.1561
      3  C        -33.3040   57.9750   -6.0020 C.2   237  LYS237      0.2260
      4  O        -34.3890   57.6950   -5.4990 O.2   237  LYS237     -0.2867
      5  CB       -32.7980   60.2880   -6.7930 C.3   237  LYS237      0.0271
      6  CG       -32.0520   60.9290   -7.9270 C.3   237  LYS237      0.0035
      7  CD       -31.8990   62.4180   -7.8220 C.3   237  LYS237      0.0206
      8  CE       -30.9570   62.9240   -8.9320 C.3   237  LYS237      0.1093
      9  NZ       -29.7060   62.1210   -8.9730 N.3   237  LYS237     -0.1314
     10  N        -30.4180   58.5800   -0.8910 N.3   240  ASP240     -0.1225
     11  CA       -29.2060   59.3760   -0.7200 C.3   240  ASP240      0.1805
     12  C        -28.6670   60.0920   -1.9800 C.2   240  ASP240      0.2598
     13  O        -27.5590   60.6240   -1.9530 O.2   240  ASP240     -0.2718
     14  CB       -28.1220   58.4820   -0.1720 C.3   240  ASP240      0.1424
     15  CG       -27.7800   57.3780   -1.1180 C.2   240  ASP240      0.3668
     16  OD1      -28.5830   56.4310   -1.2340 O.co2 240  ASP240     -0.2456
     17  OD2      -26.7140   57.4640   -1.7540 O.co2 240  ASP240     -0.2456
     18  N        -29.4180   60.0970   -3.0820 N.am  241  GLY241     -0.1942
     19  CA       -29.1340   61.0310   -4.1690 C.3   241  GLY241      0.2014
     20  C        -28.5570   60.4850   -5.4650 C.2   241  GLY241      0.2639
     21  O        -28.3280   61.2270   -6.4250 O.2   241  GLY241     -0.2714
     22  N        -28.3360   59.1790   -5.4950 N.am  242  ARG242     -0.1963
     23  CA       -27.7580   58.5160   -6.6530 C.3   242  ARG242      0.1729
     24  C        -28.7840   58.2650   -7.7770 C.2   242  ARG242      0.2616
     25  O        -29.9270   57.9000   -7.5080 O.2   242  ARG242     -0.2715
     26  CB       -27.1120   57.2040   -6.2020 C.3   242  ARG242      0.0348
     27  CG       -25.7690   57.4000   -5.5230 C.3   242  ARG242      0.0492
     28  CD       -25.6020   56.4350   -4.3970 C.3   242  ARG242      0.2205
     29  NE       -25.9810   55.0740   -4.7510 N.pl3 242  ARG242     -0.0865
     30  CZ       -26.7820   54.2950   -4.0260 C.cat 242  ARG242      0.5346
     31  NH1      -27.3310   54.7370   -2.9040 N.pl3 242  ARG242      0.1354
     32  NH2      -27.0430   53.0660   -4.4400 N.pl3 242  ARG242      0.1354
     33  N        -28.3650   58.4570   -9.0320 N.am  243  LEU243     -0.1977
     34  CA       -29.2600   58.3070  -10.1830 C.3   243  LEU243      0.1596
     35  C        -29.8600   56.8990  -10.2960 C.2   243  LEU243      0.2287
     36  O        -29.1480   55.8950  -10.1890 O.2   243  LEU243     -0.2864
     37  CB       -28.5260   58.6650  -11.4880 C.3   243  LEU243      0.0297
     38  CG       -29.3080   58.6290  -12.8150 C.3   243  LEU243      0.0022
     39  CD1      -28.9340   59.8090  -13.6800 C.3   243  LEU243      0.0001
     40  CD2      -29.0440   57.3490  -13.5690 C.3   243  LEU243      0.0001
     41  N        -19.1200   60.0020  -14.9530 N.3   256  TYR256     -0.1241
     42  CA       -18.4170   61.0300  -15.7090 C.3   256  TYR256      0.1605
     43  C        -17.1700   60.5180  -16.4540 C.2   256  TYR256      0.2264
     44  O        -16.0670   61.0540  -16.3200 O.2   256  TYR256     -0.2867
     45  CB       -18.0920   62.1810  -14.7630 C.3   256  TYR256      0.0534
     46  CG       -19.3700   62.7340  -14.1360 C.ar  256  TYR256     -0.0201
     47  CD1      -19.9090   62.1720  -12.9740 C.ar  256  TYR256     -0.0009
     48  CD2      -20.0610   63.7860  -14.7320 C.ar  256  TYR256     -0.0009
     49  CE1      -21.0810   62.6560  -12.4140 C.ar  256  TYR256      0.0417
     50  CE2      -21.2380   64.2760  -14.1810 C.ar  256  TYR256      0.0417
     51  CZ       -21.7450   63.7110  -13.0220 C.ar  256  TYR256      0.1957
     52  OH       -22.9170   64.2030  -12.4830 O.3   256  TYR256     -0.2866
     53  N        -18.0190   57.9160   -1.0460 N.3   310  SER310     -0.1217
     54  CA       -18.8930   57.0960   -1.8830 C.3   310  SER310      0.1889
     55  C        -18.2450   56.6850   -3.2140 C.2   310  SER310      0.2288
     56  O        -17.5010   57.4550   -3.8240 O.2   310  SER310     -0.2866
     57  CB       -20.2030   57.8430   -2.1580 C.3   310  SER310      0.2089
     58  OG       -21.0650   57.1130   -3.0370 O.3   310  SER310     -0.2183
     59  N        -19.7320   56.4480   -5.9740 N.3   312  VAL312     -0.1231
     60  CA       -20.2920   57.2630   -7.0510 C.3   312  VAL312      0.1692
     61  C        -19.7160   58.6970   -7.0680 C.2   312  VAL312      0.2592
     62  O        -19.9870   59.5100   -6.1720 O.2   312  VAL312     -0.2718
     63  CB       -21.8440   57.3070   -6.9520 C.3   312  VAL312      0.0266
     64  CG1      -22.4270   58.2000   -8.0200 C.3   312  VAL312      0.0020
     65  CG2      -22.4390   55.8920   -7.0260 C.3   312  VAL312      0.0020
     66  N        -18.9320   59.0030   -8.0980 N.am  313  LEU313     -0.1966
     67  CA       -18.1860   60.2680   -8.1610 C.3   313  LEU313      0.1713
     68  C        -19.0770   61.5150   -8.2130 C.2   313  LEU313      0.2458
     69  O        -20.1440   61.4910   -8.8250 O.2   313  LEU313     -0.2730
     70  CB       -17.2500   60.2540   -9.3730 C.3   313  LEU313      0.0310
     71  CG       -16.3680   59.0080   -9.4920 C.3   313  LEU313      0.0022
     72  CD1      -15.6420   58.9920  -10.8150 C.3   313  LEU313      0.0001
     73  CD2      -15.3740   58.9060   -8.3430 C.3   313  LEU313      0.0001
     74  N        -18.6390   62.6130   -7.5660 N.am  314  PRO314     -0.2727
     75  CA       -19.4070   63.8690   -7.5470 C.3   314  PRO314      0.1402
     76  C        -19.4660   64.5430   -8.8970 C.2   314  PRO314      0.2269
     77  O        -20.2810   65.4410   -9.0930 O.2   314  PRO314     -0.2865
     78  CB       -18.6380   64.7550   -6.5550 C.3   314  PRO314      0.0296
     79  CG       -17.2740   64.1920   -6.5030 C.3   314  PRO314      0.0237
     80  CD       -17.4360   62.6960   -6.7190 C.3   314  PRO314      0.0939
@<TRIPOS>BOND
     1    43    44    2
     2    43    42    1
     3    42    41    1
     4    42    45    1
     5    45    46    1
     6    48    50   ar
     7    48    46   ar
     8    50    51   ar
     9    46    47   ar
    10    39    38    1
    11    40    38    1
    12    51    52    1
    13    51    49   ar
    14    47    49   ar
    15    38    37    1
    16    37    34    1
    17    72    71    1
    18    35    36    2
    19    35    34    1
    20    34    33    1
    21    71    70    1
    22    71    73    1
    23    70    67    1
    24    77    76    2
    25    33    24   am
    26     9     8    1
    27     8     7    1
    28    76    75    1
    29    69    68    2
    30    68    67    1
    31    68    74   am
    32    67    66    1
    33    66    61   am
    34    64    63    1
    35     1     2    1
    36     6     7    1
    37     6     5    1
    38    24    25    2
    39    24    23    1
    40    74    75    1
    41    74    80    1
    42    75    78    1
    43     2     5    1
    44     2     3    1
    45    61    60    1
    46    61    62    2
    47    60    63    1
    48    60    59    1
    49    65    63    1
    50    80    79    1
    51    23    26    1
    52    23    22    1
    53    78    79    1
    54    21    20    2
    55    26    27    1
    56     3     4    2
    57    27    28    1
    58    22    20   am
    59    20    19    1
    60    29    28    1
    61    29    30    2
    62    32    30    1
    63    19    18    1
    64    30    31    1
    65    56    55    2
    66    55    54    1
    67    18    12   am
    68    58    57    1
    69    57    54    1
    70    12    13    2
    71    12    11    1
    72    54    53    1
    73    17    15   ar
    74    16    15   ar
    75    15    14    1
    76    10    11    1
    77    11    14    1
