@<TRIPOS>MOLECULE
tmp/5hoaA00.pdb
 156 148 0 0 0
SMALL
GASTEIGER

@<TRIPOS>ATOM
      1  N         17.4130  -15.8880   51.2450 N.3     7  VAL7       -0.1245
      2  CA        18.6700  -15.7420   51.9800 C.3     7  VAL7        0.1561
      3  C         19.2240  -17.1310   52.3880 C.2     7  VAL7        0.2260
      4  O         18.4760  -17.9720   52.8830 O.2     7  VAL7       -0.2867
      5  CB        18.5060  -14.7990   53.2170 C.3     7  VAL7        0.0252
      6  CG1       19.7040  -13.8750   53.3360 C.3     7  VAL7        0.0019
      7  CG2       17.2240  -13.9640   53.1220 C.3     7  VAL7        0.0019
      8  N         25.6450  -14.9160   55.0290 N.3    17  ALA17      -0.1245
      9  CA        24.2870  -15.1070   54.5020 C.3    17  ALA17       0.1562
     10  C         24.2190  -14.5320   53.0840 C.2    17  ALA17       0.2260
     11  O         25.0180  -13.6660   52.7290 O.2    17  ALA17      -0.2867
     12  CB        23.2490  -14.4440   55.3960 C.3    17  ALA17       0.0290
     13  N         21.3480  -13.3900   49.8530 N.3    19  LYS19      -0.1245
     14  CA        20.0260  -13.2480   49.2300 C.3    19  LYS19       0.1561
     15  C         20.1760  -13.2360   47.7090 C.2    19  LYS19       0.2260
     16  O         21.2800  -13.4340   47.1900 O.2    19  LYS19      -0.2867
     17  CB        19.2950  -11.9870   49.7110 C.3    19  LYS19       0.0271
     18  CG        17.7940  -12.0260   49.4440 C.3    19  LYS19       0.0035
     19  CD        17.1180  -10.6800   49.6560 C.3    19  LYS19       0.0206
     20  CE        15.6050  -10.8030   49.4700 C.3    19  LYS19       0.1093
     21  NZ        14.8420   -9.5560   49.8050 N.3    19  LYS19      -0.1314
     22  N         24.9450   -2.6900   58.7120 N.3    37  LEU37      -0.1245
     23  CA        25.1850   -4.0090   58.1030 C.3    37  LEU37       0.1561
     24  C         26.0590   -3.9160   56.8350 C.2    37  LEU37       0.2260
     25  O         25.7410   -3.1880   55.9000 O.2    37  LEU37      -0.2867
     26  CB        23.8670   -4.7530   57.8150 C.3    37  LEU37       0.0270
     27  CG        24.0230   -6.1970   57.3110 C.3    37  LEU37       0.0019
     28  CD1       24.8300   -7.0360   58.2870 C.3    37  LEU37       0.0001
     29  CD2       22.6960   -6.8730   56.9950 C.3    37  LEU37       0.0001
     30  N         26.0750  -10.9640   52.6500 N.3    43  LEU43      -0.1231
     31  CA        26.1560  -10.1350   53.8450 C.3    43  LEU43       0.1678
     32  C         26.6530  -11.0020   55.0080 C.2    43  LEU43       0.2434
     33  O         26.3980  -12.2180   55.0030 O.2    43  LEU43      -0.2733
     34  CB        24.7520   -9.6640   54.1840 C.3    43  LEU43       0.0284
     35  CG        23.8340   -9.3910   52.9980 C.3    43  LEU43       0.0019
     36  CD1       22.3940   -9.7670   53.3170 C.3    43  LEU43       0.0001
     37  CD2       23.9530   -7.9560   52.5980 C.3    43  LEU43       0.0001
     38  N         27.3200  -10.3900   56.0280 N.am   44  PRO44      -0.2718
     39  CA        27.7650  -11.2140   57.1610 C.3    44  PRO44       0.1535
     40  C         26.5820  -11.9140   57.8130 C.2    44  PRO44       0.2599
     41  O         25.4650  -11.4190   57.7480 O.2    44  PRO44      -0.2715
     42  CB        28.3930  -10.2060   58.1280 C.3    44  PRO44       0.0310
     43  CG        28.6820   -8.9930   57.3070 C.3    44  PRO44       0.0237
     44  CD        27.6630   -8.9650   56.2140 C.3    44  PRO44       0.0939
     45  N         26.8290  -13.0890   58.3910 N.am   45  TYR45      -0.1960
     46  CA        25.7930  -13.7830   59.1370 C.3    45  TYR45       0.1771
     47  C         25.6300  -13.0700   60.4770 C.2    45  TYR45       0.2619
     48  O         26.6270  -12.7270   61.1330 O.2    45  TYR45      -0.2715
     49  CB        26.1200  -15.2750   59.3400 C.3    45  TYR45       0.0574
     50  CG        24.9570  -16.0540   59.9020 C.ar   45  TYR45      -0.0198
     51  CD1       23.7690  -16.1520   59.1920 C.ar   45  TYR45      -0.0009
     52  CD2       25.0340  -16.6750   61.1510 C.ar   45  TYR45      -0.0009
     53  CE1       22.6900  -16.8430   59.6940 C.ar   45  TYR45       0.0417
     54  CE2       23.9470  -17.3680   61.6720 C.ar   45  TYR45       0.0417
     55  CZ        22.7740  -17.4410   60.9310 C.ar   45  TYR45       0.1957
     56  OH        21.6700  -18.1340   61.4040 O.3    45  TYR45      -0.2866
     57  N         24.3800  -12.8220   60.8520 N.am   46  MET46      -0.1963
     58  CA        24.0540  -12.1970   62.1430 C.3    46  MET46       0.1736
     59  C         23.5040  -13.2760   63.0250 C.2    46  MET46       0.2616
     60  O         22.3640  -13.6810   62.8460 O.2    46  MET46      -0.2715
     61  CB        23.0310  -11.0720   61.9460 C.3    46  MET46       0.0427
     62  CG        23.5300   -9.9440   61.0350 C.3    46  MET46       0.0599
     63  SD        24.7420   -8.8730   61.8350 S.3    46  MET46      -0.1393
     64  CE        26.3060   -9.3590   61.1390 C.3    46  MET46       0.0692
     65  N         24.3240  -13.7610   63.9510 N.am   47  LYS47      -0.1963
     66  CA        23.9890  -14.9160   64.8190 C.3    47  LYS47       0.1728
     67  C         22.6110  -14.8220   65.4410 C.2    47  LYS47       0.2616
     68  O         21.8620  -15.8070   65.4640 O.2    47  LYS47      -0.2715
     69  CB        25.0340  -15.0740   65.9360 C.3    47  LYS47       0.0311
     70  CG        24.8090  -16.2740   66.8860 C.3    47  LYS47       0.0038
     71  CD        25.9340  -16.4040   67.9320 C.3    47  LYS47       0.0206
     72  CE        25.6160  -17.4700   68.9990 C.3    47  LYS47       0.1093
     73  NZ        26.4150  -17.3630   70.2780 N.3    47  LYS47      -0.1314
     74  N         22.2920  -13.6250   65.9460 N.am   48  HIS48      -0.1959
     75  CA        21.0690  -13.4050   66.6900 C.3    48  HIS48       0.1787
     76  C         19.8790  -12.8910   65.8670 C.2    48  HIS48       0.2621
     77  O         18.7790  -12.8120   66.3790 O.2    48  HIS48      -0.2715
     78  CB        21.3690  -12.5770   67.9390 C.3    48  HIS48       0.0785
     79  CG        22.1780  -13.3350   68.9400 C.ar   48  HIS48       0.0821
     80  ND1       23.4490  -12.9570   69.3280 N.ar   48  HIS48      -0.2267
     81  CD2       21.9210  -14.5050   69.5700 C.ar   48  HIS48       0.1154
     82  CE1       23.9170  -13.8470   70.1860 C.ar   48  HIS48       0.1986
     83  NE2       23.0100  -14.7950   70.3470 N.ar   48  HIS48      -0.2212
     84  N         20.0940  -12.5930   64.5890 N.am   49  GLY49      -0.1940
     85  CA        18.9890  -12.2710   63.6790 C.3    49  GLY49       0.2014
     86  C         18.3930  -10.9050   63.9340 C.2    49  GLY49       0.2638
     87  O         19.0900  -10.0200   64.3840 O.2    49  GLY49      -0.2714
     88  N         17.1000  -10.7270   63.6780 N.am   50  ASP50      -0.1971
     89  CA        16.5050   -9.4010   63.8500 C.3    50  ASP50       0.1709
     90  C         16.2600   -8.9050   65.3050 C.2    50  ASP50       0.2293
     91  O         15.8940   -9.6640   66.2190 O.2    50  ASP50      -0.2864
     92  CB        15.2740   -9.2210   62.9570 C.3    50  ASP50       0.1436
     93  CG        14.0300   -9.7620   63.5690 C.2    50  ASP50       0.3671
     94  OD1       13.8760  -10.9970   63.5940 O.co2  50  ASP50      -0.2456
     95  OD2       13.1780   -8.9640   64.0040 O.co2  50  ASP50      -0.2456
     96  N         12.5770   -9.7600   66.9130 N.3    53  ASN53      -0.1240
     97  CA        12.4400  -11.1360   67.3830 C.3    53  ASN53       0.1653
     98  C         13.2840  -11.4270   68.6240 C.2    53  ASN53       0.2266
     99  O         12.8380  -12.1520   69.5100 O.2    53  ASN53      -0.2867
    100  CB        12.7340  -12.1640   66.2690 C.3    53  ASN53       0.1155
    101  CG        11.5950  -12.2770   65.2490 C.2    53  ASN53       0.2627
    102  OD1       11.8450  -12.4160   64.0450 O.2    53  ASN53      -0.2716
    103  ND2       10.3360  -12.2030   65.7220 N.am   53  ASN53      -0.0877
    104  N         11.7240  -12.4970   72.3420 N.3    57  ASN57      -0.1240
    105  CA        12.0730  -13.8220   72.8270 C.3    57  ASN57       0.1653
    106  C         11.9380  -13.8440   74.3090 C.2    57  ASN57       0.2266
    107  O         12.6600  -13.1640   75.0360 O.2    57  ASN57      -0.2867
    108  CB        13.4970  -14.1970   72.4220 C.3    57  ASN57       0.1155
    109  CG        13.7650  -15.6850   72.5110 C.2    57  ASN57       0.2627
    110  OD1       13.3340  -16.3730   73.4430 O.2    57  ASN57      -0.2716
    111  ND2       14.4820  -16.1930   71.5220 N.am   57  ASN57      -0.0877
    112  N         12.4480   -4.5040   63.2120 N.3    94  ARG94      -0.1231
    113  CA        12.5050   -5.6240   62.2290 C.3    94  ARG94       0.1694
    114  C         13.6670   -5.5420   61.2440 C.2    94  ARG94       0.2592
    115  O         14.0840   -6.5560   60.6970 O.2    94  ARG94      -0.2718
    116  CB        11.1690   -5.8230   61.4580 C.3    94  ARG94       0.0321
    117  CG        10.7930   -4.7120   60.4740 C.3    94  ARG94       0.0489
    118  CD         9.3200   -4.8070   59.9620 C.3    94  ARG94       0.2205
    119  NE         8.6200   -3.5080   60.0340 N.pl3  94  ARG94      -0.0865
    120  CZ         8.8050   -2.5170   59.1740 C.cat  94  ARG94       0.5346
    121  NH1        9.6550   -2.6750   58.1560 N.pl3  94  ARG94       0.1354
    122  NH2        8.1410   -1.3780   59.3070 N.pl3  94  ARG94       0.1354
    123  N         14.1800   -4.3310   61.0310 N.am   95  ASN95      -0.1974
    124  CA        15.2240   -4.0360   60.0400 C.3    95  ASN95       0.1688
    125  C         16.5970   -3.7820   60.6340 C.2    95  ASN95       0.2292
    126  O         17.4910   -3.2740   59.9770 O.2    95  ASN95      -0.2864
    127  CB        14.7680   -2.8780   59.1240 C.3    95  ASN95       0.1181
    128  CG        13.5480   -3.2660   58.2870 C.2    95  ASN95       0.2629
    129  OD1       13.4040   -4.4360   57.8970 O.2    95  ASN95      -0.2716
    130  ND2       12.6700   -2.3110   58.0170 N.am   95  ASN95      -0.0877
    131  N         19.7530   -5.6950   62.9210 N.3    97  MET97      -0.1245
    132  CA        20.2630   -7.0470   63.2090 C.3    97  MET97       0.1570
    133  C         21.2570   -7.0350   64.3540 C.2    97  MET97       0.2261
    134  O         21.8430   -6.0030   64.6660 O.2    97  MET97      -0.2867
    135  CB        20.9320   -7.6880   61.9860 C.3    97  MET97       0.0387
    136  CG        20.2000   -7.5220   60.6960 C.3    97  MET97       0.0595
    137  SD        19.3580   -9.0340   60.2090 S.3    97  MET97      -0.1393
    138  CE        17.7360   -8.6660   60.8130 C.3    97  MET97       0.0692
    139  N         20.0720   -2.4570   59.0700 N.3   107  ALA107     -0.1231
    140  CA        20.0550   -3.2090   57.8380 C.3   107  ALA107      0.1694
    141  C         18.8630   -2.7610   57.0150 C.2   107  ALA107      0.2592
    142  O         18.4280   -1.5980   57.1410 O.2   107  ALA107     -0.2718
    143  CB        19.9870   -4.7120   58.1500 C.3   107  ALA107      0.0304
    144  N         18.3340   -3.6910   56.2060 N.am  108  ASP108     -0.1974
    145  CA        17.2410   -3.4630   55.2470 C.3   108  ASP108      0.1709
    146  C         17.4640   -2.2110   54.4120 C.2   108  ASP108      0.2293
    147  O         16.5630   -1.3980   54.2370 O.2   108  ASP108     -0.2864
    148  CB        15.8770   -3.4310   55.9500 C.3   108  ASP108      0.1436
    149  CG        14.6950   -3.3610   54.9750 C.2   108  ASP108      0.3671
    150  OD1       14.2030   -4.4300   54.5400 O.co2 108  ASP108     -0.2456
    151  OD2       14.2400   -2.2360   54.6590 O.co2 108  ASP108     -0.2456
    152  N         19.4860   -5.3400   49.8230 N.3   112  ALA112     -0.1245
    153  CA        18.7800   -6.1440   50.8240 C.3   112  ALA112      0.1562
    154  C         17.3780   -5.6080   51.1480 C.2   112  ALA112      0.2260
    155  O         16.5860   -6.3010   51.7850 O.2   112  ALA112     -0.2867
    156  CB        19.6220   -6.2570   52.0860 C.3   112  ALA112      0.0290
@<TRIPOS>BOND
     1    16    15    2
     2    15    14    1
     3    14    17    1
     4    14    13    1
     5    18    19    1
     6    18    17    1
     7    20    19    1
     8    20    21    1
     9   152   153    1
    10   153   154    1
    11   153   156    1
    12   154   155    2
    13     1     2    1
    14     2     3    1
    15     2     5    1
    16     3     4    2
    17    37    35    1
    18    30    31    1
    19    11    10    2
    20    35    36    1
    21    35    34    1
    22    10     9    1
    23     7     5    1
    24     5     6    1
    25    31    34    1
    26    31    32    1
    27   147   146    2
    28   146   145    1
    29     9     8    1
    30     9    12    1
    31   150   149   ar
    32   151   149   ar
    33   149   148    1
    34    33    32    2
    35    32    38   am
    36   145   148    1
    37   145   144    1
    38    25    24    2
    39    38    44    1
    40    38    39    1
    41   144   141   am
    42    44    43    1
    43    24    23    1
    44    29    27    1
    45   141   142    2
    46   141   140    1
    47    39    40    1
    48    39    42    1
    49    43    42    1
    50    27    26    1
    51    27    28    1
    52    41    40    2
    53    40    45   am
    54    26    23    1
    55   140   143    1
    56   140   139    1
    57   129   128    2
    58   130   128   am
    59    23    22    1
    60   121   120    1
    61   128   127    1
    62    45    46    1
    63   127   124    1
    64    46    49    1
    65    46    47    1
    66   120   122    1
    67   120   119    2
    68    51    53   ar
    69    51    50   ar
    70    49    50    1
    71    53    55   ar
    72    50    52   ar
    73   118   119    1
    74   118   117    1
    75   126   125    2
    76   124   125    1
    77   124   123    1
    78   137   136    1
    79   137   138    1
    80   117   116    1
    81    47    57   am
    82    47    48    2
    83   136   135    1
    84   115   114    2
    85    57    58    1
    86    55    56    1
    87    55    54   ar
    88   123   114   am
    89    62    63    1
    90    62    61    1
    91    64    63    1
    92    52    54   ar
    93   114   113    1
    94   116   113    1
    95    61    58    1
    96   135   132    1
    97    58    59    1
    98   113   112    1
    99    60    59    2
   100   131   132    1
   101    92    93    1
   102    92    89    1
   103    59    65   am
   104   132   133    1
   105    93    94   ar
   106    93    95   ar
   107    88    89    1
   108    88    86   am
   109    85    86    1
   110    85    84    1
   111    89    90    1
   112    86    87    2
   113    65    66    1
   114   102   101    2
   115   133   134    2
   116    84    76   am
   117    66    67    1
   118    66    69    1
   119   101   103   am
   120   101   100    1
   121    90    91    2
   122    67    68    2
   123    67    74   am
   124    76    77    2
   125    76    75    1
   126    69    70    1
   127    74    75    1
   128   100    97    1
   129    75    78    1
   130    70    71    1
   131    96    97    1
   132    97    98    1
   133    71    72    1
   134    78    79    1
   135    98    99    2
   136    79    80   ar
   137    79    81   ar
   138    72    73    1
   139    80    82   ar
   140    81    83   ar
   141    82    83   ar
   142   111   109   am
   143   104   105    1
   144   108   109    1
   145   108   105    1
   146   109   110    2
   147   105   106    1
   148   106   107    2
