@<TRIPOS>MOLECULE
tmp/5hofA00.pdb
 122 122 0 0 0
SMALL
GASTEIGER

@<TRIPOS>ATOM
      1  N         13.4490  105.7320  140.9250 N.3    11  HIS11      -0.1226
      2  CA        14.8580  105.9350  140.8620 C.3    11  HIS11       0.1752
      3  C         15.5080  105.0320  141.9160 C.2    11  HIS11       0.2596
      4  O         15.1190  105.0420  143.0920 O.2    11  HIS11      -0.2718
      5  CB        15.1040  107.4000  141.1130 C.3    11  HIS11       0.0759
      6  CG        16.4230  107.8760  140.6420 C.ar   11  HIS11       0.0818
      7  ND1       17.4680  108.1090  141.5000 N.ar   11  HIS11      -0.2268
      8  CD2       16.8620  108.1950  139.4080 C.ar   11  HIS11       0.1154
      9  CE1       18.5020  108.5430  140.8110 C.ar   11  HIS11       0.1986
     10  NE2       18.1600  108.6050  139.5380 N.ar   11  HIS11      -0.2212
     11  N         16.4860  104.2510  141.4750 N.am   12  ASP12      -0.1974
     12  CA        17.2240  103.2770  142.3090 C.3    12  ASP12       0.1709
     13  C         16.3330  102.1110  142.6880 C.2    12  ASP12       0.2293
     14  O         16.0960  101.8690  143.8590 O.2    12  ASP12      -0.2864
     15  CB        17.8070  103.9680  143.5350 C.3    12  ASP12       0.1436
     16  CG        18.4070  105.3010  143.1960 C.2    12  ASP12       0.3671
     17  OD1       19.2640  105.3470  142.2950 O.co2  12  ASP12      -0.2456
     18  OD2       17.9910  106.3090  143.8050 O.co2  12  ASP12      -0.2456
     19  N         13.8880  105.4540  145.4540 N.3    27  SER27      -0.1202
     20  CA        14.0680  106.6240  146.2770 C.3    27  SER27       0.2020
     21  C         12.8880  107.5480  146.1460 C.2    27  SER27       0.2618
     22  O         12.1010  107.4970  145.2070 O.2    27  SER27      -0.2717
     23  CB        15.3160  107.3590  145.8750 C.3    27  SER27       0.2103
     24  OG        16.4090  106.4570  145.8350 O.3    27  SER27      -0.2182
     25  N         12.7750  108.4220  147.1190 N.am   28  HIS28      -0.1975
     26  CA        11.6870  109.4110  147.1900 C.3    28  HIS28       0.1656
     27  C         10.3320  108.7730  147.3000 C.2    28  HIS28       0.2291
     28  O          9.3140  109.3780  146.8940 O.2    28  HIS28      -0.2864
     29  CB        11.7290  110.3620  146.0160 C.3    28  HIS28       0.0771
     30  CG        13.1010  110.8080  145.6940 C.ar   28  HIS28       0.0820
     31  ND1       13.9790  111.2560  146.6500 N.ar   28  HIS28      -0.2267
     32  CD2       13.7650  110.8400  144.5220 C.ar   28  HIS28       0.1154
     33  CE1       15.1280  111.5610  146.0740 C.ar   28  HIS28       0.1986
     34  NE2       15.0250  111.3050  144.7820 N.ar   28  HIS28      -0.2212
     35  N         15.9810  107.5830  150.6720 N.3    83  TRP83      -0.1227
     36  CA        16.6610  107.1120  149.4580 C.3    83  TRP83       0.1737
     37  C         16.8360  105.5740  149.3230 C.2    83  TRP83       0.2595
     38  O         16.9190  104.8150  150.2970 O.2    83  TRP83      -0.2718
     39  CB        18.0460  107.7950  149.3710 C.3    83  TRP83       0.0564
     40  CG        18.0030  109.2830  149.1250 C.ar   83  TRP83       0.0003
     41  CD1       16.8960  110.0510  148.8420 C.ar   83  TRP83       0.0946
     42  CD2       19.1090  110.1790  149.1110 C.ar   83  TRP83       0.0152
     43  NE1       17.2470  111.3730  148.6600 N.ar   83  TRP83      -0.2442
     44  CE2       18.6000  111.4820  148.8120 C.ar   83  TRP83       0.0810
     45  CE3       20.4890  110.0190  149.2950 C.ar   83  TRP83       0.0012
     46  CZ2       19.4310  112.6150  148.6880 C.ar   83  TRP83       0.0191
     47  CZ3       21.3250  111.1640  149.1920 C.ar   83  TRP83       0.0001
     48  CH2       20.7810  112.4440  148.8930 C.ar   83  TRP83       0.0015
     49  N         16.8880  105.1270  148.0820 N.am   84  ALA84      -0.1980
     50  CA        17.4620  103.8410  147.7610 C.3    84  ALA84       0.1597
     51  C         17.0680  102.7020  148.7000 C.2    84  ALA84       0.2287
     52  O         17.8830  102.1650  149.4210 O.2    84  ALA84      -0.2864
     53  CB        18.9720  104.0060  147.7110 C.3    84  ALA84       0.0319
     54  N         24.5910  104.5720  153.1180 N.3   194  ILE194     -0.1231
     55  CA        23.3410  104.5620  152.3500 C.3   194  ILE194      0.1692
     56  C         23.3220  103.3350  151.4090 C.2   194  ILE194      0.2592
     57  O         24.2930  102.5640  151.3730 O.2   194  ILE194     -0.2718
     58  CB        23.1330  105.9030  151.5460 C.3   194  ILE194      0.0266
     59  CG1       24.2670  106.1250  150.5300 C.3   194  ILE194      0.0019
     60  CG2       23.0460  107.1310  152.4590 C.3   194  ILE194      0.0020
     61  CD1       24.0910  107.3410  149.6300 C.3   194  ILE194      0.0001
     62  N         22.2280  103.1700  150.6590 N.am  195  ASP195     -0.1974
     63  CA        22.1070  102.1610  149.5760 C.3   195  ASP195      0.1709
     64  C         22.1980  100.7330  150.0740 C.2   195  ASP195      0.2293
     65  O         23.0350   99.9730  149.6340 O.2   195  ASP195     -0.2864
     66  CB        23.1280  102.3960  148.4440 C.3   195  ASP195      0.1436
     67  CG        22.7680  103.5790  147.5680 C.2   195  ASP195      0.3671
     68  OD1       21.9300  104.3820  147.9910 O.co2 195  ASP195     -0.2456
     69  OD2       23.3110  103.7230  146.4530 O.co2 195  ASP195     -0.2456
     70  N         28.3430  102.8120  144.1140 N.3   261  GLU261     -0.1245
     71  CA        27.1890  102.7080  145.0330 C.3   261  GLU261      0.1567
     72  C         26.1190  101.8010  144.4310 C.2   261  GLU261      0.2260
     73  O         26.2890  101.3170  143.3250 O.2   261  GLU261     -0.2867
     74  CB        26.5710  104.0930  145.2250 C.3   261  GLU261      0.0388
     75  CG        25.9360  104.6420  143.9550 C.3   261  GLU261      0.1160
     76  CD        25.5020  106.0760  144.0530 C.2   261  GLU261      0.3649
     77  OE1       26.0100  106.8500  144.8930 O.co2 261  GLU261     -0.2457
     78  OE2       24.6300  106.4030  143.2410 O.co2 261  GLU261     -0.2457
     79  N         28.7860  109.3520  138.4820 N.3   282  TRP282     -0.1227
     80  CA        27.7160  110.2170  138.9450 C.3   282  TRP282      0.1737
     81  C         26.4160  109.9030  138.1700 C.2   282  TRP282      0.2595
     82  O         26.4050  109.5030  136.9940 O.2   282  TRP282     -0.2718
     83  CB        28.1680  111.7010  138.8270 C.3   282  TRP282      0.0564
     84  CG        27.0660  112.7360  138.9510 C.ar  282  TRP282      0.0003
     85  CD1       26.6460  113.6290  137.9850 C.ar  282  TRP282      0.0946
     86  CD2       26.2470  112.9890  140.1000 C.ar  282  TRP282      0.0152
     87  NE1       25.6130  114.4100  138.4610 N.ar  282  TRP282     -0.2442
     88  CE2       25.3570  114.0500  139.7610 C.ar  282  TRP282      0.0810
     89  CE3       26.1780  112.4280  141.3920 C.ar  282  TRP282      0.0012
     90  CZ2       24.3950  114.5510  140.6710 C.ar  282  TRP282      0.0191
     91  CZ3       25.2290  112.9400  142.3040 C.ar  282  TRP282      0.0001
     92  CH2       24.3490  113.9900  141.9300 C.ar  282  TRP282      0.0015
     93  N         25.3110  110.0840  138.8640 N.am  283  LEU283     -0.1980
     94  CA        24.0420  109.6260  138.3800 C.3   283  LEU283      0.1596
     95  C         23.4170  110.4760  137.3100 C.2   283  LEU283      0.2287
     96  O         22.5390  110.0020  136.6150 O.2   283  LEU283     -0.2864
     97  CB        23.0790  109.5540  139.5510 C.3   283  LEU283      0.0297
     98  CG        22.5630  110.8660  140.1430 C.3   283  LEU283      0.0022
     99  CD1       21.3000  111.3380  139.4580 C.3   283  LEU283      0.0001
    100  CD2       22.2350  110.6750  141.6020 C.3   283  LEU283      0.0001
    101  N         27.0370  107.4090  134.6840 N.3   289  TYR289     -0.1241
    102  CA        26.5920  106.2750  135.4920 C.3   289  TYR289      0.1605
    103  C         26.7150  105.0220  134.6740 C.2   289  TYR289      0.2264
    104  O         26.1670  104.9490  133.5590 O.2   289  TYR289     -0.2867
    105  CB        25.1100  106.4180  135.8760 C.3   289  TYR289      0.0534
    106  CG        24.7240  106.1310  137.3180 C.ar  289  TYR289     -0.0201
    107  CD1       25.6330  106.2400  138.3820 C.ar  289  TYR289     -0.0009
    108  CD2       23.4000  105.8320  137.6200 C.ar  289  TYR289     -0.0009
    109  CE1       25.2350  106.0210  139.6760 C.ar  289  TYR289      0.0417
    110  CE2       22.9950  105.6090  138.9300 C.ar  289  TYR289      0.0417
    111  CZ        23.9150  105.7070  139.9460 C.ar  289  TYR289      0.1957
    112  OH        23.4510  105.4720  141.2150 O.3   289  TYR289     -0.2866
    113  N         22.2190  102.1330  139.1290 N.3   352  HIS352     -0.1241
    114  CA        21.5730  101.6570  140.3630 C.3   352  HIS352      0.1621
    115  C         20.6980  100.4420  140.1120 C.2   352  HIS352      0.2264
    116  O         19.4910  100.5060  140.1460 O.2   352  HIS352     -0.2867
    117  CB        20.7890  102.7640  141.0780 C.3   352  HIS352      0.0745
    118  CG        20.6270  102.5230  142.5510 C.ar  352  HIS352      0.0817
    119  ND1       21.1790  103.3510  143.5040 N.ar  352  HIS352     -0.2268
    120  CD2       19.9980  101.5350  143.2330 C.ar  352  HIS352      0.1154
    121  CE1       20.8820  102.8940  144.7100 C.ar  352  HIS352      0.1986
    122  NE2       20.1750  101.7890  144.5740 N.ar  352  HIS352     -0.2212
@<TRIPOS>BOND
     1   104   103    2
     2   103   102    1
     3   101   102    1
     4   102   105    1
     5   105   106    1
     6    96    95    2
     7    82    81    2
     8    95    94    1
     9   106   108   ar
    10   106   107   ar
    11   108   110   ar
    12    85    87   ar
    13    85    84   ar
    14    81    93   am
    15    81    80    1
    16    94    93    1
    17    94    97    1
    18   107   109   ar
    19    87    88   ar
    20    79    80    1
    21    83    80    1
    22    83    84    1
    23   110   111   ar
    24    84    86   ar
    25   113   114    1
    26     8    10   ar
    27     8     6   ar
    28    99    98    1
    29    10     9   ar
    30    97    98    1
    31   109   111   ar
    32    88    86   ar
    33    88    90   ar
    34   111   112    1
    35    86    89   ar
    36   115   116    2
    37   115   114    1
    38    98   100    1
    39   114   117    1
    40     6     5    1
    41     6     7   ar
    42    90    92   ar
    43     9     7   ar
    44     2     1    1
    45     2     5    1
    46     2     3    1
    47   117   118    1
    48    89    91   ar
    49    11     3   am
    50    11    12    1
    51     3     4    2
    52    92    91   ar
    53    17    16   ar
    54    12    13    1
    55    12    15    1
    56   118   120   ar
    57   118   119   ar
    58    13    14    2
    59    16    15    1
    60    16    18   ar
    61   120   122   ar
    62    78    76   ar
    63    73    72    2
    64   119   121   ar
    65    75    76    1
    66    75    74    1
    67    76    77   ar
    68    70    71    1
    69    72    71    1
    70    32    34   ar
    71    32    30   ar
    72   122   121   ar
    73    34    33   ar
    74    71    74    1
    75    22    21    2
    76    19    20    1
    77    30    29    1
    78    30    31   ar
    79    24    23    1
    80    23    20    1
    81    29    26    1
    82    33    31   ar
    83    21    20    1
    84    21    25   am
    85    69    67   ar
    86    28    27    2
    87    25    26    1
    88    26    27    1
    89    67    68   ar
    90    67    66    1
    91    53    50    1
    92    50    49    1
    93    50    51    1
    94    49    37   am
    95    66    63    1
    96    43    44   ar
    97    43    41   ar
    98    46    44   ar
    99    46    48   ar
   100    51    52    2
   101    44    42   ar
   102    41    40   ar
   103    48    47   ar
   104    42    40   ar
   105    42    45   ar
   106    40    39    1
   107    47    45   ar
   108    37    36    1
   109    37    38    2
   110    39    36    1
   111    36    35    1
   112    63    64    1
   113    63    62    1
   114    61    59    1
   115    65    64    2
   116    59    58    1
   117    62    56   am
   118    57    56    2
   119    56    55    1
   120    58    55    1
   121    58    60    1
   122    55    54    1
