@<TRIPOS>MOLECULE
tmp/5hp1C00.pdb
 78 72 0 0 0
SMALL
GASTEIGER

@<TRIPOS>ATOM
      1  N        -19.4980  -52.4300  113.9960 N.3    65  LYS65      -0.1245
      2  CA       -18.4770  -51.6690  114.7000 C.3    65  LYS65       0.1561
      3  C        -19.1100  -50.4980  115.4410 C.2    65  LYS65       0.2260
      4  O        -19.9990  -49.8190  114.9200 O.2    65  LYS65      -0.2867
      5  CB       -17.4300  -51.1660  113.7110 C.3    65  LYS65       0.0271
      6  CG       -16.2760  -50.4330  114.3360 C.3    65  LYS65       0.0035
      7  CD       -15.2460  -50.1060  113.2820 C.3    65  LYS65       0.0206
      8  CE       -14.0200  -49.5160  113.9160 C.3    65  LYS65       0.1093
      9  NZ       -12.9650  -49.2150  112.9120 N.3    65  LYS65      -0.1314
     10  N        -17.6190  -54.9730  111.3310 N.3    72  ARG72      -0.1245
     11  CA       -16.5920  -55.8610  111.8680 C.3    72  ARG72       0.1563
     12  C        -16.9470  -57.3170  111.5760 C.2    72  ARG72       0.2260
     13  O        -17.9530  -57.8400  112.0690 O.2    72  ARG72      -0.2867
     14  CB       -16.3830  -55.6210  113.3640 C.3    72  ARG72       0.0307
     15  CG       -15.6810  -54.3000  113.6670 C.3    72  ARG72       0.0489
     16  CD       -15.3060  -54.1880  115.1330 C.3    72  ARG72       0.2205
     17  NE       -14.5140  -52.9930  115.4220 N.pl3  72  ARG72      -0.0865
     18  CZ       -13.1970  -52.9120  115.2500 C.cat  72  ARG72       0.5346
     19  NH1      -12.5200  -53.9540  114.7880 N.pl3  72  ARG72       0.1354
     20  NH2      -12.5530  -51.7920  115.5460 N.pl3  72  ARG72       0.1354
     21  N         -4.5800  -43.4200  116.7380 N.3   110  ASP110     -0.1225
     22  CA        -4.7660  -44.8630  116.6510 C.3   110  ASP110      0.1805
     23  C         -4.1280  -45.4670  115.4070 C.2   110  ASP110      0.2598
     24  O         -4.2040  -44.8920  114.3170 O.2   110  ASP110     -0.2718
     25  CB        -6.2560  -45.2050  116.6570 C.3   110  ASP110      0.1424
     26  CG        -6.5090  -46.6800  116.8400 C.2   110  ASP110      0.3668
     27  OD1       -6.3240  -47.1740  117.9710 O.co2 110  ASP110     -0.2456
     28  OD2       -6.8820  -47.3450  115.8510 O.co2 110  ASP110     -0.2456
     29  N         -3.5030  -46.6350  115.5790 N.am  111  VAL111     -0.1966
     30  CA        -3.0350  -47.4130  114.4370 C.3   111  VAL111      0.1727
     31  C         -4.2380  -47.9740  113.6880 C.2   111  VAL111      0.2617
     32  O         -5.2020  -48.4610  114.2980 O.2   111  VAL111     -0.2715
     33  CB        -2.0900  -48.5370  114.9010 C.3   111  VAL111      0.0290
     34  CG1       -2.0590  -49.6800  113.8900 C.3   111  VAL111      0.0023
     35  CG2       -0.6890  -47.9930  115.1320 C.3   111  VAL111      0.0023
     36  N         -4.1950  -47.9080  112.3600 N.am  112  GLY112     -0.1940
     37  CA        -5.3020  -48.3550  111.5350 C.3   112  GLY112      0.2014
     38  C         -5.0750  -49.7640  111.0180 C.2   112  GLY112      0.2639
     39  O         -3.9950  -50.0870  110.5170 O.2   112  GLY112     -0.2714
     40  N         -6.1170  -50.5870  111.1260 N.am  113  ASP113     -0.1957
     41  CA        -6.0570  -52.0210  110.8420 C.3   113  ASP113      0.1840
     42  C         -4.8250  -52.6700  111.4830 C.2   113  ASP113      0.2621
     43  O         -3.8640  -53.0540  110.8160 O.2   113  ASP113     -0.2715
     44  CB        -6.0880  -52.2610  109.3300 C.3   113  ASP113      0.1450
     45  CG        -7.4860  -52.5410  108.8180 C.2   113  ASP113      0.3671
     46  OD1       -8.1620  -53.4280  109.3790 O.co2 113  ASP113     -0.2456
     47  OD2       -7.9100  -51.8700  107.8540 O.co2 113  ASP113     -0.2456
     48  N         -4.8790  -52.7720  112.8140 N.am  114  ALA114     -0.1977
     49  CA        -3.7130  -53.2050  113.5800 C.3   114  ALA114      0.1597
     50  C         -3.3250  -54.6440  113.2450 C.2   114  ALA114      0.2287
     51  O         -2.2190  -54.9030  112.7560 O.2   114  ALA114     -0.2864
     52  CB        -3.9930  -53.0540  115.0750 C.3   114  ALA114      0.0319
     53  N         -8.9120  -61.4630  113.5940 N.3   151  GLN151     -0.1245
     54  CA        -9.8230  -61.2330  114.7050 C.3   151  GLN151      0.1566
     55  C        -10.4800  -62.5480  115.1110 C.2   151  GLN151      0.2260
     56  O        -10.9880  -63.2870  114.2610 O.2   151  GLN151     -0.2867
     57  CB       -10.8830  -60.2090  114.3050 C.3   151  GLN151      0.0367
     58  CG       -10.3920  -58.7730  114.3060 C.3   151  GLN151      0.0905
     59  CD       -11.3970  -57.8180  113.6950 C.2   151  GLN151      0.2608
     60  OE1      -11.2790  -56.6010  113.8350 O.2   151  GLN151     -0.2717
     61  NE2      -12.3900  -58.3670  113.0040 N.am  151  GLN151     -0.0878
     62  N         -3.1310  -50.8070  120.1340 N.3   185  ASP185     -0.1239
     63  CA        -2.8500  -49.9330  118.9990 C.3   185  ASP185      0.1674
     64  C         -3.0340  -48.4650  119.3400 C.2   185  ASP185      0.2266
     65  O         -2.6350  -47.6040  118.5500 O.2   185  ASP185     -0.2867
     66  CB        -3.7280  -50.2560  117.7840 C.3   185  ASP185      0.1410
     67  CG        -5.1940  -49.9930  118.0290 C.2   185  ASP185      0.3668
     68  OD1       -5.5980  -49.8170  119.1960 O.co2 185  ASP185     -0.2456
     69  OD2       -5.9370  -49.9060  117.0290 O.co2 185  ASP185     -0.2456
     70  N         -9.0040  -40.6410  113.1830 N.3   220  LYS220     -0.1245
     71  CA        -8.7340  -40.9710  114.5720 C.3   220  LYS220      0.1561
     72  C         -7.5720  -40.2110  115.1660 C.2   220  LYS220      0.2260
     73  O         -7.1480  -40.5020  116.2880 O.2   220  LYS220     -0.2867
     74  CB        -8.5300  -42.4700  114.6670 C.3   220  LYS220      0.0271
     75  CG        -9.8740  -43.0800  114.4210 C.3   220  LYS220      0.0035
     76  CD        -9.8680  -44.5300  114.1380 C.3   220  LYS220      0.0206
     77  CE       -11.3080  -44.9530  113.9880 C.3   220  LYS220      0.1093
     78  NZ       -11.4790  -46.0740  113.0390 N.3   220  LYS220     -0.1314
@<TRIPOS>BOND
     1    47    45   ar
     2    45    44    1
     3    45    46   ar
     4    44    41    1
     5    39    38    2
     6    43    42    2
     7    41    40    1
     8    41    42    1
     9    38    40   am
    10    38    37    1
    11    10    11    1
    12    42    48   am
    13    37    36    1
    14    12    11    1
    15    12    13    2
    16    11    14    1
    17    36    31   am
    18    51    50    2
    19    48    49    1
    20     9     8    1
    21    61    59   am
    22    78    77    1
    23    70    71    1
    24    50    49    1
    25     7     8    1
    26     7     6    1
    27    14    15    1
    28    49    52    1
    29    53    54    1
    30    15    16    1
    31    31    32    2
    32    31    30    1
    33    59    60    2
    34    59    58    1
    35     5     6    1
    36     5     2    1
    37    34    33    1
    38    77    76    1
    39     1     2    1
    40    76    75    1
    41    56    55    2
    42    57    58    1
    43    57    54    1
    44    24    23    2
    45    75    74    1
    46    30    33    1
    47    30    29    1
    48    71    74    1
    49    71    72    1
    50     2     3    1
    51    54    55    1
    52    19    18    1
    53    33    35    1
    54     4     3    2
    55    16    17    1
    56    72    73    2
    57    18    17    2
    58    18    20    1
    59    23    29   am
    60    23    22    1
    61    28    26   ar
    62    22    25    1
    63    22    21    1
    64    25    26    1
    65    26    27   ar
    66    69    67   ar
    67    66    67    1
    68    66    63    1
    69    67    68   ar
    70    65    64    2
    71    63    64    1
    72    63    62    1
