@<TRIPOS>MOLECULE
tmp/5hp1C01.pdb
 125 121 0 0 0
SMALL
GASTEIGER

@<TRIPOS>ATOM
      1  N        -18.6440  -50.2590  116.6650 N.3    66  LYS66      -0.1245
      2  CA       -19.2570  -49.2490  117.5190 C.3    66  LYS66       0.1561
      3  C        -18.9910  -47.8480  116.9730 C.2    66  LYS66       0.2260
      4  O        -17.8340  -47.4480  116.8010 O.2    66  LYS66      -0.2867
      5  CB       -18.7430  -49.3870  118.9520 C.3    66  LYS66       0.0271
      6  CG       -17.2480  -49.6560  119.0740 C.3    66  LYS66       0.0035
      7  CD       -16.4710  -48.3880  119.3980 C.3    66  LYS66       0.0206
      8  CE       -14.9730  -48.6210  119.3090 C.3    66  LYS66       0.1093
      9  NZ       -14.2030  -47.3620  119.5080 N.3    66  LYS66      -0.1314
     10  N        -17.6190  -54.9730  111.3310 N.3    72  ARG72      -0.1231
     11  CA       -16.5920  -55.8610  111.8680 C.3    72  ARG72       0.1694
     12  C        -16.9470  -57.3170  111.5760 C.2    72  ARG72       0.2592
     13  O        -17.9530  -57.8400  112.0690 O.2    72  ARG72      -0.2718
     14  CB       -16.3830  -55.6210  113.3640 C.3    72  ARG72       0.0321
     15  CG       -15.6810  -54.3000  113.6670 C.3    72  ARG72       0.0489
     16  CD       -15.3060  -54.1880  115.1330 C.3    72  ARG72       0.2205
     17  NE       -14.5140  -52.9930  115.4220 N.pl3  72  ARG72      -0.0865
     18  CZ       -13.1970  -52.9120  115.2500 C.cat  72  ARG72       0.5346
     19  NH1      -12.5200  -53.9540  114.7880 N.pl3  72  ARG72       0.1354
     20  NH2      -12.5530  -51.7920  115.5460 N.pl3  72  ARG72       0.1354
     21  N        -16.1280  -57.9330  110.7310 N.am   73  LYS73      -0.1966
     22  CA       -16.0810  -59.3730  110.5010 C.3    73  LYS73       0.1728
     23  C        -15.5400  -60.1000  111.7300 C.2    73  LYS73       0.2616
     24  O        -14.5030  -59.7150  112.2810 O.2    73  LYS73      -0.2715
     25  CB       -15.2150  -59.6800  109.2720 C.3    73  LYS73       0.0311
     26  CG       -13.7340  -59.2900  109.4030 C.3    73  LYS73       0.0038
     27  CD       -13.5310  -57.7780  109.4050 C.3    73  LYS73       0.0206
     28  CE       -12.0840  -57.3940  109.5410 C.3    73  LYS73       0.1093
     29  NZ       -11.9210  -55.9270  109.7360 N.3    73  LYS73      -0.1314
     30  N        -16.2450  -61.1330  112.1870 N.am   74  LEU74      -0.1977
     31  CA       -15.7550  -61.9190  113.3120 C.3    74  LEU74       0.1596
     32  C        -15.6620  -63.3890  112.9270 C.2    74  LEU74       0.2287
     33  O        -16.5910  -63.9540  112.3440 O.2    74  LEU74      -0.2864
     34  CB       -16.6890  -61.7650  114.5110 C.3    74  LEU74       0.0297
     35  CG       -16.5800  -60.4440  115.2690 C.3    74  LEU74       0.0022
     36  CD1      -17.5140  -60.4430  116.4670 C.3    74  LEU74       0.0001
     37  CD2      -15.1430  -60.1860  115.6890 C.3    74  LEU74       0.0001
     38  N         -4.5800  -43.4200  116.7380 N.3   110  ASP110     -0.1239
     39  CA        -4.7660  -44.8630  116.6510 C.3   110  ASP110      0.1674
     40  C         -4.1280  -45.4670  115.4070 C.2   110  ASP110      0.2266
     41  O         -4.2040  -44.8920  114.3170 O.2   110  ASP110     -0.2867
     42  CB        -6.2560  -45.2050  116.6570 C.3   110  ASP110      0.1410
     43  CG        -6.5090  -46.6800  116.8400 C.2   110  ASP110      0.3668
     44  OD1       -6.3240  -47.1740  117.9710 O.co2 110  ASP110     -0.2456
     45  OD2       -6.8820  -47.3450  115.8510 O.co2 110  ASP110     -0.2456
     46  N         -6.1170  -50.5870  111.1260 N.3   113  ASP113     -0.1225
     47  CA        -6.0570  -52.0210  110.8420 C.3   113  ASP113      0.1805
     48  C         -4.8250  -52.6700  111.4830 C.2   113  ASP113      0.2598
     49  O         -3.8640  -53.0540  110.8160 O.2   113  ASP113     -0.2718
     50  CB        -6.0880  -52.2610  109.3300 C.3   113  ASP113      0.1424
     51  CG        -7.4860  -52.5410  108.8180 C.2   113  ASP113      0.3668
     52  OD1       -8.1620  -53.4280  109.3790 O.co2 113  ASP113     -0.2456
     53  OD2       -7.9100  -51.8700  107.8540 O.co2 113  ASP113     -0.2456
     54  N         -4.8790  -52.7720  112.8140 N.am  114  ALA114     -0.1966
     55  CA        -3.7130  -53.2050  113.5800 C.3   114  ALA114      0.1728
     56  C         -3.3250  -54.6440  113.2450 C.2   114  ALA114      0.2616
     57  O         -2.2190  -54.9030  112.7560 O.2   114  ALA114     -0.2715
     58  CB        -3.9930  -53.0540  115.0750 C.3   114  ALA114      0.0334
     59  N         -4.2210  -55.5980  113.5220 N.am  115  TYR115     -0.1960
     60  CA        -3.8970  -57.0140  113.3420 C.3   115  TYR115      0.1771
     61  C         -3.4890  -57.3290  111.9080 C.2   115  TYR115      0.2619
     62  O         -2.6250  -58.1820  111.6720 O.2   115  TYR115     -0.2715
     63  CB        -5.0700  -57.9050  113.7550 C.3   115  TYR115      0.0574
     64  CG        -5.3870  -57.9290  115.2310 C.ar  115  TYR115     -0.0198
     65  CD1       -4.6410  -57.1920  116.1420 C.ar  115  TYR115     -0.0009
     66  CD2       -6.4060  -58.7380  115.7190 C.ar  115  TYR115     -0.0009
     67  CE1       -4.9270  -57.2300  117.4920 C.ar  115  TYR115      0.0417
     68  CE2       -6.6940  -58.7890  117.0660 C.ar  115  TYR115      0.0417
     69  CZ        -5.9510  -58.0350  117.9480 C.ar  115  TYR115      0.1957
     70  OH        -6.2420  -58.0810  119.2900 O.3   115  TYR115     -0.2866
     71  N         -4.1000  -56.6560  110.9400 N.am  116  PHE116     -0.1974
     72  CA        -3.8920  -56.9440  109.5280 C.3   116  PHE116      0.1639
     73  C         -2.6270  -56.3160  108.9590 C.2   116  PHE116      0.2290
     74  O         -2.3490  -56.4970  107.7690 O.2   116  PHE116     -0.2864
     75  CB        -5.1200  -56.5010  108.7340 C.3   116  PHE116      0.0560
     76  CG        -6.4090  -57.0800  109.2510 C.ar  116  PHE116     -0.0200
     77  CD1       -6.4220  -58.2920  109.9260 C.ar  116  PHE116     -0.0042
     78  CD2       -7.6000  -56.4030  109.0860 C.ar  116  PHE116     -0.0042
     79  CE1       -7.6000  -58.8220  110.4090 C.ar  116  PHE116     -0.0003
     80  CE2       -8.7780  -56.9260  109.5700 C.ar  116  PHE116     -0.0003
     81  CZ        -8.7800  -58.1380  110.2310 C.ar  116  PHE116     -0.0000
     82  N         -8.9120  -61.4630  113.5940 N.3   151  GLN151     -0.1231
     83  CA        -9.8230  -61.2330  114.7050 C.3   151  GLN151      0.1698
     84  C        -10.4800  -62.5480  115.1110 C.2   151  GLN151      0.2592
     85  O        -10.9880  -63.2870  114.2610 O.2   151  GLN151     -0.2718
     86  CB       -10.8830  -60.2090  114.3050 C.3   151  GLN151      0.0381
     87  CG       -10.3920  -58.7730  114.3060 C.3   151  GLN151      0.0905
     88  CD       -11.3970  -57.8180  113.6950 C.2   151  GLN151      0.2608
     89  OE1      -11.2790  -56.6010  113.8350 O.2   151  GLN151     -0.2717
     90  NE2      -12.3900  -58.3670  113.0040 N.am  151  GLN151     -0.0878
     91  N        -10.4660  -62.8470  116.4090 N.am  152  GLY152     -0.1957
     92  CA       -11.0370  -64.0720  116.9300 C.3   152  GLY152      0.1869
     93  C        -10.0310  -65.1200  117.3570 C.2   152  GLY152      0.2309
     94  O        -10.4000  -66.0480  118.0900 O.2   152  GLY152     -0.2863
     95  N         -4.0080  -60.7410  119.9880 N.3   157  PRO157     -0.2116
     96  CA        -3.6450  -59.6020  120.8530 C.3   157  PRO157      0.1372
     97  C         -2.1960  -59.6280  121.3070 C.2   157  PRO157      0.2244
     98  O         -1.4810  -58.6290  121.1590 O.2   157  PRO157     -0.2868
     99  CB        -4.6140  -59.7580  122.0300 C.3   157  PRO157      0.0268
    100  CG        -5.8220  -60.3450  121.4150 C.3   157  PRO157      0.0207
    101  CD        -5.2810  -61.3480  120.4260 C.3   157  PRO157      0.0892
    102  N         -2.2850  -51.6250  123.2780 N.3   184  MET184     -0.1230
    103  CA        -2.5620  -52.2900  122.0040 C.3   184  MET184      0.1702
    104  C         -2.1560  -51.4020  120.8300 C.2   184  MET184      0.2592
    105  O         -0.9610  -51.2430  120.5600 O.2   184  MET184     -0.2718
    106  CB        -4.0510  -52.6630  121.9120 C.3   184  MET184      0.0401
    107  CG        -4.4550  -53.5190  120.7120 C.3   184  MET184      0.0596
    108  SD        -3.8790  -55.2200  120.7670 S.3   184  MET184     -0.1393
    109  CE        -4.9680  -55.8950  122.0200 C.3   184  MET184      0.0692
    110  N         -3.1310  -50.8070  120.1340 N.am  185  ASP185     -0.1960
    111  CA        -2.8500  -49.9330  118.9990 C.3   185  ASP185      0.1840
    112  C         -3.0340  -48.4650  119.3400 C.2   185  ASP185      0.2622
    113  O         -2.6350  -47.6040  118.5500 O.2   185  ASP185     -0.2715
    114  CB        -3.7280  -50.2560  117.7840 C.3   185  ASP185      0.1450
    115  CG        -5.1940  -49.9930  118.0290 C.2   185  ASP185      0.3671
    116  OD1       -5.5980  -49.8170  119.1960 O.co2 185  ASP185     -0.2456
    117  OD2       -5.9370  -49.9060  117.0290 O.co2 185  ASP185     -0.2456
    118  N         -3.6310  -48.1660  120.4880 N.am  186  ASP186     -0.1971
    119  CA        -3.8960  -46.7890  120.8640 C.3   186  ASP186      0.1709
    120  C         -2.6590  -46.2040  121.5140 C.2   186  ASP186      0.2293
    121  O         -2.1180  -46.7620  122.4740 O.2   186  ASP186     -0.2864
    122  CB        -5.0840  -46.7050  121.8210 C.3   186  ASP186      0.1436
    123  CG        -6.3970  -47.0120  121.1430 C.2   186  ASP186      0.3671
    124  OD1       -6.4470  -47.9850  120.3640 O.co2 186  ASP186     -0.2456
    125  OD2       -7.3790  -46.2810  121.3870 O.co2 186  ASP186     -0.2456
@<TRIPOS>BOND
     1    74    73    2
     2    53    51   ar
     3    75    76    1
     4    75    72    1
     5    51    50    1
     6    51    52   ar
     7    73    72    1
     8    78    76   ar
     9    78    80   ar
    10    76    77   ar
    11    25    26    1
    12    25    22    1
    13    50    47    1
    14    26    27    1
    15    27    28    1
    16    72    71    1
    17    28    29    1
    18    80    81   ar
    19    77    79   ar
    20    81    79   ar
    21    22    21    1
    22    22    23    1
    23    21    12   am
    24    49    48    2
    25    47    46    1
    26    47    48    1
    27    71    61   am
    28    10    11    1
    29    48    54   am
    30    12    11    1
    31    12    13    2
    32    62    61    2
    33    23    30   am
    34    23    24    2
    35    11    14    1
    36    61    60    1
    37    30    31    1
    38    33    32    2
    39    57    56    2
    40    54    55    1
    41    32    31    1
    42    90    88   am
    43    56    59   am
    44    56    55    1
    45    31    34    1
    46    60    59    1
    47    60    63    1
    48    14    15    1
    49    55    58    1
    50    82    83    1
    51    15    16    1
    52    88    89    2
    53    88    87    1
    54    63    64    1
    55    85    84    2
    56    86    87    1
    57    86    83    1
    58    41    40    2
    59    34    35    1
    60    83    84    1
    61    19    18    1
    62    84    91   am
    63    16    17    1
    64    64    66   ar
    65    64    65   ar
    66    18    17    2
    67    18    20    1
    68    35    37    1
    69    35    36    1
    70    40    39    1
    71    66    68   ar
    72    45    43   ar
    73    65    67   ar
    74    91    92    1
    75    39    42    1
    76    39    38    1
    77    42    43    1
    78     1     2    1
    79     4     3    2
    80    43    44   ar
    81    92    93    1
    82     3     2    1
    83   117   115   ar
    84    68    69   ar
    85    93    94    2
    86    67    69   ar
    87     2     5    1
    88   114   115    1
    89   114   111    1
    90    69    70    1
    91   115   116   ar
    92   113   112    2
    93     5     6    1
    94   111   112    1
    95   111   110    1
    96     6     7    1
    97     8     7    1
    98     8     9    1
    99   112   118   am
   100    95   101    1
   101    95    96    1
   102   110   104   am
   103   124   123   ar
   104   101   100    1
   105   118   119    1
   106   105   104    2
   107   107   108    1
   108   107   106    1
   109   108   109    1
   110   104   103    1
   111    96    97    1
   112    96    99    1
   113   119   120    1
   114   119   122    1
   115   123   125   ar
   116   123   122    1
   117    98    97    2
   118   100    99    1
   119   120   121    2
   120   106   103    1
   121   103   102    1
