@<TRIPOS>MOLECULE
tmp/5hpbA01.pdb
 169 162 0 0 0
SMALL
GASTEIGER

@<TRIPOS>ATOM
      1  N         20.6980   11.5690   -1.6310 N.3     7  ILE7       -0.1231
      2  CA        21.7660   11.6910   -2.6520 C.3     7  ILE7        0.1692
      3  C         22.9520   10.9960   -2.0890 C.2     7  ILE7        0.2592
      4  O         23.2710   11.1850   -0.9210 O.2     7  ILE7       -0.2718
      5  CB        22.0640   13.2350   -2.9820 C.3     7  ILE7        0.0266
      6  CG1       23.0820   13.3420   -4.1730 C.3     7  ILE7        0.0019
      7  CG2       22.3380   14.0950   -1.7070 C.3     7  ILE7        0.0020
      8  CD1       23.0870   14.6910   -4.8550 C.3     7  ILE7        0.0001
      9  N         23.6070   10.2250   -2.9800 N.am    8  VAL8       -0.1966
     10  CA        24.7140    9.4020   -2.5970 C.3     8  VAL8        0.1727
     11  C         25.6020    9.2680   -3.7960 C.2     8  VAL8        0.2616
     12  O         25.1660    9.3110   -4.9270 O.2     8  VAL8       -0.2715
     13  CB        24.2160    8.0060   -2.1200 C.3     8  VAL8        0.0290
     14  CG1       23.5820    7.2370   -3.2690 C.3     8  VAL8        0.0023
     15  CG2       25.3110    7.2230   -1.4420 C.3     8  VAL8        0.0023
     16  N         26.8510    8.9750   -3.5230 N.am    9  ALA9       -0.1977
     17  CA        27.7620    8.4410   -4.5540 C.3     9  ALA9        0.1597
     18  C         28.2470    7.0530   -4.0900 C.2     9  ALA9        0.2287
     19  O         28.6840    6.8900   -2.9520 O.2     9  ALA9       -0.2864
     20  CB        28.9340    9.3840   -4.7180 C.3     9  ALA9        0.0319
     21  N         36.3020    8.5900    5.3330 N.3    21  ASP21      -0.1225
     22  CA        36.3620    9.3550    4.0890 C.3    21  ASP21       0.1805
     23  C         35.6380    8.5820    2.9610 C.2    21  ASP21       0.2597
     24  O         35.0170    7.5150    3.2260 O.2    21  ASP21      -0.2718
     25  CB        37.8000    9.6700    3.7050 C.3    21  ASP21       0.1424
     26  CG        37.9390   11.0170    2.9950 C.2    21  ASP21       0.3668
     27  OD1       36.9150   11.5500    2.4650 O.co2  21  ASP21      -0.2456
     28  OD2       39.0800   11.5340    2.9580 O.co2  21  ASP21      -0.2456
     29  N         35.7080    9.1010    1.7330 N.am   22  LEU22      -0.1979
     30  CA        35.0730    8.4260    0.5970 C.3    22  LEU22       0.1596
     31  C         36.0930    7.3280    0.2210 C.2    22  LEU22       0.2287
     32  O         37.3040    7.5000    0.4790 O.2    22  LEU22      -0.2864
     33  CB        34.8160    9.4110   -0.5610 C.3    22  LEU22       0.0297
     34  CG        33.8510   10.5630   -0.2580 C.3    22  LEU22       0.0022
     35  CD1       33.7200   11.5360   -1.4180 C.3    22  LEU22       0.0001
     36  CD2       32.4840   10.0320    0.1490 C.3    22  LEU22       0.0001
     37  N         32.1290   15.6380   -9.0540 N.3    30  GLU30      -0.1231
     38  CA        31.1380   14.9560   -8.2130 C.3    30  GLU30       0.1699
     39  C         30.7890   15.8140   -6.9990 C.2    30  GLU30       0.2592
     40  O         29.6010   16.0310   -6.6730 O.2    30  GLU30      -0.2718
     41  CB        31.6610   13.5760   -7.8340 C.3    30  GLU30       0.0402
     42  CG        30.5900   12.4690   -7.7410 C.3    30  GLU30       0.1161
     43  CD        29.6240   12.6460   -6.5780 C.2    30  GLU30       0.3649
     44  OE1       28.4040   12.5560   -6.8310 O.co2  30  GLU30      -0.2457
     45  OE2       30.0670   12.9440   -5.4290 O.co2  30  GLU30      -0.2457
     46  N         31.8150   16.4270   -6.3670 N.am   31  PHE31      -0.1976
     47  CA        31.5680   17.3350   -5.2710 C.3    31  PHE31       0.1639
     48  C         30.7210   18.5260   -5.7400 C.2    31  PHE31       0.2290
     49  O         29.7580   18.8700   -5.0550 O.2    31  PHE31      -0.2864
     50  CB        32.8690   17.8080   -4.5750 C.3    31  PHE31       0.0560
     51  CG        33.4460   16.8080   -3.6160 C.ar   31  PHE31      -0.0200
     52  CD1       32.6840   16.2980   -2.5690 C.ar   31  PHE31      -0.0042
     53  CD2       34.7510   16.3250   -3.7800 C.ar   31  PHE31      -0.0042
     54  CE1       33.2250   15.3770   -1.6730 C.ar   31  PHE31      -0.0003
     55  CE2       35.3020   15.4070   -2.8800 C.ar   31  PHE31      -0.0003
     56  CZ        34.5350   14.9070   -1.8490 C.ar   31  PHE31      -0.0000
     57  N         28.6350   18.6000   -8.2880 N.3    33  TYR33      -0.1227
     58  CA        27.2640   18.1080   -8.5120 C.3    33  TYR33       0.1736
     59  C         26.4940   18.0150   -7.1740 C.2    33  TYR33       0.2595
     60  O         25.3930   18.5380   -7.0350 O.2    33  TYR33      -0.2718
     61  CB        27.2740   16.7420   -9.2120 C.3    33  TYR33       0.0548
     62  CG        25.9080   16.0960   -9.4040 C.ar   33  TYR33      -0.0200
     63  CD1       25.0120   16.5650  -10.3240 C.ar   33  TYR33      -0.0009
     64  CD2       25.5330   15.0030   -8.6400 C.ar   33  TYR33      -0.0009
     65  CE1       23.7570   15.9640  -10.4940 C.ar   33  TYR33       0.0417
     66  CE2       24.2930   14.3760   -8.8170 C.ar   33  TYR33       0.0417
     67  CZ        23.4140   14.8800   -9.7540 C.ar   33  TYR33       0.1957
     68  OH        22.2040   14.2480   -9.9240 O.3    33  TYR33      -0.2866
     69  N         27.0960   17.3620   -6.1720 N.am   34  PHE34      -0.1962
     70  CA        26.5150   17.3210   -4.8690 C.3    34  PHE34       0.1771
     71  C         26.1420   18.6920   -4.3450 C.2    34  PHE34       0.2619
     72  O         25.0260   18.8400   -3.8460 O.2    34  PHE34      -0.2715
     73  CB        27.4590   16.5860   -3.8880 C.3    34  PHE34       0.0574
     74  CG        27.0450   16.6960   -2.4480 C.ar   34  PHE34      -0.0200
     75  CD1       26.0750   15.7910   -1.9080 C.ar   34  PHE34      -0.0042
     76  CD2       27.5820   17.6620   -1.5970 C.ar   34  PHE34      -0.0042
     77  CE1       25.6600   15.8920   -0.6200 C.ar   34  PHE34      -0.0003
     78  CE2       27.1470   17.7810   -0.2760 C.ar   34  PHE34      -0.0003
     79  CZ        26.2060   16.8690    0.2470 C.ar   34  PHE34      -0.0000
     80  N         27.0480   19.6860   -4.5120 N.am   35  GLN35      -0.1977
     81  CA        26.8310   21.0140   -4.0110 C.3    35  GLN35       0.1601
     82  C         25.5990   21.6000   -4.6890 C.2    35  GLN35       0.2287
     83  O         24.7010   22.0700   -3.9980 O.2    35  GLN35      -0.2864
     84  CB        28.0370   21.9760   -4.2810 C.3    35  GLN35       0.0394
     85  CG        27.7130   23.4130   -3.8300 C.3    35  GLN35       0.0908
     86  CD        28.9080   24.2440   -3.3230 C.2    35  GLN35       0.2608
     87  OE1       28.7530   25.1610   -2.4860 O.2    35  GLN35      -0.2717
     88  NE2       30.0900   23.9230   -3.8070 N.am   35  GLN35      -0.0878
     89  N         28.8510   11.2550    9.1710 N.3    56  THR56      -0.1218
     90  CA        28.9220   12.0900    8.0030 C.3    56  THR56       0.1862
     91  C         29.2810   13.5410    8.2130 C.2    56  THR56       0.2287
     92  O         30.0790   14.1400    7.4440 O.2    56  THR56      -0.2866
     93  CB        27.6100   12.0230    7.2050 C.3    56  THR56       0.1770
     94  OG1       27.4470   10.7020    6.7280 O.3    56  THR56      -0.2211
     95  CG2       27.6650   12.8960    6.0260 C.3    56  THR56       0.0375
     96  N         32.8940   13.8490    8.8270 N.3    59  SER59      -0.1202
     97  CA        33.6220   13.4230    7.6360 C.3    59  SER59       0.2020
     98  C         33.8650   14.5770    6.6550 C.2    59  SER59       0.2619
     99  O         34.7200   14.5340    5.7720 O.2    59  SER59      -0.2717
    100  CB        32.8440   12.2890    6.9260 C.3    59  SER59       0.2103
    101  OG        31.7930   12.8530    6.1150 O.3    59  SER59      -0.2182
    102  N         33.0680   15.6230    6.7830 N.am   60  ILE60      -0.1966
    103  CA        33.2100   16.8260    5.9520 C.3    60  ILE60       0.1712
    104  C         34.3180   17.6860    6.5640 C.2    60  ILE60       0.2458
    105  O         34.3160   17.9080    7.7720 O.2    60  ILE60      -0.2730
    106  CB        31.8960   17.6390    6.0090 C.3    60  ILE60       0.0289
    107  CG1       30.7390   16.8120    5.4160 C.3    60  ILE60       0.0022
    108  CG2       31.9920   18.9470    5.2220 C.3    60  ILE60       0.0023
    109  CD1       29.3620   17.4200    5.7490 C.3    60  ILE60       0.0001
    110  N         35.2250   18.2050    5.7310 N.am   61  PRO61      -0.2727
    111  CA        36.2940   18.9630    6.4040 C.3    61  PRO61       0.1402
    112  C         35.7500   20.2610    7.0550 C.2    61  PRO61       0.2269
    113  O         34.8650   20.9250    6.4690 O.2    61  PRO61      -0.2865
    114  CB        37.2850   19.2430    5.2670 C.3    61  PRO61       0.0296
    115  CG        36.9700   18.2590    4.1690 C.3    61  PRO61       0.0237
    116  CD        35.4860   17.9960    4.2970 C.3    61  PRO61       0.0939
    117  N         34.5300   23.4490    5.5070 N.3    64  ASN64      -0.1240
    118  CA        33.3410   23.3230    4.6220 C.3    64  ASN64       0.1653
    119  C         32.0650   23.0760    5.4210 C.2    64  ASN64       0.2266
    120  O         31.0160   22.7940    4.8420 O.2    64  ASN64      -0.2867
    121  CB        33.5840   22.2230    3.5570 C.3    64  ASN64       0.1155
    122  CG        34.8760   22.4360    2.7260 C.2    64  ASN64       0.2627
    123  OD1       35.1150   23.5200    2.1920 O.2    64  ASN64      -0.2716
    124  ND2       35.6980   21.3910    2.5920 N.am   64  ASN64      -0.0877
    125  N         27.5530   22.8810    5.5790 N.3    67  LEU67      -0.1245
    126  CA        27.4430   23.0310    4.1250 C.3    67  LEU67       0.1561
    127  C         26.7180   24.3290    3.7540 C.2    67  LEU67       0.2260
    128  O         25.5530   24.5330    4.1650 O.2    67  LEU67      -0.2867
    129  CB        26.7750   21.8130    3.5440 C.3    67  LEU67       0.0270
    130  CG        27.5080   20.4770    3.8110 C.3    67  LEU67       0.0019
    131  CD1       26.6790   19.3110    3.2870 C.3    67  LEU67       0.0001
    132  CD2       28.8340   20.5700    3.0980 C.3    67  LEU67       0.0001
    133  N         22.6530   25.9450    2.8710 N.3    70  ARG70      -0.1245
    134  CA        21.7570   24.9040    3.2670 C.3    70  ARG70       0.1563
    135  C         21.6270   24.8510    4.7530 C.2    70  ARG70       0.2260
    136  O         22.5770   25.1510    5.4930 O.2    70  ARG70      -0.2867
    137  CB        22.2900   23.5570    2.7490 C.3    70  ARG70       0.0307
    138  CG        22.3820   23.5820    1.2390 C.3    70  ARG70       0.0489
    139  CD        23.3650   22.5500    0.7550 C.3    70  ARG70       0.2205
    140  NE        24.6750   23.1910    0.8810 N.pl3  70  ARG70      -0.0865
    141  CZ        25.7940   22.7280    0.3690 C.cat  70  ARG70       0.5346
    142  NH1       25.8440   21.5340   -0.2350 N.pl3  70  ARG70       0.1354
    143  NH2       26.9040   23.4420    0.5220 N.pl3  70  ARG70       0.1354
    144  N         21.8070   13.1960    3.0750 N.3   115  VAL115     -0.1245
    145  CA        23.1000   13.1200    2.4620 C.3   115  VAL115      0.1561
    146  C         23.9600   12.0420    3.0990 C.2   115  VAL115      0.2260
    147  O         25.1620   12.0230    2.8860 O.2   115  VAL115     -0.2867
    148  CB        23.7770   14.5240    2.4770 C.3   115  VAL115      0.0252
    149  CG1       22.9380   15.4820    1.6430 C.3   115  VAL115      0.0019
    150  CG2       24.0460   15.0310    3.8620 C.3   115  VAL115      0.0019
    151  N         19.9670    6.5230    5.2190 N.3   121  TYR121     -0.1241
    152  CA        19.5150    6.1260    3.8930 C.3   121  TYR121      0.1605
    153  C         18.5460    4.9550    4.0080 C.2   121  TYR121      0.2264
    154  O         17.5450    4.8780    3.2810 O.2   121  TYR121     -0.2867
    155  CB        20.6820    5.6340    2.9930 C.3   121  TYR121      0.0534
    156  CG        21.5980    6.7000    2.4560 C.ar  121  TYR121     -0.0201
    157  CD1       21.1040    7.8800    1.9270 C.ar  121  TYR121     -0.0009
    158  CD2       22.9880    6.5180    2.4870 C.ar  121  TYR121     -0.0009
    159  CE1       21.9650    8.8380    1.3880 C.ar  121  TYR121      0.0417
    160  CE2       23.8570    7.4630    1.9770 C.ar  121  TYR121      0.0417
    161  CZ        23.3710    8.6210    1.4480 C.ar  121  TYR121      0.1957
    162  OH        24.2950    9.4720    0.9110 O.3   121  TYR121     -0.2866
    163  N         25.0040    8.5950   -7.6960 N.3   136  THR136     -0.1218
    164  CA        26.1640    8.6610   -8.6080 C.3   136  THR136      0.1862
    165  C         26.8060    7.2890   -8.5460 C.2   136  THR136      0.2287
    166  O         27.2440    6.9430   -7.4830 O.2   136  THR136     -0.2866
    167  CB        27.1970    9.7250   -8.1600 C.3   136  THR136      0.1770
    168  OG1       26.5740   11.0170   -8.0310 O.3   136  THR136     -0.2211
    169  CG2       28.3380    9.7940   -9.2180 C.3   136  THR136      0.0375
@<TRIPOS>BOND
     1    65    63   ar
     2    65    67   ar
     3    63    62   ar
     4    68    67    1
     5    67    66   ar
     6    62    61    1
     7    62    64   ar
     8   169   167    1
     9    61    58    1
    10    37    38    1
    11    66    64   ar
    12   164   165    1
    13   164   167    1
    14   164   163    1
    15   165   166    2
    16    58    57    1
    17    58    59    1
    18    38    41    1
    19    38    39    1
    20   167   168    1
    21    41    42    1
    22    42    43    1
    23    59    60    2
    24    59    69   am
    25    39    40    2
    26    39    46   am
    27    44    43   ar
    28    43    45   ar
    29    46    47    1
    30    69    70    1
    31    48    47    1
    32    48    49    2
    33    47    50    1
    34    12    11    2
    35    70    71    1
    36    70    73    1
    37     8     6    1
    38    20    17    1
    39    82    81    1
    40    82    83    2
    41    50    51    1
    42    17    18    1
    43    17    16    1
    44    80    71   am
    45    80    81    1
    46    71    72    2
    47    84    81    1
    48    84    85    1
    49     6     5    1
    50    18    19    2
    51    73    74    1
    52    85    86    1
    53    88    86   am
    54    11    16   am
    55    11    10    1
    56    53    51   ar
    57    53    55   ar
    58    51    52   ar
    59    86    87    2
    60    14    13    1
    61     5     2    1
    62     5     7    1
    63     9    10    1
    64     9     3   am
    65    55    56   ar
    66     2     3    1
    67     2     1    1
    68    10    13    1
    69    52    54   ar
    70    74    75   ar
    71    74    76   ar
    72    13    15    1
    73     3     4    2
    74    75    77   ar
    75    56    54   ar
    76    76    78   ar
    77    35    34    1
    78    77    79   ar
    79    33    34    1
    80    33    30    1
    81    78    79   ar
    82    34    36    1
    83   142   141    1
    84    31    32    2
    85    31    30    1
    86   141   143    1
    87   141   140    2
    88    30    29    1
    89   139   140    1
    90   139   138    1
    91   162   161    1
    92   138   137    1
    93   159   161   ar
    94   159   157   ar
    95   161   160   ar
    96   149   148    1
    97    29    23   am
    98   157   156   ar
    99   160   158   ar
   100   123   122    2
   101   156   158   ar
   102   156   155    1
   103   145   148    1
   104   145   144    1
   105   145   146    1
   106    27    26   ar
   107   148   150    1
   108   124   122   am
   109   122   121    1
   110   137   134    1
   111   133   134    1
   112   147   146    2
   113    28    26   ar
   114    23    24    2
   115    23    22    1
   116   155   152    1
   117    26    25    1
   118   132   130    1
   119   134   135    1
   120   154   153    2
   121   131   130    1
   122   129   130    1
   123   129   126    1
   124   121   118    1
   125    25    22    1
   126   127   126    1
   127   127   128    2
   128   152   153    1
   129   152   151    1
   130    22    21    1
   131   126   125    1
   132   115   116    1
   133   115   114    1
   134   116   110    1
   135   118   119    1
   136   118   117    1
   137   135   136    2
   138   120   119    2
   139   108   106    1
   140   114   111    1
   141   107   109    1
   142   107   106    1
   143   110   111    1
   144   110   104   am
   145    99    98    2
   146   103   106    1
   147   103   104    1
   148   103   102    1
   149    95    93    1
   150   101   100    1
   151   111   112    1
   152   113   112    2
   153   104   105    2
   154    98   102   am
   155    98    97    1
   156    94    93    1
   157   100    97    1
   158    93    90    1
   159    92    91    2
   160    97    96    1
   161    90    91    1
   162    90    89    1
