@<TRIPOS>MOLECULE
tmp/5hphA00.pdb
 217 208 0 0 0
SMALL
GASTEIGER

@<TRIPOS>ATOM
      1  N         -0.8160    7.3320   -3.9780 N.3    46  GLU46      -0.1231
      2  CA        -2.1610    6.7700   -3.9110 C.3    46  GLU46       0.1699
      3  C         -2.3210    5.8560   -2.7070 C.2    46  GLU46       0.2592
      4  O         -3.3640    5.8870   -2.0400 O.2    46  GLU46      -0.2718
      5  CB        -2.5010    6.0160   -5.1960 C.3    46  GLU46       0.0402
      6  CG        -2.8830    6.9330   -6.3700 C.3    46  GLU46       0.1161
      7  CD        -3.8020    8.0890   -5.9410 C.2    46  GLU46       0.3649
      8  OE1       -3.3110    9.2340   -5.7890 O.co2  46  GLU46      -0.2457
      9  OE2       -5.0200    7.8440   -5.7550 O.co2  46  GLU46      -0.2457
     10  N         -1.3080    5.0350   -2.4170 N.am   47  LEU47      -0.1980
     11  CA        -1.4120    4.1280   -1.2740 C.3    47  LEU47       0.1596
     12  C         -1.3810    4.8990    0.0450 C.2    47  LEU47       0.2287
     13  O         -2.0950    4.5440    0.9880 O.2    47  LEU47      -0.2864
     14  CB        -0.2960    3.0740   -1.3140 C.3    47  LEU47       0.0297
     15  CG        -0.3390    2.1340   -2.5300 C.3    47  LEU47       0.0022
     16  CD1        0.7950    1.1240   -2.5220 C.3    47  LEU47       0.0001
     17  CD2       -1.6850    1.4190   -2.6690 C.3    47  LEU47       0.0001
     18  N         -2.5170    7.9790    0.4930 N.3    49  SER49      -0.1202
     19  CA        -3.8240    8.6060    0.6940 C.3    49  SER49       0.2020
     20  C         -4.8540    7.5960    1.1880 C.2    49  SER49       0.2619
     21  O         -5.7210    7.9440    2.0040 O.2    49  SER49      -0.2717
     22  CB        -4.3220    9.2740   -0.5920 C.3    49  SER49       0.2103
     23  OG        -3.4100   10.2560   -1.0660 O.3    49  SER49      -0.2182
     24  N         -4.7590    6.3410    0.7310 N.am   50  ASN50      -0.1960
     25  CA        -5.6740    5.3100    1.1990 C.3    50  ASN50       0.1819
     26  C         -5.4080    4.9530    2.6610 C.2    50  ASN50       0.2621
     27  O         -6.3460    4.7900    3.4510 O.2    50  ASN50      -0.2715
     28  CB        -5.5700    4.0850    0.3000 C.3    50  ASN50       0.1195
     29  CG        -6.2150    4.3020   -1.0550 C.2    50  ASN50       0.2630
     30  OD1       -7.0400    5.1890   -1.2140 O.2    50  ASN50      -0.2716
     31  ND2       -5.8490    3.4720   -2.0390 N.am   50  ASN50      -0.0877
     32  N         -4.1330    4.8450    3.0330 N.am   51  ALA51      -0.1977
     33  CA        -3.7490    4.6850    4.4280 C.3    51  ALA51       0.1597
     34  C         -4.2850    5.8340    5.2730 C.2    51  ALA51       0.2287
     35  O         -4.9300    5.6180    6.3010 O.2    51  ALA51      -0.2864
     36  CB        -2.2310    4.6100    4.5240 C.3    51  ALA51       0.0319
     37  N         -6.7970    7.7470    4.6420 N.3    53  ASP53      -0.1225
     38  CA        -8.2590    7.6880    4.6960 C.3    53  ASP53       0.1805
     39  C         -8.7470    6.6100    5.6610 C.2    53  ASP53       0.2597
     40  O         -9.7690    6.7920    6.3370 O.2    53  ASP53      -0.2718
     41  CB        -8.8330    7.4180    3.3100 C.3    53  ASP53       0.1424
     42  CG        -8.7190    8.6060    2.3750 C.2    53  ASP53       0.3668
     43  OD1       -8.5070    9.7570    2.8610 O.co2  53  ASP53      -0.2456
     44  OD2       -8.8600    8.3620    1.1500 O.co2  53  ASP53      -0.2456
     45  N         -8.0510    5.4700    5.7030 N.am   54  ALA54      -0.1979
     46  CA        -8.3970    4.4030    6.6300 C.3    54  ALA54       0.1597
     47  C         -8.2610    4.8820    8.0710 C.2    54  ALA54       0.2287
     48  O         -9.1430    4.6530    8.9040 O.2    54  ALA54      -0.2864
     49  CB        -7.4880    3.1970    6.3660 C.3    54  ALA54       0.0319
     50  N        -11.0540    7.2940    8.9080 N.3    57  LYS57      -0.1245
     51  CA       -12.3140    6.6270    9.2440 C.3    57  LYS57       0.1561
     52  C        -12.2760    6.0530   10.6580 C.2    57  LYS57       0.2260
     53  O        -13.2050    6.2710   11.4460 O.2    57  LYS57      -0.2867
     54  CB       -12.6370    5.5290    8.2300 C.3    57  LYS57       0.0271
     55  CG       -12.8750    6.0340    6.7970 C.3    57  LYS57       0.0035
     56  CD       -13.0150    4.8530    5.8400 C.3    57  LYS57       0.0206
     57  CE       -13.2350    5.2870    4.4090 C.3    57  LYS57       0.1093
     58  NZ       -12.7400    4.2160    3.4720 N.3    57  LYS57      -0.1314
     59  N         -0.9750    0.3130    7.4890 N.3    89  ASP89      -0.1239
     60  CA        -1.6290    1.2900    8.3380 C.3    89  ASP89       0.1674
     61  C         -2.4100    0.5760    9.4270 C.2    89  ASP89       0.2266
     62  O         -2.8620   -0.5560    9.2470 O.2    89  ASP89      -0.2867
     63  CB        -2.5680    2.2350    7.5410 C.3    89  ASP89       0.1410
     64  CG        -3.8480    1.5490    7.0500 C.2    89  ASP89       0.3668
     65  OD1       -4.7960    1.3820    7.8610 O.co2  89  ASP89      -0.2456
     66  OD2       -3.9230    1.2290    5.8310 O.co2  89  ASP89      -0.2456
     67  N         -8.8010    1.6130    9.7590 N.3    92  ILE92      -0.1231
     68  CA       -10.0700    0.8900    9.9130 C.3    92  ILE92       0.1692
     69  C        -10.0710   -0.5340    9.3540 C.2    92  ILE92       0.2593
     70  O        -10.8630   -1.3680    9.8120 O.2    92  ILE92      -0.2718
     71  CB       -11.2340    1.7110    9.3040 C.3    92  ILE92       0.0266
     72  CG1      -12.5730    1.0920    9.7160 C.3    92  ILE92       0.0019
     73  CG2      -11.1140    1.8210    7.7620 C.3    92  ILE92       0.0020
     74  CD1      -13.6390    2.1110   10.0310 C.3    92  ILE92       0.0001
     75  N         -9.2050   -0.8520    8.4000 N.am   93  GLY93      -0.1942
     76  CA        -9.1720   -2.2160    7.8760 C.3    93  GLY93       0.2014
     77  C        -10.4160   -2.5900    7.0670 C.2    93  GLY93       0.2641
     78  O        -11.3040   -1.7730    6.7810 O.2    93  GLY93      -0.2714
     79  N        -10.4640   -3.8610    6.6740 N.am   94  MET94      -0.1931
     80  CA       -11.5250   -4.2950    5.7720 C.3    94  MET94       0.1821
     81  C        -12.0060   -5.6890    6.1460 C.2    94  MET94       0.2332
     82  O        -11.1920   -6.6070    6.2850 O.2    94  MET94      -0.2860
     83  CB       -11.0500   -4.2840    4.2980 C.2    94  MET94       0.0096
     84  CG       -10.9930   -2.9170    3.6420 C.2    94  MET94       0.0285
     85  SD       -10.4320   -2.9160    1.9080 S.3    94  MET94      -0.1125
     86  CE        -8.6660   -3.0730    2.1250 C.3    94  MET94       0.0742
     87  N        -14.5130   -3.2430   -2.2470 N.3   102  ASN102     -0.1225
     88  CA       -13.7740   -1.9980   -2.4170 C.3   102  ASN102      0.1785
     89  C        -12.5240   -2.1810   -3.2700 C.2   102  ASN102      0.2597
     90  O        -12.1770   -1.2900   -4.0490 O.2   102  ASN102     -0.2718
     91  CB       -13.4010   -1.4230   -1.0520 C.3   102  ASN102      0.1169
     92  CG       -14.6050   -1.0390   -0.2340 C.2   102  ASN102      0.2627
     93  OD1      -15.6100   -0.5620   -0.7590 O.2   102  ASN102     -0.2716
     94  ND2      -14.5100   -1.2440    1.0660 N.am  102  ASN102     -0.0877
     95  N        -11.7970   -3.2870   -3.0930 N.am  103  LEU103     -0.1980
     96  CA       -10.7010   -3.6090   -4.0060 C.3   103  LEU103      0.1596
     97  C        -11.1670   -4.2810   -5.2970 C.2   103  LEU103      0.2287
     98  O        -10.4630   -4.2050   -6.3130 O.2   103  LEU103     -0.2864
     99  CB        -9.6690   -4.5090   -3.3160 C.3   103  LEU103      0.0297
    100  CG        -9.0210   -3.9440   -2.0550 C.3   103  LEU103      0.0022
    101  CD1       -7.8710   -4.8640   -1.5770 C.3   103  LEU103      0.0001
    102  CD2       -8.5480   -2.4970   -2.3250 C.3   103  LEU103      0.0001
    103  N        -15.5450    1.5320   -7.3520 N.3   108  ARG108     -0.1231
    104  CA       -16.2000    1.4900   -6.0500 C.3   108  ARG108      0.1694
    105  C        -15.3190    2.2180   -5.0270 C.2   108  ARG108      0.2593
    106  O        -14.1440    1.8800   -4.8400 O.2   108  ARG108     -0.2718
    107  CB       -16.4610    0.0370   -5.6570 C.3   108  ARG108      0.0321
    108  CG       -16.6250   -0.2380   -4.1710 C.3   108  ARG108      0.0489
    109  CD       -17.7820    0.5130   -3.5100 C.3   108  ARG108      0.2205
    110  NE       -17.7500    0.3090   -2.0530 N.pl3 108  ARG108     -0.0865
    111  CZ       -18.6320    0.8070   -1.1850 C.cat 108  ARG108      0.5346
    112  NH1      -19.6310    1.5660   -1.5920 N.pl3 108  ARG108      0.1354
    113  NH2      -18.5120    0.5470    0.1030 N.pl3 108  ARG108      0.1354
    114  N        -15.8670    3.2530   -4.4000 N.am  109  SER109     -0.1938
    115  CA       -15.1160    4.0410   -3.4310 C.3   109  SER109      0.2055
    116  C        -15.8370    3.9560   -2.0940 C.2   109  SER109      0.2644
    117  O        -16.9100    4.5490   -1.9250 O.2   109  SER109     -0.2714
    118  CB       -14.9650    5.4940   -3.8920 C.3   109  SER109      0.2130
    119  OG       -14.4260    6.3280   -2.8680 O.3   109  SER109     -0.2179
    120  N        -15.2210    3.2510   -1.1390 N.am  110  GLY110     -0.1939
    121  CA       -15.7530    3.2280    0.2160 C.3   110  GLY110      0.2014
    122  C        -15.5980    4.5690    0.9000 C.2   110  GLY110      0.2639
    123  O        -16.4880    5.0150    1.6290 O.2   110  GLY110     -0.2714
    124  N        -14.4800    5.2480    0.6480 N.am  111  SER111     -0.1949
    125  CA       -14.2700    6.5760    1.2160 C.3   111  SER111      0.1924
    126  C        -15.3490    7.5610    0.7600 C.2   111  SER111      0.2314
    127  O        -15.8720    8.3400    1.5640 O.2   111  SER111     -0.2863
    128  CB       -12.8670    7.0620    0.8470 C.3   111  SER111      0.2116
    129  OG       -11.8740    6.2240    1.4380 O.3   111  SER111     -0.2180
    130  N         -9.9500   10.2300   -0.9250 N.3   130  GLY130     -0.1210
    131  CA       -10.4150    9.4010   -2.0450 C.3   130  GLY130      0.1956
    132  C        -11.8270    9.7450   -2.5150 C.2   130  GLY130      0.2612
    133  O        -12.7070   10.1050   -1.7280 O.2   130  GLY130     -0.2717
    134  N        -12.0130    9.7120   -3.8380 N.am  131  GLN131     -0.1965
    135  CA       -13.3060    9.8990   -4.5110 C.3   131  GLN131      0.1733
    136  C        -13.5560    8.8360   -5.5910 C.2   131  GLN131      0.2616
    137  O        -14.6730    8.3290   -5.7180 O.2   131  GLN131     -0.2715
    138  CB       -13.4630   11.3110   -5.0670 C.3   131  GLN131      0.0408
    139  CG       -12.2980   11.8280   -5.8830 C.3   131  GLN131      0.0908
    140  CD       -12.4110   13.3220   -6.1360 C.2   131  GLN131      0.2608
    141  OE1      -13.5040   13.8450   -6.3590 O.2   131  GLN131     -0.2717
    142  NE2      -11.2850   14.0160   -6.0880 N.am  131  GLN131     -0.0878
    143  N        -12.5970    8.6890   -6.5160 N.am  132  PHE132     -0.1960
    144  CA       -12.8110    8.0100   -7.7940 C.3   132  PHE132      0.1771
    145  C        -12.9770    6.4980   -7.6810 C.2   132  PHE132      0.2620
    146  O        -13.6340    5.8930   -8.5420 O.2   132  PHE132     -0.2715
    147  CB       -11.6440    8.3230   -8.7240 C.3   132  PHE132      0.0574
    148  CG       -11.4610    9.7790   -8.9680 C.ar  132  PHE132     -0.0200
    149  CD1      -12.4640   10.5150   -9.5970 C.ar  132  PHE132     -0.0042
    150  CD2      -10.2860   10.4230   -8.5740 C.ar  132  PHE132     -0.0042
    151  CE1      -12.3020   11.8750   -9.8350 C.ar  132  PHE132     -0.0003
    152  CE2      -10.1090   11.7760   -8.8060 C.ar  132  PHE132     -0.0003
    153  CZ       -11.1220   12.5040   -9.4410 C.ar  132  PHE132     -0.0000
    154  N        -12.3430    5.8620   -6.6960 N.am  133  GLY133     -0.1940
    155  CA       -12.3400    4.4180   -6.6030 C.3   133  GLY133      0.2014
    156  C        -11.3710    3.6900   -7.5210 C.2   133  GLY133      0.2639
    157  O        -11.5660    2.4910   -7.7640 O.2   133  GLY133     -0.2714
    158  N        -10.4570    4.3890   -8.1930 N.am  134  VAL134     -0.1963
    159  CA        -9.4360    3.7200   -8.9960 C.3   134  VAL134      0.1727
    160  C         -8.0210    3.7350   -8.4230 C.2   134  VAL134      0.2617
    161  O         -7.1890    2.9480   -8.8880 O.2   134  VAL134     -0.2715
    162  CB        -9.4210    4.3030  -10.4190 C.3   134  VAL134      0.0290
    163  CG1      -10.8310    4.2330  -10.9860 C.3   134  VAL134      0.0023
    164  CG2       -8.9280    5.7480  -10.3770 C.3   134  VAL134      0.0023
    165  N         -7.7330    4.5080   -7.3800 N.am  135  GLY135     -0.1940
    166  CA        -6.3360    4.8210   -7.1010 C.3   135  GLY135      0.2014
    167  C         -5.5160    3.6250   -6.6350 C.2   135  GLY135      0.2639
    168  O         -4.2960    3.5830   -6.8350 O.2   135  GLY135     -0.2714
    169  N         -6.1580    2.6480   -5.9910 N.am  136  PHE136     -0.1959
    170  CA        -5.4220    1.4690   -5.5560 C.3   136  PHE136      0.1771
    171  C         -4.8530    0.6910   -6.7440 C.2   136  PHE136      0.2619
    172  O         -3.7640    0.1160   -6.6400 O.2   136  PHE136     -0.2715
    173  CB        -6.3290    0.5700   -4.6960 C.3   136  PHE136      0.0574
    174  CG        -5.7800   -0.8010   -4.4710 C.ar  136  PHE136     -0.0200
    175  CD1       -4.8670   -1.0350   -3.4630 C.ar  136  PHE136     -0.0042
    176  CD2       -6.1660   -1.8590   -5.2810 C.ar  136  PHE136     -0.0042
    177  CE1       -4.3500   -2.2970   -3.2530 C.ar  136  PHE136     -0.0003
    178  CE2       -5.6480   -3.1310   -5.0740 C.ar  136  PHE136     -0.0003
    179  CZ        -4.7410   -3.3480   -4.0600 C.ar  136  PHE136     -0.0000
    180  N         -5.5610    0.6800   -7.8810 N.am  137  TYR137     -0.1974
    181  CA        -5.0970   -0.0500   -9.0650 C.3   137  TYR137      0.1639
    182  C         -3.8150    0.5330   -9.6320 C.2   137  TYR137      0.2290
    183  O         -3.1050   -0.1610  -10.3580 O.2   137  TYR137     -0.2864
    184  CB        -6.2040   -0.0810  -10.1280 C.3   137  TYR137      0.0560
    185  CG        -7.5330   -0.5840   -9.5590 C.ar  137  TYR137     -0.0198
    186  CD1       -7.6070   -1.7940   -8.8660 C.ar  137  TYR137     -0.0009
    187  CD2       -8.6930    0.1660   -9.6740 C.ar  137  TYR137     -0.0009
    188  CE1       -8.8170   -2.2610   -8.3450 C.ar  137  TYR137      0.0417
    189  CE2       -9.9070   -0.2890   -9.1590 C.ar  137  TYR137      0.0417
    190  CZ        -9.9650   -1.4990   -8.4990 C.ar  137  TYR137      0.1957
    191  OH       -11.1700   -1.9360   -7.9850 O.3   137  TYR137     -0.2866
    192  N         -4.4210   -2.4740    7.4870 N.3   182  THR182     -0.1218
    193  CA        -4.1980   -3.0510    6.1720 C.3   182  THR182      0.1862
    194  C         -2.7120   -3.0100    5.8600 C.2   182  THR182      0.2287
    195  O         -2.0560   -1.9890    6.0740 O.2   182  THR182     -0.2866
    196  CB        -5.0090   -2.3070    5.1110 C.3   182  THR182      0.1770
    197  OG1       -6.3850   -2.2940    5.5050 O.3   182  THR182     -0.2211
    198  CG2       -4.8860   -2.9900    3.7660 C.3   182  THR182      0.0375
    199  N         -0.1990   -3.7630    2.6460 N.3   184  ILE184     -0.1245
    200  CA        -0.1310   -3.9940    1.2160 C.3   184  ILE184      0.1561
    201  C          1.3210   -4.2850    0.8660 C.2   184  ILE184      0.2260
    202  O          2.2160   -3.4860    1.1730 O.2   184  ILE184     -0.2867
    203  CB        -0.6630   -2.7950    0.4220 C.3   184  ILE184      0.0252
    204  CG1       -2.1040   -2.4770    0.8390 C.3   184  ILE184      0.0019
    205  CG2       -0.5380   -3.0750   -1.0620 C.3   184  ILE184      0.0019
    206  CD1       -2.6480   -1.2190    0.2250 C.3   184  ILE184      0.0001
    207  N         -5.2840   13.1930  -10.7930 N.3   333  ARG333     -0.1245
    208  CA        -4.9210   14.0110   -9.6380 C.3   333  ARG333      0.1563
    209  C         -3.6070   14.7800   -9.8470 C.2   333  ARG333      0.2260
    210  O         -2.9570   15.1810   -8.8750 O.2   333  ARG333     -0.2867
    211  CB        -4.8490   13.1520   -8.3710 C.3   333  ARG333      0.0307
    212  CG        -6.1240   12.3450   -8.1160 C.3   333  ARG333      0.0489
    213  CD        -5.9910   11.3990   -6.8750 C.3   333  ARG333      0.2205
    214  NE        -7.3170   11.1050   -6.3620 N.pl3 333  ARG333     -0.0865
    215  CZ        -7.9300   11.8850   -5.4770 C.cat 333  ARG333      0.5346
    216  NH1       -7.2990   12.9530   -5.0190 N.pl3 333  ARG333      0.1354
    217  NH2       -9.1490   11.5940   -5.0420 N.pl3 333  ARG333      0.1354
@<TRIPOS>BOND
     1   163   162    1
     2   207   208    1
     3   162   164    1
     4   162   159    1
     5   183   182    2
     6   184   185    1
     7   184   181    1
     8   209   208    1
     9   209   210    2
    10   151   149   ar
    11   151   153   ar
    12   187   185   ar
    13   187   189   ar
    14   208   211    1
    15   182   181    1
    16   149   148   ar
    17   185   186   ar
    18   153   152   ar
    19   189   190   ar
    20   181   180    1
    21   159   160    1
    22   159   158    1
    23   148   147    1
    24   148   150   ar
    25   161   160    2
    26   186   188   ar
    27   152   150   ar
    28   147   144    1
    29   146   145    2
    30   190   188   ar
    31   190   191    1
    32   160   165   am
    33   211   212    1
    34   158   156   am
    35   212   213    1
    36   180   171   am
    37   144   145    1
    38   144   143    1
    39   157   156    2
    40   145   154   am
    41   156   155    1
    42   165   166    1
    43   103   104    1
    44   166   167    1
    45   213   214    1
    46   168   167    2
    47   171   172    2
    48   171   170    1
    49   154   155    1
    50   167   169   am
    51   143   136   am
    52     6     7    1
    53     6     5    1
    54   214   215    2
    55   141   140    2
    56    98    97    2
    57   140   142   am
    58   140   139    1
    59   104   107    1
    60   104   105    1
    61   169   170    1
    62     7     8   ar
    63     7     9   ar
    64   139   138    1
    65   137   136    2
    66   107   108    1
    67   136   135    1
    68   170   173    1
    69   215   217    1
    70   215   216    1
    71    97    96    1
    72   176   178   ar
    73   176   174   ar
    74     5     2    1
    75   178   179   ar
    76   138   135    1
    77   105   106    2
    78   105   114   am
    79   173   174    1
    80   135   134    1
    81   174   175   ar
    82   114   115    1
    83   108   109    1
    84   179   177   ar
    85    90    89    2
    86    96    99    1
    87    96    95    1
    88     1     2    1
    89     2     3    1
    90   118   115    1
    91   118   119    1
    92   134   132   am
    93   109   110    1
    94   175   177   ar
    95   115   116    1
    96    99   100    1
    97    89    95   am
    98    89    88    1
    99     3    10   am
   100     3     4    2
   101    17    15    1
   102    15    16    1
   103    15    14    1
   104   132   131    1
   105   132   133    2
   106    10    11    1
   107    88    87    1
   108    88    91    1
   109   102   100    1
   110   116   117    2
   111   116   120   am
   112   100   101    1
   113   110   111    2
   114   131   130    1
   115    31    29   am
   116   112   111    1
   117    14    11    1
   118    11    12    1
   119    30    29    2
   120   111   113    1
   121   120   121    1
   122    23    22    1
   123   205   203    1
   124    29    28    1
   125    91    92    1
   126    93    92    2
   127    22    19    1
   128    92    94   am
   129    12    13    2
   130   121   122    1
   131   206   204    1
   132    28    25    1
   133   203   204    1
   134   203   200    1
   135    18    19    1
   136   124   122   am
   137   124   125    1
   138    19    20    1
   139    24    20   am
   140    24    25    1
   141   126   125    1
   142   126   127    2
   143   128   125    1
   144   128   129    1
   145   201   202    2
   146   201   200    1
   147   122   123    2
   148    44    42   ar
   149    20    21    2
   150    25    26    1
   151   200   199    1
   152    85    86    1
   153    85    84    1
   154    42    43   ar
   155    42    41    1
   156    26    32   am
   157    26    27    2
   158    32    33    1
   159    41    38    1
   160    58    57    1
   161    84    83    2
   162   198   196    1
   163    83    80    1
   164    57    56    1
   165    33    36    1
   166    33    34    1
   167    37    38    1
   168    38    39    1
   169   196   197    1
   170   196   193    1
   171    34    35    2
   172    39    45   am
   173    39    40    2
   174    45    46    1
   175    80    81    1
   176    80    79    1
   177    66    64   ar
   178    56    55    1
   179   194   195    2
   180   194   193    1
   181    81    82    2
   182   193   192    1
   183    49    46    1
   184    46    47    1
   185    79    77   am
   186    78    77    2
   187    55    54    1
   188    64    63    1
   189    64    65   ar
   190    77    76    1
   191    59    60    1
   192    63    60    1
   193    73    71    1
   194    76    75    1
   195    47    48    2
   196    54    51    1
   197    60    61    1
   198    75    69   am
   199    50    51    1
   200    51    52    1
   201    62    61    2
   202    71    72    1
   203    71    68    1
   204    69    70    2
   205    69    68    1
   206    72    74    1
   207    67    68    1
   208    52    53    2
