@<TRIPOS>MOLECULE
tmp/5hpiA00.pdb
 109 105 0 0 0
SMALL
GASTEIGER

@<TRIPOS>ATOM
      1  N        -48.5490  -32.5280  -20.4850 N.3    49  PRO49      -0.2102
      2  CA       -47.4420  -33.3640  -19.9980 C.3    49  PRO49       0.1504
      3  C        -47.2640  -33.3610  -18.4830 C.2    49  PRO49       0.2576
      4  O        -47.9800  -32.6620  -17.7600 O.2    49  PRO49      -0.2718
      5  CB       -46.2240  -32.7500  -20.7040 C.3    49  PRO49       0.0282
      6  CG       -46.7780  -32.1980  -21.9720 C.3    49  PRO49       0.0208
      7  CD       -48.1420  -31.6780  -21.6190 C.3    49  PRO49       0.0893
      8  N        -46.3160  -34.1640  -17.9960 N.am   50  TYR50      -0.1963
      9  CA       -45.9810  -34.1950  -16.5750 C.3    50  TYR50       0.1771
     10  C        -45.4680  -32.8350  -16.1210 C.2    50  TYR50       0.2620
     11  O        -44.4430  -32.3530  -16.6150 O.2    50  TYR50      -0.2715
     12  CB       -44.9120  -35.2580  -16.2970 C.3    50  TYR50       0.0574
     13  CG       -45.3810  -36.6980  -16.1420 C.ar   50  TYR50      -0.0198
     14  CD1      -44.4610  -37.7490  -16.1820 C.ar   50  TYR50      -0.0009
     15  CD2      -46.7250  -37.0110  -15.9420 C.ar   50  TYR50      -0.0009
     16  CE1      -44.8640  -39.0620  -16.0350 C.ar   50  TYR50       0.0417
     17  CE2      -47.1370  -38.3310  -15.7930 C.ar   50  TYR50       0.0417
     18  CZ       -46.1990  -39.3470  -15.8400 C.ar   50  TYR50       0.1957
     19  OH       -46.5880  -40.6550  -15.6950 O.3    50  TYR50      -0.2866
     20  N        -46.1680  -32.2240  -15.1680 N.am   51  GLY51      -0.1954
     21  CA       -45.7170  -31.0070  -14.5350 C.3    51  GLY51       0.1869
     22  C        -46.2770  -29.7260  -15.1150 C.2    51  GLY51       0.2309
     23  O        -46.1360  -28.6700  -14.4840 O.2    51  GLY51      -0.2863
     24  N        -41.6490  -32.0380   -9.8220 N.3    57  LEU57      -0.1245
     25  CA       -40.5740  -32.4310  -10.7150 C.3    57  LEU57       0.1561
     26  C        -39.2220  -32.2210  -10.0430 C.2    57  LEU57       0.2260
     27  O        -39.0910  -31.3910   -9.1360 O.2    57  LEU57      -0.2867
     28  CB       -40.6260  -31.6280  -12.0220 C.3    57  LEU57       0.0270
     29  CG       -41.9040  -31.6060  -12.8530 C.3    57  LEU57       0.0019
     30  CD1      -42.7810  -30.4090  -12.4790 C.3    57  LEU57       0.0001
     31  CD2      -41.5400  -31.5740  -14.3290 C.3    57  LEU57       0.0001
     32  N        -33.5070  -30.8540  -13.5180 N.3    61  ALA61      -0.1231
     33  CA       -33.8670  -31.0690  -14.9080 C.3    61  ALA61       0.1694
     34  C        -34.8090  -30.0110  -15.4550 C.2    61  ALA61       0.2593
     35  O        -34.9940  -29.9350  -16.6760 O.2    61  ALA61      -0.2718
     36  CB       -34.5020  -32.4610  -15.0850 C.3    61  ALA61       0.0304
     37  N        -35.3970  -29.1940  -14.5950 N.am   62  THR62      -0.1939
     38  CA       -36.2980  -28.1270  -14.9930 C.3    62  THR62       0.2028
     39  C        -35.5610  -26.7940  -15.0810 C.2    62  THR62       0.2643
     40  O        -34.5890  -26.5460  -14.3640 O.2    62  THR62      -0.2714
     41  CB       -37.4590  -28.0020  -14.0040 C.3    62  THR62       0.1808
     42  OG1      -36.9440  -27.6930  -12.7030 O.3    62  THR62      -0.2208
     43  CG2      -38.2450  -29.2950  -13.9420 C.3    62  THR62       0.0379
     44  N        -36.0400  -25.9380  -15.9840 N.am   63  SER63      -0.1935
     45  CA       -35.5580  -24.5620  -16.0240 C.3    63  SER63       0.2055
     46  C        -35.8820  -23.8340  -14.7240 C.2    63  SER63       0.2643
     47  O        -35.0520  -23.0800  -14.1960 O.2    63  SER63      -0.2714
     48  CB       -36.1620  -23.8240  -17.2270 C.3    63  SER63       0.2130
     49  OG       -37.5790  -23.9780  -17.2890 O.3    63  SER63      -0.2179
     50  N        -37.0860  -24.0500  -14.1920 N.am   64  THR64      -0.1950
     51  CA       -37.4290  -23.4650  -12.9050 C.3    64  THR64       0.1897
     52  C        -36.4180  -23.8740  -11.8430 C.2    64  THR64       0.2313
     53  O        -35.6960  -23.0300  -11.3030 O.2    64  THR64      -0.2863
     54  CB       -38.8490  -23.8660  -12.4950 C.3    64  THR64       0.1794
     55  OG1      -39.2240  -25.0840  -13.1650 O.3    64  THR64      -0.2208
     56  CG2      -39.8380  -22.7550  -12.8400 C.3    64  THR64       0.0378
     57  N        -34.1830  -24.6310  -20.5860 N.3   115  SER115     -0.1217
     58  CA       -33.9490  -26.0650  -20.4560 C.3   115  SER115      0.1889
     59  C        -34.7390  -26.7680  -21.5480 C.2   115  SER115      0.2288
     60  O        -35.9650  -26.6330  -21.6160 O.2   115  SER115     -0.2866
     61  CB       -34.3600  -26.5650  -19.0710 C.3   115  SER115      0.2089
     62  OG       -34.9270  -27.8650  -19.1480 O.3   115  SER115     -0.2183
     63  N        -35.9140  -32.9120  -18.8630 N.3   119  HIS119     -0.1226
     64  CA       -36.6720  -33.7830  -17.9800 C.3   119  HIS119      0.1752
     65  C        -37.5980  -34.7330  -18.7150 C.2   119  HIS119      0.2595
     66  O        -37.7630  -35.8680  -18.2710 O.2   119  HIS119     -0.2718
     67  CB       -37.5180  -32.9670  -16.9830 C.3   119  HIS119      0.0759
     68  CG       -38.7730  -33.6650  -16.5670 C.ar  119  HIS119      0.0818
     69  ND1      -39.9970  -33.3870  -17.1370 N.ar  119  HIS119     -0.2268
     70  CD2      -38.9870  -34.6670  -15.6810 C.ar  119  HIS119      0.1154
     71  CE1      -40.9160  -34.1740  -16.6050 C.ar  119  HIS119      0.1986
     72  NE2      -40.3290  -34.9620  -15.7200 N.ar  119  HIS119     -0.2212
     73  N        -38.1810  -34.3110  -19.8330 N.am  120  GLU120     -0.1979
     74  CA       -39.1090  -35.1470  -20.5720 C.3   120  GLU120      0.1602
     75  C        -38.9790  -34.8520  -22.0550 C.2   120  GLU120      0.2287
     76  O        -38.8530  -33.6980  -22.4490 O.2   120  GLU120     -0.2864
     77  CB       -40.5440  -34.9170  -20.1160 C.3   120  GLU120      0.0415
     78  CG       -41.5860  -35.5130  -21.0340 C.3   120  GLU120      0.1163
     79  CD       -42.9880  -35.2810  -20.5030 C.2   120  GLU120      0.3649
     80  OE1      -43.0940  -34.5770  -19.4730 O.co2 120  GLU120     -0.2457
     81  OE2      -43.9720  -35.7800  -21.0990 O.co2 120  GLU120     -0.2457
     82  N        -40.4490  -31.5620  -24.6040 N.3   123  VAL123     -0.1231
     83  CA       -40.9270  -30.4890  -23.7380 C.3   123  VAL123      0.1692
     84  C        -39.7950  -29.4860  -23.5360 C.2   123  VAL123      0.2592
     85  O        -38.6470  -29.8710  -23.3030 O.2   123  VAL123     -0.2718
     86  CB       -41.4310  -31.0430  -22.3840 C.3   123  VAL123      0.0266
     87  CG1      -41.6210  -29.9180  -21.3820 C.3   123  VAL123      0.0020
     88  CG2      -42.7300  -31.7950  -22.5730 C.3   123  VAL123      0.0020
     89  N        -40.1090  -28.1980  -23.6280 N.am  124  ILE124     -0.1966
     90  CA       -39.1030  -27.1520  -23.4810 C.3   124  ILE124      0.1727
     91  C        -39.6170  -26.0960  -22.5070 C.2   124  ILE124      0.2616
     92  O        -40.8290  -25.9190  -22.3520 O.2   124  ILE124     -0.2715
     93  CB       -38.7440  -26.5300  -24.8540 C.3   124  ILE124      0.0290
     94  CG1      -37.4630  -25.7060  -24.7570 C.3   124  ILE124      0.0022
     95  CG2      -39.8840  -25.6990  -25.4090 C.3   124  ILE124      0.0023
     96  CD1      -36.9100  -25.3050  -26.0880 C.3   124  ILE124      0.0001
     97  N        -38.6970  -25.3880  -21.8410 N.am  125  ALA125     -0.1977
     98  CA       -39.1190  -24.3090  -20.9470 C.3   125  ALA125      0.1597
     99  C        -38.0320  -23.2580  -20.7790 C.2   125  ALA125      0.2287
    100  O        -36.8400  -23.5590  -20.8500 O.2   125  ALA125     -0.2864
    101  CB       -39.5280  -24.8310  -19.5660 C.3   125  ALA125      0.0319
    102  N        -42.1970  -19.3910  -15.3060 N.3   142  ASN142     -0.1240
    103  CA       -41.6130  -20.1300  -16.4090 C.3   142  ASN142      0.1653
    104  C        -42.6320  -20.3230  -17.5160 C.2   142  ASN142      0.2266
    105  O        -43.8390  -20.1490  -17.3280 O.2   142  ASN142     -0.2867
    106  CB       -41.0480  -21.4700  -15.9200 C.3   142  ASN142      0.1155
    107  CG       -41.9610  -22.6200  -16.2080 C.2   142  ASN142      0.2627
    108  OD1      -43.1300  -22.6310  -15.8110 O.2   142  ASN142     -0.2716
    109  ND2      -41.4370  -23.5990  -16.9190 N.am  142  ASN142     -0.0877
@<TRIPOS>BOND
     1    96    94    1
     2    95    93    1
     3    93    94    1
     4    93    90    1
     5    82    83    1
     6    83    84    1
     7    83    86    1
     8    89    84   am
     9    89    90    1
    10    84    85    2
    11    90    91    1
    12    88    86    1
    13    91    92    2
    14    91    97   am
    15    76    75    2
    16    86    87    1
    17    75    74    1
    18     6     7    1
    19     6     5    1
    20    97    98    1
    21     7     1    1
    22    60    59    2
    23    59    58    1
    24    81    79   ar
    25    78    79    1
    26    78    77    1
    27    98    99    1
    28    98   101    1
    29   100    99    2
    30     5     2    1
    31    57    58    1
    32    74    77    1
    33    74    73    1
    34    79    80   ar
    35     1     2    1
    36    58    61    1
    37     2     3    1
    38    73    65   am
    39    62    61    1
    40    63    64    1
    41    65    66    2
    42    65    64    1
    43     3     8   am
    44     3     4    2
    45     8     9    1
    46    64    67    1
    47   104   105    2
    48   104   103    1
    49    49    48    1
    50    48    45    1
    51    69    71   ar
    52    69    68   ar
    53    67    68    1
    54   109   107   am
    55    35    34    2
    56    11    10    2
    57    71    72   ar
    58     9    12    1
    59     9    10    1
    60    68    70   ar
    61   103   106    1
    62   103   102    1
    63    12    13    1
    64   107   106    1
    65   107   108    2
    66    14    13   ar
    67    14    16   ar
    68    13    15   ar
    69    10    20   am
    70    16    18   ar
    71    45    44    1
    72    45    46    1
    73    44    39   am
    74    15    17   ar
    75    18    17   ar
    76    18    19    1
    77    72    70   ar
    78    34    33    1
    79    34    37   am
    80    20    21    1
    81    22    21    1
    82    22    23    2
    83    36    33    1
    84    39    38    1
    85    39    40    2
    86    38    37    1
    87    38    41    1
    88    33    32    1
    89    46    47    2
    90    46    50   am
    91    31    29    1
    92    50    51    1
    93    41    43    1
    94    41    42    1
    95    55    54    1
    96    51    54    1
    97    51    52    1
    98    29    30    1
    99    29    28    1
   100    56    54    1
   101    28    25    1
   102    52    53    2
   103    25    26    1
   104    25    24    1
   105    26    27    2
