@<TRIPOS>MOLECULE
tmp/5hpmA00.pdb
 169 163 0 0 0
SMALL
GASTEIGER

@<TRIPOS>ATOM
      1  N        -16.8150   25.8760   24.1100 N.3     9  VAL9       -0.1231
      2  CA       -15.9660   26.8560   24.7760 C.3     9  VAL9        0.1692
      3  C        -14.9940   26.2010   25.7460 C.2     9  VAL9        0.2591
      4  O        -13.9550   26.7930   26.0610 O.2     9  VAL9       -0.2718
      5  CB       -16.8120   27.9150   25.5030 C.3     9  VAL9        0.0266
      6  CG1      -17.7850   28.5690   24.5350 C.3     9  VAL9        0.0020
      7  CG2      -17.5530   27.2980   26.6790 C.3     9  VAL9        0.0020
      8  N        -15.2960   24.9960   26.2280 N.am   10  ILE10      -0.1980
      9  CA       -14.4150   24.2620   27.1300 C.3    10  ILE10       0.1595
     10  C        -14.3280   22.8190   26.6570 C.2    10  ILE10       0.2287
     11  O        -15.3410   22.2080   26.3010 O.2    10  ILE10      -0.2864
     12  CB       -14.9060   24.3100   28.5930 C.3    10  ILE10       0.0276
     13  CG1      -15.2010   25.7440   29.0290 C.3    10  ILE10       0.0022
     14  CG2      -13.8760   23.6880   29.5200 C.3    10  ILE10       0.0022
     15  CD1      -16.2110   25.8270   30.1520 C.3    10  ILE10       0.0001
     16  N         -2.1920   29.5940   23.1880 N.3    38  GLN38      -0.1231
     17  CA        -1.8270   30.5650   24.2150 C.3    38  GLN38       0.1698
     18  C         -1.7930   29.8700   25.5690 C.2    38  GLN38       0.2592
     19  O         -2.8450   29.5770   26.1460 O.2    38  GLN38      -0.2718
     20  CB        -2.7950   31.7490   24.2340 C.3    38  GLN38       0.0381
     21  CG        -2.4340   32.8070   25.2670 C.3    38  GLN38       0.0905
     22  CD        -3.2090   34.0980   25.0860 C.2    38  GLN38       0.2608
     23  OE1       -4.4190   34.0860   24.8490 O.2    38  GLN38      -0.2717
     24  NE2       -2.5110   35.2220   25.1940 N.am   38  GLN38      -0.0878
     25  N         -0.5880   29.6120   26.0700 N.am   39  ARG39      -0.1966
     26  CA        -0.4020   29.0680   27.4040 C.3    39  ARG39       0.1729
     27  C         -0.5160   30.1760   28.4460 C.2    39  ARG39       0.2617
     28  O         -0.5890   31.3650   28.1240 O.2    39  ARG39      -0.2715
     29  CB         0.9530   28.3730   27.5170 C.3    39  ARG39       0.0348
     30  CG         1.0700   27.0830   26.7260 C.3    39  ARG39       0.0492
     31  CD         2.4980   26.5750   26.7480 C.3    39  ARG39       0.2205
     32  NE         2.6350   25.2900   26.0710 N.pl3  39  ARG39      -0.0865
     33  CZ         3.8000   24.7270   25.7720 C.cat  39  ARG39       0.5346
     34  NH1        4.9340   25.3400   26.0840 N.pl3  39  ARG39       0.1354
     35  NH2        3.8310   23.5550   25.1560 N.pl3  39  ARG39       0.1354
     36  N         -0.5260   29.7700   29.7150 N.am   40  THR40      -0.1937
     37  CA        -0.6590   30.7210   30.8120 C.3    40  THR40       0.2028
     38  C          0.4650   31.7500   30.7740 C.2    40  THR40       0.2642
     39  O          1.6460   31.3970   30.6910 O.2    40  THR40      -0.2714
     40  CB        -0.6560   29.9840   32.1530 C.3    40  THR40       0.1808
     41  OG1       -1.7650   29.0750   32.2010 O.3    40  THR40      -0.2208
     42  CG2       -0.7680   30.9690   33.3090 C.3    40  THR40       0.0379
     43  N          0.0840   33.0290   30.8220 N.am   41  ASN41      -0.1957
     44  CA         1.0090   34.1640   30.8080 C.3    41  ASN41       0.1819
     45  C          1.8100   34.2570   29.5120 C.2    41  ASN41       0.2622
     46  O          2.8550   34.9130   29.4690 O.2    41  ASN41      -0.2715
     47  CB         1.9580   34.1240   32.0140 C.3    41  ASN41       0.1195
     48  CG         1.2760   34.5250   33.3080 C.2    41  ASN41       0.2630
     49  OD1        1.4000   33.8460   34.3280 O.2    41  ASN41      -0.2716
     50  ND2        0.5500   35.6380   33.2720 N.am   41  ASN41      -0.0877
     51  N          1.3340   33.6270   28.4400 N.am   42  GLY42      -0.1940
     52  CA         2.0510   33.5830   27.1880 C.3    42  GLY42       0.2014
     53  C          1.4120   34.4410   26.1050 C.2    42  GLY42       0.2639
     54  O          0.2950   34.9400   26.2280 O.2    42  GLY42      -0.2714
     55  N          2.1660   34.6200   25.0370 N.am   43  SER43      -0.1949
     56  CA         1.6560   35.2140   23.8140 C.3    43  SER43       0.1924
     57  C          1.1880   34.1170   22.8700 C.2    43  SER43       0.2314
     58  O          1.5600   32.9510   23.0310 O.2    43  SER43      -0.2863
     59  CB         2.7410   36.0630   23.1520 C.3    43  SER43       0.2116
     60  OG         3.1760   37.1010   24.0150 O.3    43  SER43      -0.2180
     61  N         -2.0950   22.0860   27.8610 N.3    83  ILE83      -0.1231
     62  CA        -3.0900   22.8960   28.5540 C.3    83  ILE83       0.1692
     63  C         -2.9170   24.3500   28.1320 C.2    83  ILE83       0.2592
     64  O         -1.8850   24.9730   28.4110 O.2    83  ILE83      -0.2718
     65  CB        -2.9570   22.7350   30.0730 C.3    83  ILE83       0.0266
     66  CG1       -3.2440   21.2840   30.4760 C.3    83  ILE83       0.0019
     67  CG2       -3.8750   23.7100   30.8000 C.3    83  ILE83       0.0020
     68  CD1       -2.9650   20.9770   31.9320 C.3    83  ILE83       0.0001
     69  N         -3.9220   24.8920   27.4570 N.am   84  ALA84      -0.1966
     70  CA        -3.8810   26.2610   26.9490 C.3    84  ALA84       0.1728
     71  C         -5.2700   26.6140   26.4290 C.2    84  ALA84       0.2616
     72  O         -6.2300   25.8530   26.5970 O.2    84  ALA84      -0.2715
     73  CB        -2.8210   26.4170   25.8560 C.3    84  ALA84       0.0334
     74  N         -5.3750   27.7850   25.8100 N.am   85  ASP85      -0.1971
     75  CA        -6.5120   28.1600   24.9890 C.3    85  ASP85       0.1709
     76  C         -6.0770   28.1400   23.5310 C.2    85  ASP85       0.2293
     77  O         -4.9070   28.3740   23.2150 O.2    85  ASP85      -0.2864
     78  CB        -7.0390   29.5490   25.3610 C.3    85  ASP85       0.1436
     79  CG        -7.1880   29.7360   26.8570 C.2    85  ASP85       0.3671
     80  OD1       -7.5270   28.7540   27.5500 O.co2  85  ASP85      -0.2456
     81  OD2       -6.9620   30.8650   27.3420 O.co2  85  ASP85      -0.2456
     82  N         -7.0990   29.4240   19.5320 N.3    87  TYR87      -0.1241
     83  CA        -7.8450   30.3910   18.7440 C.3    87  TYR87       0.1605
     84  C         -7.6760   30.1090   17.2590 C.2    87  TYR87       0.2264
     85  O         -6.6370   29.6050   16.8220 O.2    87  TYR87      -0.2867
     86  CB        -7.3780   31.8190   19.0340 C.3    87  TYR87       0.0534
     87  CG        -7.6120   32.2630   20.4560 C.ar   87  TYR87      -0.0201
     88  CD1       -6.6690   32.0180   21.4460 C.ar   87  TYR87      -0.0009
     89  CD2       -8.7760   32.9280   20.8110 C.ar   87  TYR87      -0.0009
     90  CE1       -6.8800   32.4240   22.7520 C.ar   87  TYR87       0.0417
     91  CE2       -8.9970   33.3380   22.1130 C.ar   87  TYR87       0.0417
     92  CZ        -8.0450   33.0840   23.0810 C.ar   87  TYR87       0.1957
     93  OH        -8.2570   33.4910   24.3810 O.3    87  TYR87      -0.2866
     94  N        -13.2400   33.3190   19.4440 N.3   100  ALA100     -0.1231
     95  CA       -13.2560   33.5720   20.8790 C.3   100  ALA100      0.1694
     96  C        -12.4790   32.5340   21.6780 C.2   100  ALA100      0.2593
     97  O        -12.2250   32.7510   22.8690 O.2   100  ALA100     -0.2718
     98  CB       -14.6980   33.6410   21.3850 C.3   100  ALA100      0.0304
     99  N        -12.1050   31.4170   21.0640 N.am  101  GLY101     -0.1942
    100  CA       -11.1920   30.4830   21.6820 C.3   101  GLY101      0.2014
    101  C        -11.9030   29.3320   22.3770 C.2   101  GLY101      0.2640
    102  O        -13.1020   29.3750   22.6630 O.2   101  GLY101     -0.2714
    103  N        -11.1310   28.2830   22.6460 N.am  102  THR102     -0.1936
    104  CA       -11.5940   27.1070   23.3690 C.3   102  THR102      0.2028
    105  C        -10.5570   26.7490   24.4230 C.2   102  THR102      0.2642
    106  O         -9.3560   26.7460   24.1380 O.2   102  THR102     -0.2714
    107  CB       -11.8280   25.9270   22.4110 C.3   102  THR102      0.1808
    108  OG1      -12.9960   26.1790   21.6210 O.3   102  THR102     -0.2208
    109  CG2      -12.0160   24.6280   23.1760 C.3   102  THR102      0.0379
    110  N        -11.0200   26.4690   25.6390 N.am  103  LYS103     -0.1963
    111  CA       -10.1440   26.1180   26.7490 C.3   103  LYS103      0.1728
    112  C         -9.9650   24.6040   26.7990 C.2   103  LYS103      0.2616
    113  O        -10.9490   23.8590   26.7640 O.2   103  LYS103     -0.2715
    114  CB       -10.7330   26.6370   28.0630 C.3   103  LYS103      0.0311
    115  CG        -9.8320   26.5280   29.2840 C.3   103  LYS103      0.0038
    116  CD       -10.5220   27.1290   30.5070 C.3   103  LYS103      0.0206
    117  CE        -9.6790   27.0090   31.7690 C.3   103  LYS103      0.1093
    118  NZ        -8.5360   27.9610   31.7870 N.3   103  LYS103     -0.1314
    119  N         -8.7090   24.1520   26.8650 N.am  104  LEU104     -0.1977
    120  CA        -8.3920   22.7290   26.9640 C.3   104  LEU104      0.1596
    121  C         -7.9800   22.4020   28.3960 C.2   104  LEU104      0.2287
    122  O         -6.8830   22.7650   28.8350 O.2   104  LEU104     -0.2864
    123  CB        -7.2870   22.3310   25.9880 C.3   104  LEU104      0.0297
    124  CG        -6.8970   20.8510   26.0890 C.3   104  LEU104      0.0022
    125  CD1       -8.0380   19.9610   25.6180 C.3   104  LEU104      0.0001
    126  CD2       -5.6210   20.5430   25.3230 C.3   104  LEU104      0.0001
    127  N        -10.3360   20.8710   40.8880 N.3   142  ARG142     -0.1245
    128  CA       -10.2580   22.2640   41.3130 C.3   142  ARG142      0.1563
    129  C        -11.1470   22.5690   42.5110 C.2   142  ARG142      0.2260
    130  O        -10.8770   23.5320   43.2370 O.2   142  ARG142     -0.2867
    131  CB       -10.6340   23.1740   40.1400 C.3   142  ARG142      0.0307
    132  CG       -10.2810   24.6440   40.3120 C.3   142  ARG142      0.0489
    133  CD       -10.8450   25.4650   39.1570 C.3   142  ARG142      0.2205
    134  NE       -10.2470   26.7950   39.0690 N.pl3 142  ARG142     -0.0865
    135  CZ       -10.7890   27.8980   39.5760 C.cat 142  ARG142      0.5346
    136  NH1      -11.9510   27.8390   40.2120 N.pl3 142  ARG142      0.1354
    137  NH2      -10.1670   29.0630   39.4430 N.pl3 142  ARG142      0.1354
    138  N         -6.6710   30.8350   42.5910 N.3   163  VAL163     -0.1231
    139  CA        -6.3220   29.5120   42.0900 C.3   163  VAL163      0.1692
    140  C         -5.4290   29.6790   40.8710 C.2   163  VAL163      0.2593
    141  O         -5.7770   30.4140   39.9390 O.2   163  VAL163     -0.2718
    142  CB        -7.5770   28.6920   41.7360 C.3   163  VAL163      0.0266
    143  CG1       -7.1880   27.2890   41.3040 C.3   163  VAL163      0.0020
    144  CG2       -8.5360   28.6510   42.9190 C.3   163  VAL163      0.0020
    145  N         -4.2790   29.0080   40.8790 N.am  164  THR164     -0.1939
    146  CA        -3.4430   28.9970   39.6900 C.3   164  THR164      0.2028
    147  C         -4.1580   28.2710   38.5590 C.2   164  THR164      0.2642
    148  O         -5.0540   27.4500   38.7760 O.2   164  THR164     -0.2714
    149  CB        -2.1000   28.3090   39.9540 C.3   164  THR164      0.1808
    150  OG1       -2.3250   26.9550   40.3670 O.3   164  THR164     -0.2208
    151  CG2       -1.3130   29.0430   41.0240 C.3   164  THR164      0.0379
    152  N         -3.7550   28.5830   37.3330 N.am  165  GLU165     -0.1963
    153  CA        -4.1710   27.7490   36.2230 C.3   165  GLU165      0.1733
    154  C         -3.5300   26.3690   36.3590 C.2   165  GLU165      0.2616
    155  O         -2.6820   26.1270   37.2240 O.2   165  GLU165     -0.2715
    156  CB        -3.8050   28.4050   34.8910 C.3   165  GLU165      0.0429
    157  CG        -4.5270   29.7260   34.6400 C.3   165  GLU165      0.1163
    158  CD        -6.0330   29.5570   34.5000 C.2   165  GLU165      0.3649
    159  OE1       -6.4780   28.4400   34.1590 O.co2 165  GLU165     -0.2457
    160  OE2       -6.7720   30.5400   34.7320 O.co2 165  GLU165     -0.2457
    161  N         -3.9510   25.4500   35.4990 N.am  166  GLN166     -0.1977
    162  CA        -3.4770   24.0790   35.6060 C.3   166  GLN166      0.1601
    163  C         -1.9830   24.0000   35.3070 C.2   166  GLN166      0.2287
    164  O         -1.4770   24.6470   34.3840 O.2   166  GLN166     -0.2864
    165  CB        -4.2630   23.1690   34.6630 C.3   166  GLN166      0.0394
    166  CG        -4.9330   22.0060   35.3770 C.3   166  GLN166      0.0908
    167  CD        -5.7630   21.1370   34.4530 C.2   166  GLN166      0.2608
    168  OE1       -6.2620   21.5960   33.4250 O.2   166  GLN166     -0.2717
    169  NE2       -5.9110   19.8680   34.8160 N.am  166  GLN166     -0.0878
@<TRIPOS>BOND
     1    85    84    2
     2    84    83    1
     3    83    86    1
     4    83    82    1
     5    86    87    1
     6    94    95    1
     7    87    89   ar
     8    87    88   ar
     9    89    91   ar
    10    95    98    1
    11    95    96    1
    12    99    96   am
    13    99   100    1
    14    88    90   ar
    15   108   107    1
    16    96    97    2
    17   100   101    1
    18    91    92   ar
    19   101   103   am
    20   101   102    2
    21   107   109    1
    22   107   104    1
    23   103   104    1
    24    90    92   ar
    25    57    58    2
    26    57    56    1
    27    92    93    1
    28    59    56    1
    29    59    60    1
    30    16    17    1
    31    77    76    2
    32   104   105    1
    33    76    75    1
    34    56    55    1
    35     1     2    1
    36   106   105    2
    37    17    20    1
    38    17    18    1
    39    20    21    1
    40   105   110   am
    41     6     5    1
    42     2     5    1
    43     2     3    1
    44    23    22    2
    45    75    78    1
    46    75    74    1
    47    55    53   am
    48    22    24   am
    49    22    21    1
    50    35    33    1
    51   126   124    1
    52    78    79    1
    53     5     7    1
    54    18    25   am
    55    18    19    2
    56   125   124    1
    57   110   111    1
    58     3     4    2
    59     3     8   am
    60    33    32    2
    61    33    34    1
    62    74    71   am
    63    73    70    1
    64   123   124    1
    65   123   120    1
    66    25    26    1
    67    32    31    1
    68    53    54    2
    69    53    52    1
    70     8     9    1
    71    11    10    2
    72    71    72    2
    73    71    70    1
    74    10     9    1
    75    30    31    1
    76    30    29    1
    77   111   112    1
    78   111   114    1
    79   113   112    2
    80   112   119   am
    81    79    81   ar
    82    79    80   ar
    83   119   120    1
    84    70    69    1
    85   120   121    1
    86     9    12    1
    87    52    51    1
    88    26    29    1
    89    26    27    1
    90    69    63   am
    91    61    62    1
    92   114   115    1
    93    28    27    2
    94    63    64    2
    95    63    62    1
    96   121   122    2
    97    51    45   am
    98    27    36   am
    99    62    65    1
   100    12    13    1
   101    12    14    1
   102    13    15    1
   103   115   116    1
   104    46    45    2
   105    45    44    1
   106    36    37    1
   107    65    66    1
   108    65    67    1
   109    66    68    1
   110   116   117    1
   111    39    38    2
   112    38    37    1
   113    38    43   am
   114    44    43    1
   115    44    47    1
   116    37    40    1
   117   117   118    1
   118    47    48    1
   119    40    41    1
   120    40    42    1
   121    50    48   am
   122    48    49    2
   123   168   167    2
   124   159   158   ar
   125   164   163    2
   126   167   169   am
   127   167   166    1
   128   158   157    1
   129   158   160   ar
   130   157   156    1
   131   165   166    1
   132   165   162    1
   133   156   153    1
   134   163   162    1
   135   161   162    1
   136   161   154   am
   137   153   154    1
   138   153   152    1
   139   154   155    2
   140   152   147   am
   141   147   148    2
   142   147   146    1
   143   134   133    1
   144   134   135    2
   145   133   132    1
   146   137   135    1
   147   135   136    1
   148   146   149    1
   149   146   145    1
   150   141   140    2
   151   149   150    1
   152   149   151    1
   153   131   132    1
   154   131   128    1
   155   140   145   am
   156   140   139    1
   157   127   128    1
   158   143   142    1
   159   128   129    1
   160   142   139    1
   161   142   144    1
   162   139   138    1
   163   129   130    2
