@<TRIPOS>MOLECULE
tmp/5hpzB01.pdb
 180 176 0 0 0
SMALL
GASTEIGER

@<TRIPOS>ATOM
      1  N         -2.7710   17.6750  -44.7800 N.3    31  VAL31      -0.1231
      2  CA        -2.4130   16.2990  -44.3910 C.3    31  VAL31       0.1678
      3  C         -1.8400   15.5900  -45.6120 C.2    31  VAL31       0.2434
      4  O         -2.2460   15.8830  -46.7640 O.2    31  VAL31      -0.2733
      5  CB        -3.6090   15.4490  -43.8660 C.3    31  VAL31       0.0265
      6  CG1       -4.2570   16.1090  -42.6700 C.3    31  VAL31       0.0020
      7  CG2       -4.6580   15.0970  -44.9260 C.3    31  VAL31       0.0020
      8  N         -0.9130   14.6190  -45.3940 N.am   32  PRO32      -0.2718
      9  CA        -0.5410   13.7500  -46.5230 C.3    32  PRO32       0.1535
     10  C         -1.6830   12.8580  -46.8840 C.2    32  PRO32       0.2598
     11  O         -2.4380   12.4380  -45.9940 O.2    32  PRO32      -0.2715
     12  CB         0.5810   12.8850  -45.9370 C.3    32  PRO32       0.0310
     13  CG         1.1220   13.6960  -44.8200 C.3    32  PRO32       0.0237
     14  CD        -0.1140   14.2880  -44.2080 C.3    32  PRO32       0.0939
     15  N         -1.7790   12.5060  -48.1560 N.am   33  ALA33      -0.1964
     16  CA        -2.8260   11.6130  -48.6090 C.3    33  ALA33       0.1728
     17  C         -2.3610   11.1030  -49.9100 C.2    33  ALA33       0.2616
     18  O         -1.7100   11.8300  -50.6560 O.2    33  ALA33      -0.2715
     19  CB        -4.1930   12.3140  -48.7310 C.3    33  ALA33       0.0334
     20  N         -2.6820    9.8380  -50.1840 N.am   34  ALA34      -0.1977
     21  CA        -2.4330    9.2770  -51.4910 C.3    34  ALA34       0.1597
     22  C         -3.2360    9.9750  -52.5260 C.2    34  ALA34       0.2287
     23  O         -4.4740   10.1760  -52.3520 O.2    34  ALA34      -0.2864
     24  CB        -2.7870    7.8220  -51.5500 C.3    34  ALA34       0.0319
     25  N         -3.1580    5.5290  -56.9220 N.3    37  ILE37      -0.1245
     26  CA        -3.5290    4.2740  -56.2520 C.3    37  ILE37       0.1561
     27  C         -2.3200    3.4130  -56.1290 C.2    37  ILE37       0.2260
     28  O         -1.9060    3.0890  -55.0340 O.2    37  ILE37      -0.2867
     29  CB        -4.7260    3.5800  -56.9640 C.3    37  ILE37       0.0252
     30  CG1       -5.8980    4.5440  -56.9710 C.3    37  ILE37       0.0019
     31  CG2       -5.0260    2.2490  -56.2780 C.3    37  ILE37       0.0019
     32  CD1       -7.2320    4.0400  -57.5050 C.3    37  ILE37       0.0001
     33  N          1.4220    4.2020  -54.8600 N.3    40  PHE40      -0.1241
     34  CA         0.8540    5.3240  -54.0440 C.3    40  PHE40       0.1605
     35  C          1.9190    6.2950  -53.4930 C.2    40  PHE40       0.2264
     36  O          1.5540    7.2480  -52.8560 O.2    40  PHE40      -0.2867
     37  CB        -0.0700    4.8080  -52.8850 C.3    40  PHE40       0.0534
     38  CG         0.5620    3.6890  -52.0730 C.ar   40  PHE40      -0.0203
     39  CD1        1.5460    3.9580  -51.1440 C.ar   40  PHE40      -0.0042
     40  CD2        0.2150    2.3540  -52.3160 C.ar   40  PHE40      -0.0042
     41  CE1        2.1810    2.9200  -50.4440 C.ar   40  PHE40      -0.0003
     42  CE2        0.8180    1.3170  -51.6230 C.ar   40  PHE40      -0.0003
     43  CZ         1.8240    1.5970  -50.6990 C.ar   40  PHE40      -0.0000
     44  N          3.3080   10.5020  -51.9730 N.3    43  LEU43      -0.1245
     45  CA         2.1080   11.0890  -51.4350 C.3    43  LEU43       0.1561
     46  C          1.8780   12.5180  -51.8650 C.2    43  LEU43       0.2260
     47  O          2.8200   13.2750  -52.1090 O.2    43  LEU43      -0.2867
     48  CB         2.1940   11.0160  -49.9450 C.3    43  LEU43       0.0270
     49  CG         2.3150    9.5710  -49.3610 C.3    43  LEU43       0.0019
     50  CD1        2.4770    9.6910  -47.8850 C.3    43  LEU43       0.0001
     51  CD2        1.0780    8.7200  -49.6150 C.3    43  LEU43       0.0001
     52  N         -3.4960   17.1530  -49.1160 N.3    46  THR46      -0.1203
     53  CA        -4.9230   17.3820  -49.2670 C.3    46  THR46       0.1994
     54  C         -5.3770   18.1190  -48.0150 C.2    46  THR46       0.2618
     55  O         -4.7340   18.0300  -46.9400 O.2    46  THR46      -0.2717
     56  CB        -5.6970   16.0610  -49.4020 C.3    46  THR46       0.1784
     57  OG1       -5.1470   15.3330  -50.5020 O.3    46  THR46      -0.2211
     58  CG2       -7.1490   16.2760  -49.7240 C.3    46  THR46       0.0376
     59  N         -6.3820   18.9560  -48.1660 N.am   47  GLN47      -0.1965
     60  CA        -6.9890   19.5330  -46.9930 C.3    47  GLN47       0.1733
     61  C         -7.9840   18.5340  -46.5180 C.2    47  GLN47       0.2617
     62  O         -8.8230   18.0730  -47.2830 O.2    47  GLN47      -0.2715
     63  CB        -7.7640   20.8210  -47.2920 C.3    47  GLN47       0.0408
     64  CG        -8.4720   21.3130  -46.0200 C.3    47  GLN47       0.0908
     65  CD        -9.4120   22.4910  -46.1820 C.2    47  GLN47       0.2608
     66  OE1       -9.7190   22.8800  -47.2880 O.2    47  GLN47      -0.2717
     67  NE2       -9.8670   23.0790  -45.0340 N.am   47  GLN47      -0.0878
     68  N         -7.9910   18.2610  -45.2380 N.am   48  THR48      -0.1937
     69  CA        -9.0150   17.3350  -44.7550 C.3    48  THR48       0.2028
     70  C        -10.3820   18.0130  -44.7000 C.2    48  THR48       0.2642
     71  O        -10.4980   19.1950  -44.3340 O.2    48  THR48      -0.2714
     72  CB        -8.6730   16.7530  -43.3760 C.3    48  THR48       0.1808
     73  OG1       -9.7000   15.8080  -43.0250 O.3    48  THR48      -0.2208
     74  CG2       -8.5990   17.8190  -42.3120 C.3    48  THR48       0.0379
     75  N        -11.4140   17.2510  -45.0490 N.am   49  LEU49      -0.1963
     76  CA       -12.8280   17.7020  -44.9740 C.3    49  LEU49       0.1728
     77  C        -13.3880   17.7240  -43.5680 C.2    49  LEU49       0.2616
     78  O        -14.3780   18.4060  -43.2600 O.2    49  LEU49      -0.2715
     79  CB       -13.7070   16.7670  -45.8340 C.3    49  LEU49       0.0311
     80  CG       -13.5160   16.8490  -47.3570 C.3    49  LEU49       0.0022
     81  CD1      -14.2120   15.6690  -48.0480 C.3    49  LEU49       0.0001
     82  CD2      -13.9660   18.2250  -47.9150 C.3    49  LEU49       0.0001
     83  N        -12.7480   16.9840  -42.6960 N.am   50  LEU50      -0.1977
     84  CA       -13.1860   16.9160  -41.3420 C.3    50  LEU50       0.1596
     85  C        -12.8240   18.1860  -40.5820 C.2    50  LEU50       0.2287
     86  O        -11.6620   18.5450  -40.4780 O.2    50  LEU50      -0.2864
     87  CB       -12.5510   15.6970  -40.6890 C.3    50  LEU50       0.0297
     88  CG       -12.7590   14.3660  -41.4270 C.3    50  LEU50       0.0022
     89  CD1      -12.1580   13.1720  -40.6840 C.3    50  LEU50       0.0001
     90  CD2      -14.2360   14.1450  -41.6680 C.3    50  LEU50       0.0001
     91  N         -9.9510   18.2960  -37.4560 N.3    53  GLN53      -0.1245
     92  CA        -8.6760   17.7540  -37.6610 C.3    53  GLN53       0.1566
     93  C         -7.7370   18.8910  -38.0450 C.2    53  GLN53       0.2260
     94  O         -7.9590   19.5600  -39.0130 O.2    53  GLN53      -0.2867
     95  CB        -8.8090   16.6810  -38.7180 C.3    53  GLN53       0.0367
     96  CG       -10.0860   15.8600  -38.4540 C.3    53  GLN53       0.0905
     97  CD       -10.1050   15.1610  -37.0610 C.2    53  GLN53       0.2608
     98  OE1      -11.1420   15.1650  -36.2700 O.2    53  GLN53      -0.2717
     99  NE2       -8.9650   14.5250  -36.7630 N.am   53  GLN53      -0.0878
    100  N         -4.6830   19.0240  -39.0900 N.3    55  GLY55      -0.1210
    101  CA        -3.6760   18.8140  -40.0930 C.3    55  GLY55       0.1956
    102  C         -2.5100   18.1050  -39.4290 C.2    55  GLY55       0.2611
    103  O         -2.5340   17.8640  -38.2310 O.2    55  GLY55      -0.2717
    104  N         -1.5220   17.7530  -40.2210 N.am   56  LEU56      -0.1979
    105  CA        -0.2770   17.1970  -39.7310 C.3    56  LEU56       0.1596
    106  C          0.7560   18.3150  -39.6320 C.2    56  LEU56       0.2287
    107  O          0.8630   19.1350  -40.5320 O.2    56  LEU56      -0.2864
    108  CB         0.2510   16.1010  -40.6620 C.3    56  LEU56       0.0297
    109  CG         1.4440   15.2890  -40.1030 C.3    56  LEU56       0.0022
    110  CD1        0.9310   14.2850  -39.0330 C.3    56  LEU56       0.0001
    111  CD2        2.1790   14.5500  -41.1970 C.3    56  LEU56       0.0001
    112  N          6.5030   14.0950  -38.1460 N.3    84  SER84      -0.1217
    113  CA         5.7000   12.9970  -37.6530 C.3    84  SER84       0.1889
    114  C          6.5700   11.7690  -37.3240 C.2    84  SER84       0.2288
    115  O          7.2050   11.2490  -38.2250 O.2    84  SER84      -0.2866
    116  CB         4.7180   12.5690  -38.7590 C.3    84  SER84       0.2089
    117  OG         3.9480   11.4580  -38.3420 O.3    84  SER84      -0.2183
    118  N          5.5170    8.7720  -36.6800 N.3    86  ILE86      -0.1231
    119  CA         4.8700    7.7100  -37.4610 C.3    86  ILE86       0.1692
    120  C          4.8700    8.0920  -38.9570 C.2    86  ILE86       0.2592
    121  O          4.4120    9.1470  -39.3420 O.2    86  ILE86      -0.2718
    122  CB         3.4610    7.5230  -36.8970 C.3    86  ILE86       0.0266
    123  CG1        3.5990    6.8890  -35.4950 C.3    86  ILE86       0.0019
    124  CG2        2.5700    6.6650  -37.8000 C.3    86  ILE86       0.0020
    125  CD1        2.5130    7.2750  -34.5150 C.3    86  ILE86       0.0001
    126  N          5.4360    7.2220  -39.7660 N.am   87  TRP87      -0.1963
    127  CA         5.5500    7.3730  -41.1660 C.3    87  TRP87       0.1756
    128  C          5.6590    5.9980  -41.8150 C.2    87  TRP87       0.2461
    129  O          6.7080    5.5860  -42.2370 O.2    87  TRP87      -0.2730
    130  CB         6.7150    8.3060  -41.5250 C.3    87  TRP87       0.0590
    131  CG         6.5080    8.9050  -42.9130 C.ar   87  TRP87       0.0006
    132  CD1        6.9340    8.4030  -44.1140 C.ar   87  TRP87       0.0946
    133  CD2        5.7980   10.1160  -43.2220 C.ar   87  TRP87       0.0152
    134  NE1        6.5480    9.2420  -45.1420 N.ar   87  TRP87      -0.2442
    135  CE2        5.8430   10.2850  -44.6150 C.ar   87  TRP87       0.0810
    136  CE3        5.1360   11.0570  -42.4510 C.ar   87  TRP87       0.0012
    137  CZ2        5.2330   11.3530  -45.2560 C.ar   87  TRP87       0.0191
    138  CZ3        4.5590   12.1600  -43.0940 C.ar   87  TRP87       0.0001
    139  CH2        4.6220   12.2870  -44.4770 C.ar   87  TRP87       0.0015
    140  N          4.5210    5.3010  -41.9760 N.am   88  PRO88      -0.2716
    141  CA         4.4860    3.8740  -42.3430 C.3    88  PRO88       0.1536
    142  C          4.6080    3.4960  -43.7990 C.2    88  PRO88       0.2598
    143  O          4.6790    2.2960  -44.1100 O.2    88  PRO88      -0.2715
    144  CB         3.1100    3.4300  -41.8360 C.3    88  PRO88       0.0310
    145  CG         2.2830    4.6640  -41.9340 C.3    88  PRO88       0.0237
    146  CD         3.2130    5.7780  -41.5400 C.3    88  PRO88       0.0939
    147  N          4.6570    4.4820  -44.6830 N.am   89  VAL89      -0.1978
    148  CA         4.8390    4.2210  -46.0840 C.3    89  VAL89       0.1596
    149  C          5.6820    5.3010  -46.7220 C.2    89  VAL89       0.2287
    150  O          5.8510    6.3480  -46.1430 O.2    89  VAL89      -0.2864
    151  CB         3.4800    4.2190  -46.8280 C.3    89  VAL89       0.0276
    152  CG1        2.6210    3.1000  -46.2890 C.3    89  VAL89       0.0022
    153  CG2        2.7600    5.5410  -46.6700 C.3    89  VAL89       0.0022
    154  N        -10.2900   12.2510  -52.7280 N.3   151  TRP151     -0.1227
    155  CA       -10.8980   11.8490  -51.4670 C.3   151  TRP151      0.1737
    156  C        -12.2050   12.6530  -51.2440 C.2   151  TRP151      0.2595
    157  O        -12.2250   13.6390  -50.5370 O.2   151  TRP151     -0.2718
    158  CB        -9.9070   12.0170  -50.2980 C.3   151  TRP151      0.0564
    159  CG        -8.7410   11.0660  -50.4120 C.ar  151  TRP151      0.0003
    160  CD1       -7.5040   11.3130  -51.0090 C.ar  151  TRP151      0.0946
    161  CD2       -8.6930    9.6980  -49.9610 C.ar  151  TRP151      0.0152
    162  NE1       -6.7130   10.1770  -50.9530 N.ar  151  TRP151     -0.2442
    163  CE2       -7.4020    9.1790  -50.3070 C.ar  151  TRP151      0.0810
    164  CE3       -9.5930    8.8670  -49.2970 C.ar  151  TRP151      0.0012
    165  CZ2       -7.0020    7.8550  -49.9860 C.ar  151  TRP151      0.0191
    166  CZ3       -9.1880    7.5350  -48.9780 C.ar  151  TRP151      0.0001
    167  CH2       -7.9000    7.0610  -49.3380 C.ar  151  TRP151      0.0015
    168  N        -13.2710   12.1970  -51.8860 N.am  152  LEU152     -0.1980
    169  CA       -14.6050   12.8130  -51.7990 C.3   152  LEU152      0.1596
    170  C        -14.5200   14.2700  -52.2110 C.2   152  LEU152      0.2287
    171  O        -15.1630   15.1210  -51.6220 O.2   152  LEU152     -0.2864
    172  CB       -15.0900   12.7080  -50.3630 C.3   152  LEU152      0.0297
    173  CG       -15.3250   11.3070  -49.7720 C.3   152  LEU152      0.0022
    174  CD1      -15.6460   11.4570  -48.3040 C.3   152  LEU152      0.0001
    175  CD2      -16.4880   10.6570  -50.4900 C.3   152  LEU152      0.0001
    176  N        -12.1730   16.3400  -51.6320 N.3   154  ALA154     -0.1245
    177  CA       -11.3280   17.2180  -50.8230 C.3   154  ALA154      0.1562
    178  C        -10.2290   17.9700  -51.5810 C.2   154  ALA154      0.2260
    179  O         -9.5450   17.4110  -52.4450 O.2   154  ALA154     -0.2867
    180  CB       -10.7020   16.4670  -49.6570 C.3   154  ALA154      0.0290
@<TRIPOS>BOND
     1    32    30    1
     2    30    29    1
     3    29    31    1
     4    29    26    1
     5    25    26    1
     6    26    27    1
     7    27    28    2
     8    33    34    1
     9    34    35    1
    10    34    37    1
    11    35    36    2
    12    37    38    1
    13   154   155    1
    14    22    23    2
    15    22    21    1
    16   179   178    2
    17    40    38   ar
    18    40    42   ar
    19   170   169    1
    20   170   171    2
    21    47    46    2
    22    38    39   ar
    23    44    45    1
    24   168   169    1
    25   168   156   am
    26    46    45    1
    27   169   172    1
    28   176   177    1
    29    42    43   ar
    30   178   177    1
    31    24    21    1
    32    21    20    1
    33   155   156    1
    34   155   158    1
    35    45    48    1
    36   156   157    2
    37    39    41   ar
    38   160   162   ar
    39   160   159   ar
    40   162   163   ar
    41   177   180    1
    42    43    41   ar
    43    18    17    2
    44    57    56    1
    45   175   173    1
    46   159   158    1
    47   159   161   ar
    48   172   173    1
    49   163   165   ar
    50   163   161   ar
    51    20    17   am
    52   165   167   ar
    53   161   164   ar
    54    48    49    1
    55    17    16    1
    56   173   174    1
    57    58    56    1
    58    51    49    1
    59    56    53    1
    60    49    50    1
    61   167   166   ar
    62   164   166   ar
    63    53    52    1
    64    53    54    1
    65    19    16    1
    66    16    15    1
    67    59    54   am
    68    59    60    1
    69    15    10   am
    70    81    80    1
    71    54    55    2
    72    82    80    1
    73    80    79    1
    74    63    60    1
    75    63    64    1
    76    66    65    2
    77    62    61    2
    78    60    61    1
    79    10     9    1
    80    10    11    2
    81   151   153    1
    82   151   152    1
    83   151   148    1
    84     4     3    2
    85   149   150    2
    86   149   148    1
    87     9    12    1
    88     9     8    1
    89    61    68   am
    90    65    64    1
    91    65    67   am
    92   148   147    1
    93    12    13    1
    94    79    76    1
    95     3     8   am
    96     3     2    1
    97     8    14    1
    98   137   135   ar
    99   137   139   ar
   100    68    69    1
   101   134   135   ar
   102   134   132   ar
   103    75    76    1
   104    75    70   am
   105    76    77    1
   106     7     5    1
   107    13    14    1
   108     1     2    1
   109    69    70    1
   110    69    72    1
   111    70    71    2
   112   147   142   am
   113   135   133   ar
   114   139   138   ar
   115     2     5    1
   116   132   131   ar
   117   143   142    2
   118     5     6    1
   119   142   141    1
   120    77    78    2
   121    77    83   am
   122    72    73    1
   123    72    74    1
   124   133   131   ar
   125   133   136   ar
   126   138   136   ar
   127   131   130    1
   128    83    84    1
   129   141   140    1
   130   141   144    1
   131   129   128    2
   132   140   128   am
   133   140   146    1
   134   145   144    1
   135   145   146    1
   136   128   127    1
   137    90    88    1
   138   130   127    1
   139    88    87    1
   140    88    89    1
   141    84    87    1
   142    84    85    1
   143   111   109    1
   144   127   126    1
   145   108   109    1
   146   108   105    1
   147    85    86    2
   148   107   106    2
   149   104   105    1
   150   104   102   am
   151   109   110    1
   152   101   102    1
   153   101   100    1
   154   126   120   am
   155   105   106    1
   156   102   103    2
   157   121   120    2
   158    94    93    2
   159   120   119    1
   160   116   117    1
   161   116   113    1
   162    95    96    1
   163    95    92    1
   164    96    97    1
   165   115   114    2
   166   112   113    1
   167    93    92    1
   168   124   122    1
   169    92    91    1
   170   113   114    1
   171   119   122    1
   172   119   118    1
   173    97    99   am
   174    97    98    2
   175   122   123    1
   176   123   125    1
