@<TRIPOS>MOLECULE
tmp/5hq3B00.pdb
 144 145 0 0 0
SMALL
GASTEIGER

@<TRIPOS>ATOM
      1  N        -36.1580    6.7050  -51.8530 N.3    67  TYR67      -0.1241
      2  CA       -36.2230    5.2360  -51.7240 C.3    67  TYR67       0.1605
      3  C        -37.6140    4.7540  -52.0750 C.2    67  TYR67       0.2264
      4  O        -38.5700    5.3530  -51.6400 O.2    67  TYR67      -0.2867
      5  CB       -35.9360    4.8390  -50.2680 C.3    67  TYR67       0.0534
      6  CG       -36.0430    3.3430  -49.9500 C.ar   67  TYR67      -0.0201
      7  CD1      -35.1020    2.4210  -50.4770 C.ar   67  TYR67      -0.0009
      8  CD2      -37.0500    2.8400  -49.0860 C.ar   67  TYR67      -0.0009
      9  CE1      -35.1640    1.0660  -50.1730 C.ar   67  TYR67       0.0417
     10  CE2      -37.1120    1.4790  -48.7680 C.ar   67  TYR67       0.0417
     11  CZ       -36.1620    0.5830  -49.3150 C.ar   67  TYR67       0.1957
     12  OH       -36.1870   -0.8010  -49.0330 O.3    67  TYR67      -0.2866
     13  N        -40.1290    1.6680  -51.4630 N.3    69  ASP69      -0.1239
     14  CA       -40.2820    0.5390  -50.5390 C.3    69  ASP69       0.1674
     15  C        -40.5120   -0.7520  -51.2690 C.2    69  ASP69       0.2266
     16  O        -41.3030   -0.8040  -52.2080 O.2    69  ASP69      -0.2867
     17  CB       -41.4320    0.7430  -49.5640 C.3    69  ASP69       0.1410
     18  CG       -41.4070   -0.2670  -48.4470 C.2    69  ASP69       0.3668
     19  OD1      -40.3650   -0.3730  -47.7540 O.co2  69  ASP69      -0.2456
     20  OD2      -42.3990   -0.9850  -48.3100 O.co2  69  ASP69      -0.2456
     21  N        -37.6050   10.6570  -45.4110 N.3   119  TYR119     -0.1241
     22  CA       -36.9170    9.9410  -46.5340 C.3   119  TYR119      0.1605
     23  C        -37.7970    9.6890  -47.7870 C.2   119  TYR119      0.2264
     24  O        -37.3080    9.2050  -48.8220 O.2   119  TYR119     -0.2867
     25  CB       -36.3320    8.5720  -46.0550 C.3   119  TYR119      0.0534
     26  CG       -37.3720    7.5210  -45.7520 C.ar  119  TYR119     -0.0201
     27  CD1      -37.9120    6.7280  -46.7810 C.ar  119  TYR119     -0.0009
     28  CD2      -37.8640    7.3500  -44.4600 C.ar  119  TYR119     -0.0009
     29  CE1      -38.9010    5.8030  -46.5270 C.ar  119  TYR119      0.0417
     30  CE2      -38.8400    6.4090  -44.2010 C.ar  119  TYR119      0.0417
     31  CZ       -39.3600    5.6560  -45.2270 C.ar  119  TYR119      0.1957
     32  OH       -40.3670    4.7540  -44.9750 O.3   119  TYR119     -0.2866
     33  N        -30.0100    3.9680  -46.2860 N.3   276  TRP276     -0.1241
     34  CA       -30.1910    3.2350  -45.0260 C.3   276  TRP276      0.1605
     35  C        -28.8500    2.8560  -44.3600 C.2   276  TRP276      0.2264
     36  O        -28.7360    2.9010  -43.1520 O.2   276  TRP276     -0.2867
     37  CB       -31.1060    1.9960  -45.2230 C.3   276  TRP276      0.0550
     38  CG       -32.4220    2.4250  -45.6850 C.ar  276  TRP276      0.0003
     39  CD1      -32.8250    2.5580  -46.9920 C.ar  276  TRP276      0.0946
     40  CD2      -33.5130    2.9300  -44.8780 C.ar  276  TRP276      0.0152
     41  NE1      -34.1120    3.0970  -47.0410 N.ar  276  TRP276     -0.2442
     42  CE2      -34.5470    3.3370  -45.7640 C.ar  276  TRP276      0.0810
     43  CE3      -33.7130    3.0830  -43.5190 C.ar  276  TRP276      0.0012
     44  CZ2      -35.7410    3.8240  -45.3240 C.ar  276  TRP276      0.0191
     45  CZ3      -34.9290    3.6140  -43.0900 C.ar  276  TRP276      0.0001
     46  CH2      -35.9170    3.9470  -43.9840 C.ar  276  TRP276      0.0015
     47  N        -26.8720    4.4350  -41.1160 N.3   279  LEU279     -0.1245
     48  CA       -27.3840    4.3870  -39.7500 C.3   279  LEU279      0.1561
     49  C        -26.4900    3.5370  -38.8340 C.2   279  LEU279      0.2260
     50  O        -26.0710    2.4280  -39.2170 O.2   279  LEU279     -0.2867
     51  CB       -28.7940    3.8150  -39.7330 C.3   279  LEU279      0.0270
     52  CG       -29.9460    4.7580  -40.0650 C.3   279  LEU279      0.0019
     53  CD1      -31.2060    3.9300  -40.3120 C.3   279  LEU279      0.0001
     54  CD2      -30.1570    5.8070  -38.9690 C.3   279  LEU279      0.0001
     55  N        -28.7190   -1.5610  -37.1870 N.3   282  GLU282     -0.1231
     56  CA       -29.9810   -2.0500  -37.7790 C.3   282  GLU282      0.1699
     57  C        -31.1160   -1.7610  -36.7600 C.2   282  GLU282      0.2593
     58  O        -31.0210   -2.0950  -35.5800 O.2   282  GLU282     -0.2718
     59  CB       -29.9060   -3.5420  -38.1950 C.3   282  GLU282      0.0402
     60  CG       -30.9650   -4.0220  -39.1710 C.3   282  GLU282      0.1161
     61  CD       -32.2170   -4.4710  -38.5060 C.2   282  GLU282      0.3649
     62  OE1      -32.1990   -4.9020  -37.3410 O.co2 282  GLU282     -0.2457
     63  OE2      -33.2690   -4.3730  -39.1490 O.co2 282  GLU282     -0.2457
     64  N        -32.1590   -1.0780  -37.2280 N.am  283  SER283     -0.1938
     65  CA       -33.1760   -0.5470  -36.3420 C.3   283  SER283      0.2055
     66  C        -34.4960   -0.4010  -37.0680 C.2   283  SER283      0.2643
     67  O        -34.5800   -0.6360  -38.2720 O.2   283  SER283     -0.2714
     68  CB       -32.7290    0.8150  -35.8150 C.3   283  SER283      0.2130
     69  OG       -32.5510    1.7150  -36.8760 O.3   283  SER283     -0.2179
     70  N        -35.5340   -0.0400  -36.3230 N.am  284  VAL284     -0.1963
     71  CA       -36.7530    0.4700  -36.9280 C.3   284  VAL284      0.1727
     72  C        -37.0410    1.8410  -36.3500 C.2   284  VAL284      0.2616
     73  O        -36.5400    2.1920  -35.2960 O.2   284  VAL284     -0.2715
     74  CB       -37.9760   -0.4870  -36.7660 C.3   284  VAL284      0.0290
     75  CG1      -37.6620   -1.8620  -37.3650 C.3   284  VAL284      0.0023
     76  CG2      -38.4170   -0.6110  -35.3220 C.3   284  VAL284      0.0023
     77  N        -37.8550    2.6160  -37.0500 N.am  285  PHE285     -0.1960
     78  CA       -38.1860    3.9910  -36.6540 C.3   285  PHE285      0.1771
     79  C        -36.9810    4.9040  -36.5000 C.2   285  PHE285      0.2619
     80  O        -36.9640    5.7350  -35.6060 O.2   285  PHE285     -0.2715
     81  CB       -39.0540    4.0030  -35.3610 C.3   285  PHE285      0.0574
     82  CG       -40.2570    4.9000  -35.4540 C.ar  285  PHE285     -0.0200
     83  CD1      -40.1260    6.2140  -35.8150 C.ar  285  PHE285     -0.0042
     84  CD2      -41.5260    4.4020  -35.2290 C.ar  285  PHE285     -0.0042
     85  CE1      -41.2450    7.0290  -35.9360 C.ar  285  PHE285     -0.0003
     86  CE2      -42.6450    5.2060  -35.3420 C.ar  285  PHE285     -0.0003
     87  CZ       -42.5120    6.5200  -35.7050 C.ar  285  PHE285     -0.0000
     88  N        -35.9830    4.7390  -37.3670 N.am  286  ARG286     -0.1963
     89  CA       -34.8520    5.6890  -37.4920 C.3   286  ARG286      0.1729
     90  C        -34.6250    5.9630  -38.9550 C.2   286  ARG286      0.2616
     91  O        -34.6490    5.0730  -39.7670 O.2   286  ARG286     -0.2715
     92  CB       -33.5310    5.1740  -36.8670 C.3   286  ARG286      0.0348
     93  CG       -33.5790    4.9850  -35.3540 C.3   286  ARG286      0.0492
     94  CD       -33.7160    6.3220  -34.6280 C.3   286  ARG286      0.2205
     95  NE       -33.8490    6.2500  -33.1640 N.pl3 286  ARG286     -0.0865
     96  CZ       -34.9980    6.1240  -32.4890 C.cat 286  ARG286      0.5346
     97  NH1      -36.1910    6.0100  -33.0870 N.pl3 286  ARG286      0.1354
     98  NH2      -34.9610    6.1270  -31.1870 N.pl3 286  ARG286      0.1354
     99  N        -34.3920    7.2130  -39.2860 N.am  287  PHE287     -0.1974
    100  CA       -34.2330    7.6230  -40.6660 C.3   287  PHE287      0.1639
    101  C        -32.8890    8.3780  -40.7990 C.2   287  PHE287      0.2290
    102  O        -32.4330    9.0450  -39.8730 O.2   287  PHE287     -0.2864
    103  CB       -35.4710    8.4330  -41.0510 C.3   287  PHE287      0.0560
    104  CG       -36.7650    7.9000  -40.4580 C.ar  287  PHE287     -0.0200
    105  CD1      -37.3440    6.7120  -40.9270 C.ar  287  PHE287     -0.0042
    106  CD2      -37.4130    8.5660  -39.4420 C.ar  287  PHE287     -0.0042
    107  CE1      -38.5310    6.2040  -40.3890 C.ar  287  PHE287     -0.0003
    108  CE2      -38.5940    8.0510  -38.8910 C.ar  287  PHE287     -0.0003
    109  CZ       -39.1530    6.8740  -39.3650 C.ar  287  PHE287     -0.0000
    110  N        -47.0720   -0.9800  -37.3120 N.3   327  TYR327     -0.1227
    111  CA       -46.5390   -0.8260  -38.6960 C.3   327  TYR327      0.1736
    112  C        -45.0270   -1.0400  -38.8070 C.2   327  TYR327      0.2595
    113  O        -44.5540   -1.7590  -39.6700 O.2   327  TYR327     -0.2718
    114  CB       -46.8850    0.5920  -39.2160 C.3   327  TYR327      0.0548
    115  CG       -46.5640    0.9250  -40.6520 C.ar  327  TYR327     -0.0200
    116  CD1      -47.4860    0.7160  -41.6480 C.ar  327  TYR327     -0.0009
    117  CD2      -45.3820    1.5440  -40.9900 C.ar  327  TYR327     -0.0009
    118  CE1      -47.2130    1.0540  -42.9710 C.ar  327  TYR327      0.0417
    119  CE2      -45.0930    1.8920  -42.3020 C.ar  327  TYR327      0.0417
    120  CZ       -46.0100    1.6320  -43.2920 C.ar  327  TYR327      0.1957
    121  OH       -45.7360    1.9590  -44.6000 O.3   327  TYR327     -0.2866
    122  N        -44.2810   -0.4430  -37.8930 N.am  328  PHE328     -0.1976
    123  CA       -42.8520   -0.3600  -38.0250 C.3   328  PHE328      0.1639
    124  C        -42.1960   -1.6830  -37.7190 C.2   328  PHE328      0.2290
    125  O        -41.0800   -1.9810  -38.1950 O.2   328  PHE328     -0.2864
    126  CB       -42.3240    0.7570  -37.1230 C.3   328  PHE328      0.0560
    127  CG       -42.8800    2.0960  -37.4940 C.ar  328  PHE328     -0.0200
    128  CD1      -42.2770    2.8520  -38.4810 C.ar  328  PHE328     -0.0042
    129  CD2      -44.0690    2.5610  -36.9150 C.ar  328  PHE328     -0.0042
    130  CE1      -42.8090    4.0500  -38.8590 C.ar  328  PHE328     -0.0003
    131  CE2      -44.6230    3.7550  -37.3140 C.ar  328  PHE328     -0.0003
    132  CZ       -43.9830    4.5120  -38.2720 C.ar  328  PHE328     -0.0000
    133  N        -40.7260   -4.1260  -40.2620 N.3   331  TYR331     -0.1241
    134  CA       -39.5200   -3.6760  -40.9300 C.3   331  TYR331      0.1605
    135  C        -38.1750   -4.0860  -40.3040 C.2   331  TYR331      0.2264
    136  O        -37.1600   -3.4800  -40.6110 O.2   331  TYR331     -0.2867
    137  CB       -39.6040   -2.1690  -41.0930 C.3   331  TYR331      0.0534
    138  CG       -40.4850   -1.7540  -42.2570 C.ar  331  TYR331     -0.0201
    139  CD1      -40.0040   -1.8150  -43.5600 C.ar  331  TYR331     -0.0009
    140  CD2      -41.7830   -1.3130  -42.0740 C.ar  331  TYR331     -0.0009
    141  CE1      -40.7770   -1.4330  -44.6350 C.ar  331  TYR331      0.0417
    142  CE2      -42.5630   -0.9240  -43.1660 C.ar  331  TYR331      0.0417
    143  CZ       -42.0370   -0.9850  -44.4400 C.ar  331  TYR331      0.1957
    144  OH       -42.7660   -0.6300  -45.5410 O.3   331  TYR331     -0.2866
@<TRIPOS>BOND
     1    16    15    2
     2     3     2    1
     3     3     4    2
     4     1     2    1
     5     2     5    1
     6    13    14    1
     7    15    14    1
     8    14    17    1
     9     7     9   ar
    10     7     6   ar
    11     5     6    1
    12     9    11   ar
    13     6     8   ar
    14    17    18    1
    15    11    12    1
    16    11    10   ar
    17     8    10   ar
    18    24    23    2
    19    18    20   ar
    20    18    19   ar
    21    23    22    1
    22    41    39   ar
    23    41    42   ar
    24    39    38   ar
    25    27    29   ar
    26    27    26   ar
    27    22    25    1
    28    22    21    1
    29    29    31   ar
    30    33    34    1
    31    25    26    1
    32    42    44   ar
    33    42    40   ar
    34    26    28   ar
    35    38    37    1
    36    38    40   ar
    37   144   143    1
    38    44    46   ar
    39    31    32    1
    40    31    30   ar
    41    37    34    1
    42    34    35    1
    43    40    43   ar
    44   141   143   ar
    45   141   139   ar
    46   121   120    1
    47    28    30   ar
    48   143   142   ar
    49    35    36    2
    50    46    45   ar
    51   139   138   ar
    52    43    45   ar
    53   120   118   ar
    54   120   119   ar
    55   142   140   ar
    56   118   116   ar
    57   119   117   ar
    58   138   140   ar
    59   138   137    1
    60   116   115   ar
    61    47    48    1
    62   137   134    1
    63   103   100    1
    64   103   104    1
    65   117   115   ar
    66   134   135    1
    67   134   133    1
    68   105   104   ar
    69   105   107   ar
    70   101   100    1
    71   101   102    2
    72   100    99    1
    73   115   114    1
    74   136   135    2
    75   104   106   ar
    76   107   109   ar
    77    53    52    1
    78    52    51    1
    79    52    54    1
    80    91    90    2
    81    48    51    1
    82    48    49    1
    83   113   112    2
    84   106   108   ar
    85   109   108   ar
    86    99    90   am
    87    50    49    2
    88   114   111    1
    89    60    61    1
    90    60    59    1
    91    63    61   ar
    92    90    89    1
    93   130   128   ar
    94   130   132   ar
    95   112   111    1
    96   112   122   am
    97   111   110    1
    98    61    62   ar
    99   128   127   ar
   100   132   131   ar
   101    67    66    2
   102    59    56    1
   103   125   124    2
   104   123   122    1
   105   123   124    1
   106   123   126    1
   107    56    55    1
   108    56    57    1
   109   127   126    1
   110   127   129   ar
   111    89    88    1
   112    89    92    1
   113    88    79   am
   114    75    74    1
   115   131   129   ar
   116    64    57   am
   117    64    65    1
   118    66    65    1
   119    66    70   am
   120    77    78    1
   121    77    72   am
   122    71    74    1
   123    71    72    1
   124    71    70    1
   125    69    68    1
   126    92    93    1
   127    74    76    1
   128    57    58    2
   129    78    79    1
   130    78    81    1
   131    79    80    2
   132    72    73    2
   133    65    68    1
   134    85    83   ar
   135    85    87   ar
   136    83    82   ar
   137    87    86   ar
   138    82    81    1
   139    82    84   ar
   140    93    94    1
   141    86    84   ar
   142    94    95    1
   143    95    96    2
   144    97    96    1
   145    96    98    1
