@<TRIPOS>MOLECULE
tmp/5hq5A00.pdb
 149 146 0 0 0
SMALL
GASTEIGER

@<TRIPOS>ATOM
      1  N         -4.2620   -0.5660   -0.9580 N.3    40  TRP40      -0.1228
      2  CA        -4.0910   -1.9320   -1.4650 C.3    40  TRP40       0.1722
      3  C         -5.3960   -2.7430   -1.6810 C.2    40  TRP40       0.2437
      4  O         -5.4890   -3.4460   -2.6870 O.2    40  TRP40      -0.2733
      5  CB        -3.1000   -2.7260   -0.5770 C.3    40  TRP40       0.0563
      6  CG        -3.3560   -2.7030    0.8960 C.ar   40  TRP40       0.0003
      7  CD1       -3.0650   -1.6920    1.7660 C.ar   40  TRP40       0.0946
      8  CD2       -3.9270   -3.7590    1.6880 C.ar   40  TRP40       0.0152
      9  NE1       -3.4470   -2.0390    3.0410 N.ar   40  TRP40      -0.2442
     10  CE2       -3.9780   -3.3000    3.0220 C.ar   40  TRP40       0.0810
     11  CE3       -4.4110   -5.0360    1.4000 C.ar   40  TRP40       0.0012
     12  CZ2       -4.4820   -4.0750    4.0620 C.ar   40  TRP40       0.0191
     13  CZ3       -4.9140   -5.8080    2.4360 C.ar   40  TRP40       0.0001
     14  CH2       -4.9460   -5.3260    3.7520 C.ar   40  TRP40       0.0015
     15  N         -6.4180   -2.6190   -0.8010 N.am   41  PRO41      -0.2718
     16  CA        -7.6190   -3.4170   -1.1040 C.3    41  PRO41       0.1535
     17  C         -8.4090   -2.9190   -2.3140 C.2    41  PRO41       0.2598
     18  O         -9.3140   -3.6350   -2.7760 O.2    41  PRO41      -0.2715
     19  CB        -8.4630   -3.2810    0.1730 C.3    41  PRO41       0.0310
     20  CG        -7.4960   -2.8720    1.2440 C.3    41  PRO41       0.0237
     21  CD        -6.5330   -1.9740    0.5190 C.3    41  PRO41       0.0939
     22  N         -8.0610   -1.7300   -2.8120 N.am   42  PHE42      -0.1974
     23  CA        -8.8220   -1.0600   -3.8660 C.3    42  PHE42       0.1639
     24  C         -8.0650   -1.0130   -5.1950 C.2    42  PHE42       0.2290
     25  O         -8.5450   -0.4180   -6.1540 O.2    42  PHE42      -0.2864
     26  CB        -9.1880    0.3640   -3.4340 C.3    42  PHE42       0.0560
     27  CG        -9.9720    0.4220   -2.1570 C.ar   42  PHE42      -0.0200
     28  CD1      -11.3580    0.3560   -2.1660 C.ar   42  PHE42      -0.0042
     29  CD2       -9.3160    0.5460   -0.9370 C.ar   42  PHE42      -0.0042
     30  CE1      -12.0800    0.4000   -0.9810 C.ar   42  PHE42      -0.0003
     31  CE2      -10.0300    0.5910    0.2510 C.ar   42  PHE42      -0.0003
     32  CZ       -11.4110    0.5100    0.2330 C.ar   42  PHE42      -0.0000
     33  N         -7.3760   -3.3830   -7.3190 N.3    44  GLN44      -0.1231
     34  CA        -7.8010   -4.4140   -8.2750 C.3    44  GLN44       0.1683
     35  C         -9.2460   -4.8070   -7.9580 C.2    44  GLN44       0.2434
     36  O         -9.7110   -4.5800   -6.8490 O.2    44  GLN44      -0.2733
     37  CB        -6.8860   -5.6450   -8.2130 C.3    44  GLN44       0.0380
     38  CG        -6.8410   -6.3240   -6.8530 C.3    44  GLN44       0.0905
     39  CD        -6.0140   -5.5420   -5.8400 C.2    44  GLN44       0.2608
     40  OE1       -4.8840   -5.1430   -6.1260 O.2    44  GLN44      -0.2717
     41  NE2       -6.5800   -5.3150   -4.6540 N.am   44  GLN44      -0.0878
     42  N         -9.9650   -5.3950   -8.9310 N.am   45  PRO45      -0.2718
     43  CA       -11.3280   -5.8570   -8.6300 C.3    45  PRO45       0.1535
     44  C        -11.3960   -6.7590   -7.3970 C.2    45  PRO45       0.2598
     45  O        -10.4670   -7.5260   -7.1380 O.2    45  PRO45      -0.2715
     46  CB       -11.7120   -6.6410   -9.8860 C.3    45  PRO45       0.0310
     47  CG       -10.9170   -5.9950  -10.9800 C.3    45  PRO45       0.0237
     48  CD        -9.5930   -5.6520  -10.3300 C.3    45  PRO45       0.0939
     49  N        -12.4710   -6.6380   -6.6250 N.am   46  VAL46      -0.1964
     50  CA       -12.6740   -7.5410   -5.4980 C.3    46  VAL46       0.1727
     51  C        -12.6460   -9.0020   -5.9570 C.2    46  VAL46       0.2616
     52  O        -13.4600   -9.4080   -6.7890 O.2    46  VAL46      -0.2715
     53  CB       -13.9990   -7.2670   -4.7960 C.3    46  VAL46       0.0290
     54  CG1      -14.2730   -8.3440   -3.7420 C.3    46  VAL46       0.0023
     55  CG2      -13.9920   -5.8790   -4.1690 C.3    46  VAL46       0.0023
     56  N        -11.7130   -9.7800   -5.4070 N.am   47  ASP47      -0.1971
     57  CA       -11.6140  -11.2090   -5.6880 C.3    47  ASP47       0.1709
     58  C        -12.4070  -11.9580   -4.6230 C.2    47  ASP47       0.2293
     59  O        -11.9000  -12.2350   -3.5300 O.2    47  ASP47      -0.2864
     60  CB       -10.1390  -11.6590   -5.7200 C.3    47  ASP47       0.1436
     61  CG        -9.9620  -13.0760   -6.2360 C.2    47  ASP47       0.3671
     62  OD1      -10.8950  -13.8920   -6.0970 O.co2  47  ASP47      -0.2456
     63  OD2       -8.8690  -13.3860   -6.7670 O.co2  47  ASP47      -0.2456
     64  N        -10.9410  -13.8480   -1.2280 N.3    51  LEU51      -0.1245
     65  CA       -11.3160  -13.2390    0.0510 C.3    51  LEU51       0.1561
     66  C        -12.4840  -13.9000    0.7510 C.2    51  LEU51       0.2260
     67  O        -12.9640  -13.3990    1.7750 O.2    51  LEU51      -0.2867
     68  CB       -11.6670  -11.7930   -0.1520 C.3    51  LEU51       0.0270
     69  CG       -10.5430  -10.8660   -0.4860 C.3    51  LEU51       0.0019
     70  CD1      -11.3890   -9.7470   -0.8850 C.3    51  LEU51       0.0001
     71  CD2       -9.7380  -10.5460    0.7520 C.3    51  LEU51       0.0001
     72  N        -15.7420  -14.1270   -0.0560 N.3    53  LEU53      -0.1245
     73  CA       -16.9210  -13.2580   -0.0230 C.3    53  LEU53       0.1561
     74  C        -17.9450  -13.7940   -1.0150 C.2    53  LEU53       0.2260
     75  O        -18.1860  -13.1790   -2.0400 O.2    53  LEU53      -0.2867
     76  CB       -16.5360  -11.8120   -0.3730 C.3    53  LEU53       0.0270
     77  CG       -15.3740  -11.1750    0.3970 C.3    53  LEU53       0.0019
     78  CD1      -15.0360   -9.7910   -0.1800 C.3    53  LEU53       0.0001
     79  CD2      -15.7110  -11.0960    1.8710 C.3    53  LEU53       0.0001
     80  N        -20.6390  -11.3850   -2.3880 N.3    56  TYR56      -0.1241
     81  CA       -20.2870  -10.0170   -2.7900 C.3    56  TYR56       0.1605
     82  C        -20.9780   -9.6030   -4.0940 C.2    56  TYR56       0.2264
     83  O        -21.6170   -8.5600   -4.1600 O.2    56  TYR56      -0.2867
     84  CB       -18.7610   -9.8480   -2.9290 C.3    56  TYR56       0.0534
     85  CG       -18.3650   -8.4080   -3.1900 C.ar   56  TYR56      -0.0201
     86  CD1      -18.1570   -7.5200   -2.1370 C.ar   56  TYR56      -0.0009
     87  CD2      -18.2460   -7.9210   -4.4900 C.ar   56  TYR56      -0.0009
     88  CE1      -17.8230   -6.1910   -2.3740 C.ar   56  TYR56       0.0417
     89  CE2      -17.9170   -6.5960   -4.7330 C.ar   56  TYR56       0.0417
     90  CZ       -17.7000   -5.7420   -3.6750 C.ar   56  TYR56       0.1957
     91  OH       -17.3730   -4.4260   -3.9270 O.3    56  TYR56      -0.2866
     92  N        -16.4850   -1.7160   -9.0330 N.3    64  MET64      -0.1230
     93  CA       -15.5000   -0.7610   -9.5220 C.3    64  MET64       0.1702
     94  C        -14.3550   -0.6900   -8.5340 C.2    64  MET64       0.2592
     95  O        -14.5430   -0.8970   -7.3390 O.2    64  MET64      -0.2718
     96  CB       -16.1340    0.6170   -9.7350 C.3    64  MET64       0.0401
     97  CG       -15.2500    1.6520  -10.4560 C.3    64  MET64       0.0596
     98  SD       -14.4810    1.0830  -11.9810 S.3    64  MET64      -0.1393
     99  CE       -15.9310    0.6810  -12.9380 C.3    64  MET64       0.0692
    100  N        -13.1770   -0.3700   -9.0480 N.am   65  ASP65      -0.1974
    101  CA       -11.9490   -0.4120   -8.2730 C.3    65  ASP65       0.1709
    102  C        -10.9160    0.4860   -8.9320 C.2    65  ASP65       0.2293
    103  O        -11.0610    0.8390  -10.1110 O.2    65  ASP65      -0.2864
    104  CB       -11.4310   -1.8430   -8.1930 C.3    65  ASP65       0.1436
    105  CG       -10.9900   -2.3650   -9.5430 C.2    65  ASP65       0.3671
    106  OD1      -11.8550   -2.8510  -10.3060 O.co2  65  ASP65      -0.2456
    107  OD2       -9.7890   -2.2420   -9.8490 O.co2  65  ASP65      -0.2456
    108  N        -17.0500    3.0720   -6.5640 N.3    91  MET91      -0.1245
    109  CA       -16.1230    2.2840   -5.7550 C.3    91  MET91       0.1570
    110  C        -16.3500    2.4770   -4.2600 C.2    91  MET91       0.2261
    111  O        -16.4750    1.5000   -3.5170 O.2    91  MET91      -0.2867
    112  CB       -14.6700    2.6270   -6.1020 C.3    91  MET91       0.0387
    113  CG       -13.6570    1.8340   -5.3220 C.3    91  MET91       0.0595
    114  SD       -11.9730    2.3490   -5.7110 S.3    91  MET91      -0.1393
    115  CE       -11.9130    3.9190   -4.8460 C.3    91  MET91       0.0692
    116  N        -18.3840   -0.2450   -1.3280 N.3    95  CYS95      -0.1235
    117  CA       -17.7550   -0.6030   -0.0640 C.3    95  CYS95       0.1677
    118  C        -18.7050   -0.3310    1.0990 C.2    95  CYS95       0.2270
    119  O        -18.8990   -1.1810    1.9710 O.2    95  CYS95      -0.2867
    120  CB       -16.4500    0.1770    0.1160 C.3    95  CYS95       0.0956
    121  SG       -15.4240   -0.3930    1.4540 S.3    95  CYS95      -0.0801
    122  N        -21.8030   -2.8460    1.0500 N.3    98  TYR98      -0.1227
    123  CA       -21.5530   -4.2470    1.3840 C.3    98  TYR98       0.1736
    124  C        -21.1710   -4.4730    2.8460 C.2    98  TYR98       0.2595
    125  O        -21.5260   -5.5070    3.4370 O.2    98  TYR98      -0.2718
    126  CB       -20.4660   -4.8320    0.4690 C.3    98  TYR98       0.0548
    127  CG       -20.2180   -6.3050    0.7400 C.ar   98  TYR98      -0.0200
    128  CD1      -21.1140   -7.2810    0.2920 C.ar   98  TYR98      -0.0009
    129  CD2      -19.0990   -6.7210    1.4510 C.ar   98  TYR98      -0.0009
    130  CE1      -20.8990   -8.6340    0.5510 C.ar   98  TYR98       0.0417
    131  CE2      -18.8680   -8.0670    1.7070 C.ar   98  TYR98       0.0417
    132  CZ       -19.7670   -9.0190    1.2620 C.ar   98  TYR98       0.1957
    133  OH       -19.5400  -10.3570    1.5420 O.3    98  TYR98      -0.2866
    134  N        -20.4610   -3.5140    3.4290 N.am   99  ASN99      -0.1974
    135  CA       -19.8690   -3.6980    4.7460 C.3    99  ASN99       0.1688
    136  C        -20.6270   -2.9730    5.8520 C.2    99  ASN99       0.2292
    137  O        -21.6660   -2.3650    5.6110 O.2    99  ASN99      -0.2864
    138  CB       -18.4050   -3.2570    4.7070 C.3    99  ASN99       0.1181
    139  CG       -17.5890   -4.0890    3.7420 C.2    99  ASN99       0.2629
    140  OD1      -17.1750   -5.2060    4.0690 O.2    99  ASN99      -0.2716
    141  ND2      -17.3860   -3.5730    2.5280 N.am   99  ASN99      -0.0877
    142  N        -12.2720   -2.0150    6.3300 N.3   105  ILE105     -0.1245
    143  CA       -12.3000   -1.6650    4.9190 C.3   105  ILE105      0.1561
    144  C        -13.1060   -0.3750    4.7150 C.2   105  ILE105      0.2260
    145  O        -12.7910    0.4080    3.8240 O.2   105  ILE105     -0.2867
    146  CB       -12.8570   -2.8330    4.0520 C.3   105  ILE105      0.0252
    147  CG1      -12.6220   -2.5540    2.5670 C.3   105  ILE105      0.0019
    148  CG2      -14.3280   -3.1000    4.3430 C.3   105  ILE105      0.0019
    149  CD1      -11.1610   -2.5810    2.1950 C.3   105  ILE105      0.0001
@<TRIPOS>BOND
     1    99    98    1
     2    98    97    1
     3    47    48    1
     4    47    46    1
     5    97    96    1
     6    48    42    1
     7   106   105   ar
     8   103   102    2
     9    46    43    1
    10   107   105   ar
    11    96    93    1
    12   105   104    1
    13    93    92    1
    14    93    94    1
    15   100    94   am
    16   100   101    1
    17   102   101    1
    18    42    43    1
    19    42    35   am
    20    43    44    1
    21    94    95    2
    22    34    37    1
    23    34    35    1
    24    34    33    1
    25   101   104    1
    26    37    38    1
    27    35    36    2
    28    44    45    2
    29    44    49   am
    30    38    39    1
    31    52    51    2
    32    63    61   ar
    33    49    50    1
    34   108   109    1
    35    61    62   ar
    36    61    60    1
    37    25    24    2
    38    40    39    2
    39   112   109    1
    40   112   113    1
    41    51    50    1
    42    51    56   am
    43    39    41   am
    44   109   110    1
    45    60    57    1
    46   114   113    1
    47   114   115    1
    48    57    56    1
    49    57    58    1
    50    50    53    1
    51    24    23    1
    52    53    55    1
    53    53    54    1
    54    89    87   ar
    55    89    90   ar
    56    58    59    2
    57    87    85   ar
    58   110   111    2
    59    83    82    2
    60    82    81    1
    61    91    90    1
    62    23    26    1
    63    23    22    1
    64    90    88   ar
    65    26    27    1
    66    85    84    1
    67    85    86   ar
    68    84    81    1
    69    22    17   am
    70    81    80    1
    71    18    17    2
    72     4     3    2
    73    88    86   ar
    74    17    16    1
    75    28    27   ar
    76    28    30   ar
    77    27    29   ar
    78    75    74    2
    79     3     2    1
    80     3    15   am
    81     2     1    1
    82     2     5    1
    83   116   117    1
    84    64    65    1
    85    16    15    1
    86    16    19    1
    87    74    73    1
    88    30    32   ar
    89    29    31   ar
    90    70    69    1
    91    15    21    1
    92     5     6    1
    93    69    68    1
    94    69    71    1
    95    76    73    1
    96    76    77    1
    97    78    77    1
    98    68    65    1
    99   117   120    1
   100   117   118    1
   101    72    73    1
   102    65    66    1
   103   120   121    1
   104    19    20    1
   105    32    31   ar
   106   128   130   ar
   107   128   127   ar
   108    77    79    1
   109   126   127    1
   110   126   123    1
   111    21    20    1
   112   130   132   ar
   113   127   129   ar
   114    66    67    2
   115     6     8   ar
   116     6     7   ar
   117   122   123    1
   118   118   119    2
   119   132   133    1
   120   132   131   ar
   121   123   124    1
   122    11     8   ar
   123    11    13   ar
   124   129   131   ar
   125     8    10   ar
   126     7     9   ar
   127   149   147    1
   128    13    14   ar
   129   141   139   am
   130   147   146    1
   131   124   134   am
   132   124   125    2
   133    10     9   ar
   134    10    12   ar
   135   134   135    1
   136   139   140    2
   137   139   138    1
   138    14    12   ar
   139   145   144    2
   140   146   148    1
   141   146   143    1
   142   138   135    1
   143   144   143    1
   144   135   136    1
   145   143   142    1
   146   137   136    2
