@<TRIPOS>MOLECULE
tmp/5hq6A00.pdb
 101 99 0 0 0
SMALL
GASTEIGER

@<TRIPOS>ATOM
      1  N         -1.7910   -0.3890   -1.0640 N.3    40  TRP40      -0.1228
      2  CA        -1.5130   -1.6940   -1.6500 C.3    40  TRP40       0.1722
      3  C         -2.7570   -2.5430   -1.9800 C.2    40  TRP40       0.2437
      4  O         -2.7350   -3.2700   -2.9720 O.2    40  TRP40      -0.2733
      5  CB        -0.5400   -2.4860   -0.7590 C.3    40  TRP40       0.0563
      6  CG        -1.0510   -2.8660    0.6020 C.ar   40  TRP40       0.0003
      7  CD1       -0.7810   -2.2440    1.7890 C.ar   40  TRP40       0.0946
      8  CD2       -1.8890   -3.9830    0.9150 C.ar   40  TRP40       0.0152
      9  NE1       -1.4160   -2.8980    2.8200 N.ar   40  TRP40      -0.2442
     10  CE2       -2.0980   -3.9720    2.3070 C.ar   40  TRP40       0.0810
     11  CE3       -2.4840   -4.9950    0.1470 C.ar   40  TRP40       0.0012
     12  CZ2       -2.8920   -4.9200    2.9470 C.ar   40  TRP40       0.0191
     13  CZ3       -3.2750   -5.9380    0.7850 C.ar   40  TRP40       0.0001
     14  CH2       -3.4700   -5.8930    2.1730 C.ar   40  TRP40       0.0015
     15  N         -3.8490   -2.4520   -1.1950 N.am   41  PRO41      -0.2718
     16  CA        -4.9630   -3.3040   -1.6430 C.3    41  PRO41       0.1535
     17  C         -5.6060   -2.8270   -2.9450 C.2    41  PRO41       0.2598
     18  O         -6.3160   -3.5830   -3.6030 O.2    41  PRO41      -0.2715
     19  CB        -5.9770   -3.2090   -0.4910 C.3    41  PRO41       0.0310
     20  CG        -5.1980   -2.6810    0.6850 C.3    41  PRO41       0.0237
     21  CD        -4.1610   -1.7810    0.0840 C.3    41  PRO41       0.0939
     22  N         -5.3400   -1.5820   -3.3120 N.am   42  PHE42      -0.1974
     23  CA        -6.0520   -0.9510   -4.3990 C.3    42  PHE42       0.1639
     24  C         -5.1830   -0.7640   -5.6370 C.2    42  PHE42       0.2290
     25  O         -5.5740   -0.0710   -6.5710 O.2    42  PHE42      -0.2864
     26  CB        -6.6110    0.3930   -3.9070 C.3    42  PHE42       0.0560
     27  CG        -7.3470    0.2860   -2.5940 C.ar   42  PHE42      -0.0200
     28  CD1       -8.6570   -0.1600   -2.5520 C.ar   42  PHE42      -0.0042
     29  CD2       -6.7180    0.5950   -1.3950 C.ar   42  PHE42      -0.0042
     30  CE1       -9.3260   -0.2880   -1.3460 C.ar   42  PHE42      -0.0003
     31  CE2       -7.3840    0.4760   -0.1940 C.ar   42  PHE42      -0.0003
     32  CZ        -8.6870    0.0350   -0.1680 C.ar   42  PHE42      -0.0000
     33  N         -9.0050   -6.6470   -7.8790 N.3    46  VAL46      -0.1245
     34  CA        -9.2600   -7.6500   -6.8520 C.3    46  VAL46       0.1561
     35  C         -9.1420   -9.0470   -7.4520 C.2    46  VAL46       0.2260
     36  O         -9.9000   -9.4170   -8.3620 O.2    46  VAL46      -0.2867
     37  CB       -10.6470   -7.4610   -6.2110 C.3    46  VAL46       0.0252
     38  CG1      -11.0060   -8.6500   -5.3420 C.3    46  VAL46       0.0019
     39  CG2      -10.6710   -6.1850   -5.3940 C.3    46  VAL46       0.0019
     40  N         -6.9420  -13.6590   -3.0700 N.3    51  LEU51      -0.1245
     41  CA        -7.3320  -13.0850   -1.7780 C.3    51  LEU51       0.1561
     42  C         -8.3610  -13.9310   -1.0430 C.2    51  LEU51       0.2260
     43  O         -8.8030  -13.5630    0.0510 O.2    51  LEU51      -0.2867
     44  CB        -7.8880  -11.6720   -1.9610 C.3    51  LEU51       0.0270
     45  CG        -6.9370  -10.6700   -2.6120 C.3    51  LEU51       0.0019
     46  CD1       -7.6510   -9.3490   -2.8280 C.3    51  LEU51       0.0001
     47  CD2       -5.6860  -10.4710   -1.7630 C.3    51  LEU51       0.0001
     48  N        -11.5320  -14.4940   -1.7400 N.3    53  LEU53      -0.1245
     49  CA       -12.8050  -13.7870   -1.6550 C.3    53  LEU53       0.1561
     50  C        -13.7120  -14.2960   -2.7690 C.2    53  LEU53       0.2260
     51  O        -13.9550  -13.5860   -3.7470 O.2    53  LEU53      -0.2867
     52  CB       -12.6050  -12.2710   -1.7750 C.3    53  LEU53       0.0270
     53  CG       -11.6200  -11.6220   -0.8000 C.3    53  LEU53       0.0019
     54  CD1      -11.3670  -10.1520   -1.1790 C.3    53  LEU53       0.0001
     55  CD2      -12.1430  -11.7270    0.6380 C.3    53  LEU53       0.0001
     56  N        -16.6250  -12.1050   -3.9880 N.3    56  TYR56      -0.1241
     57  CA       -16.3810  -10.7010   -4.3100 C.3    56  TYR56       0.1605
     58  C        -17.1560  -10.2660   -5.5460 C.2    56  TYR56       0.2264
     59  O        -17.9190   -9.3020   -5.4920 O.2    56  TYR56      -0.2867
     60  CB       -14.8980  -10.4080   -4.5170 C.3    56  TYR56       0.0534
     61  CG       -14.6760   -8.9070   -4.6560 C.ar   56  TYR56      -0.0201
     62  CD1      -14.6210   -8.0890   -3.5300 C.ar   56  TYR56      -0.0009
     63  CD2      -14.5830   -8.3080   -5.9020 C.ar   56  TYR56      -0.0009
     64  CE1      -14.4420   -6.7250   -3.6350 C.ar   56  TYR56       0.0417
     65  CE2      -14.4070   -6.9260   -6.0230 C.ar   56  TYR56       0.0417
     66  CZ       -14.3360   -6.1390   -4.8870 C.ar   56  TYR56       0.1957
     67  OH       -14.1740   -4.7640   -4.9920 O.3    56  TYR56      -0.2866
     68  N        -15.3810   -0.8600   -2.1620 N.3    95  CYS95      -0.1235
     69  CA       -14.8030   -1.3210   -0.9130 C.3    95  CYS95       0.1677
     70  C        -15.8180   -1.2480    0.2270 C.2    95  CYS95       0.2270
     71  O        -15.8920   -2.1640    1.0480 O.2    95  CYS95      -0.2867
     72  CB       -13.5560   -0.5070   -0.5680 C.3    95  CYS95       0.0956
     73  SG       -12.6280   -1.1560    0.8630 S.3    95  CYS95      -0.0801
     74  N        -18.6680   -3.9630   -0.4350 N.3    98  TYR98      -0.1227
     75  CA       -18.3060   -5.3600   -0.2110 C.3    98  TYR98       0.1736
     76  C        -18.0040   -5.6350    1.2570 C.2    98  TYR98       0.2595
     77  O        -18.2830   -6.7150    1.7610 O.2    98  TYR98      -0.2718
     78  CB       -17.1020   -5.7740   -1.0590 C.3    98  TYR98       0.0548
     79  CG       -16.6740   -7.2100   -0.7850 C.ar   98  TYR98      -0.0200
     80  CD1      -17.4800   -8.2780   -1.1710 C.ar   98  TYR98      -0.0009
     81  CD2      -15.4800   -7.4900   -0.1350 C.ar   98  TYR98      -0.0009
     82  CE1      -17.1040   -9.5910   -0.9190 C.ar   98  TYR98       0.0417
     83  CE2      -15.0930   -8.7970    0.1170 C.ar   98  TYR98       0.0417
     84  CZ       -15.9080   -9.8430   -0.2730 C.ar   98  TYR98       0.1957
     85  OH       -15.5300  -11.1470   -0.0080 O.3    98  TYR98      -0.2866
     86  N        -17.4250   -4.6530    1.9360 N.am   99  ASN99      -0.1974
     87  CA       -17.0040   -4.8410    3.3140 C.3    99  ASN99       0.1688
     88  C        -17.9250   -4.1190    4.2930 C.2    99  ASN99       0.2292
     89  O        -18.8600   -3.4420    3.8790 O.2    99  ASN99      -0.2864
     90  CB       -15.5640   -4.3650    3.4890 C.3    99  ASN99       0.1181
     91  CG       -14.5900   -5.0850    2.5670 C.2    99  ASN99       0.2629
     92  OD1      -14.2380   -6.2340    2.8000 O.2    99  ASN99      -0.2716
     93  ND2      -14.1380   -4.3980    1.5240 N.am   99  ASN99      -0.0877
     94  N         -9.7560   -3.0750    5.9060 N.3   105  ILE105     -0.1245
     95  CA        -9.6720   -2.6430    4.5160 C.3   105  ILE105      0.1561
     96  C        -10.5220   -1.3790    4.2580 C.2   105  ILE105      0.2260
     97  O        -10.1510   -0.5240    3.4590 O.2   105  ILE105     -0.2867
     98  CB       -10.1100   -3.7920    3.5710 C.3   105  ILE105      0.0252
     99  CG1      -10.0730   -3.3480    2.1170 C.3   105  ILE105      0.0019
    100  CG2      -11.5000   -4.2760    3.9260 C.3   105  ILE105      0.0019
    101  CD1       -8.7120   -2.9720    1.6620 C.3   105  ILE105      0.0001
@<TRIPOS>BOND
     1    36    35    2
     2    33    34    1
     3    35    34    1
     4    34    37    1
     5    25    24    2
     6    37    39    1
     7    37    38    1
     8    65    63   ar
     9    65    66   ar
    10    63    61   ar
    11    24    23    1
    12    58    59    2
    13    58    57    1
    14    67    66    1
    15    66    64   ar
    16    61    60    1
    17    61    62   ar
    18    60    57    1
    19    23    26    1
    20    23    22    1
    21    57    56    1
    22    26    27    1
    23    51    50    2
    24    64    62   ar
    25    18    17    2
    26    22    17   am
    27    40    41    1
    28     4     3    2
    29    17    16    1
    30    46    45    1
    31    50    49    1
    32    45    44    1
    33    45    47    1
    34    27    28   ar
    35    27    29   ar
    36    28    30   ar
    37    68    69    1
    38     3     2    1
    39     3    15   am
    40    44    41    1
    41    41    42    1
    42    52    49    1
    43    52    53    1
    44    48    49    1
    45     2     1    1
    46     2     5    1
    47    16    15    1
    48    16    19    1
    49    29    31   ar
    50    30    32   ar
    51    15    21    1
    52    54    53    1
    53    80    82   ar
    54    80    79   ar
    55    78    79    1
    56    78    75    1
    57    42    43    2
    58    82    84   ar
    59    69    72    1
    60    69    70    1
    61    53    55    1
    62    79    81   ar
    63     5     6    1
    64    72    73    1
    65    19    20    1
    66    74    75    1
    67    84    85    1
    68    84    83   ar
    69    75    76    1
    70    31    32   ar
    71    81    83   ar
    72    21    20    1
    73    11    13   ar
    74    11     8   ar
    75    70    71    2
    76     6     8   ar
    77     6     7   ar
    78    13    14   ar
    79     8    10   ar
    80    76    77    2
    81    76    86   am
    82    93    91   am
    83   101    99    1
    84     7     9   ar
    85    86    87    1
    86    99    98    1
    87    14    12   ar
    88    10     9   ar
    89    10    12   ar
    90    91    92    2
    91    91    90    1
    92    87    90    1
    93    87    88    1
    94    97    96    2
    95    98   100    1
    96    98    95    1
    97    89    88    2
    98    96    95    1
    99    95    94    1
