@<TRIPOS>MOLECULE
tmp/5hq7A00.pdb
 110 107 0 0 0
SMALL
GASTEIGER

@<TRIPOS>ATOM
      1  N          2.7160    0.5200   -0.4680 N.3    39  TRP39      -0.1228
      2  CA         2.4250    1.8400   -1.0400 C.3    39  TRP39       0.1722
      3  C          3.6340    2.7300   -1.3960 C.2    39  TRP39       0.2437
      4  O          3.5560    3.4670   -2.3720 O.2    39  TRP39      -0.2733
      5  CB         1.4790    2.6350   -0.1150 C.3    39  TRP39       0.0563
      6  CG         1.9800    2.8860    1.2650 C.ar   39  TRP39       0.0003
      7  CD1        1.7720    2.1020    2.3670 C.ar   39  TRP39       0.0946
      8  CD2        2.7400    4.0140    1.7150 C.ar   39  TRP39       0.0152
      9  NE1        2.3690    2.6690    3.4680 N.ar   39  TRP39      -0.2442
     10  CE2        2.9720    3.8400    3.0940 C.ar   39  TRP39       0.0810
     11  CE3        3.2570    5.1450    1.0820 C.ar   39  TRP39       0.0012
     12  CZ2        3.6940    4.7570    3.8530 C.ar   39  TRP39       0.0191
     13  CZ3        3.9740    6.0560    1.8350 C.ar   39  TRP39       0.0001
     14  CH2        4.1890    5.8550    3.2060 C.ar   39  TRP39       0.0015
     15  N          4.7470    2.6680   -0.6370 N.am   40  PRO40      -0.2718
     16  CA         5.8600    3.5070   -1.0990 C.3    40  PRO40       0.1535
     17  C          6.5100    3.0300   -2.4050 C.2    40  PRO40       0.2598
     18  O          7.3250    3.7490   -2.9790 O.2    40  PRO40      -0.2715
     19  CB         6.8780    3.4040    0.0390 C.3    40  PRO40       0.0310
     20  CG         6.1290    2.8680    1.2120 C.3    40  PRO40       0.0237
     21  CD         5.0940    1.9630    0.6130 C.3    40  PRO40       0.0939
     22  N          6.1570    1.8260   -2.8410 N.am   41  PHE41      -0.1974
     23  CA         6.8240    1.1600   -3.9500 C.3    41  PHE41       0.1639
     24  C          5.9280    1.0110   -5.1720 C.2    41  PHE41       0.2290
     25  O          6.3080    0.3600   -6.1430 O.2    41  PHE41      -0.2864
     26  CB         7.3080   -0.2340   -3.5010 C.3    41  PHE41       0.0560
     27  CG         8.1760   -0.2000   -2.2720 C.ar   41  PHE41      -0.0200
     28  CD1        9.5400    0.0460   -2.3750 C.ar   41  PHE41      -0.0042
     29  CD2        7.6260   -0.3880   -1.0110 C.ar   41  PHE41      -0.0042
     30  CE1       10.3440    0.0920   -1.2400 C.ar   41  PHE41      -0.0003
     31  CE2        8.4240   -0.3330    0.1310 C.ar   41  PHE41      -0.0003
     32  CZ         9.7810   -0.1060    0.0160 C.ar   41  PHE41      -0.0000
     33  N          4.7830    3.3330   -7.2150 N.3    43  GLN43      -0.1245
     34  CA         4.9900    4.3320   -8.2680 C.3    43  GLN43       0.1566
     35  C          6.4280    4.8290   -8.2500 C.2    43  GLN43       0.2260
     36  O          7.1150    4.7050   -7.2350 O.2    43  GLN43      -0.2867
     37  CB         4.0280    5.5180   -8.0950 C.3    43  GLN43       0.0367
     38  CG         4.1860    6.2560   -6.7650 C.3    43  GLN43       0.0905
     39  CD         3.6190    5.4570   -5.6080 C.2    43  GLN43       0.2608
     40  OE1        2.4830    4.9940   -5.6740 O.2    43  GLN43      -0.2717
     41  NE2        4.4190    5.2610   -4.5580 N.am   43  GLN43      -0.0878
     42  N          9.4250    7.2220   -7.5980 N.3    45  VAL45      -0.1245
     43  CA         9.6380    8.2960   -6.6460 C.3    45  VAL45       0.1561
     44  C          9.4670    9.6600   -7.3170 C.2    45  VAL45       0.2260
     45  O         10.0730    9.9460   -8.3630 O.2    45  VAL45      -0.2867
     46  CB        11.0300    8.2000   -6.0070 C.3    45  VAL45       0.0252
     47  CG1       11.3680    9.4830   -5.2660 C.3    45  VAL45       0.0019
     48  CG2       11.0960    7.0070   -5.0790 C.3    45  VAL45       0.0019
     49  N          7.5400   14.4980   -2.9680 N.3    50  LEU50      -0.1245
     50  CA         8.0050   13.9270   -1.7010 C.3    50  LEU50       0.1561
     51  C          9.1130   14.7250   -1.0310 C.2    50  LEU50       0.2260
     52  O          9.6000   14.3350    0.0390 O.2    50  LEU50      -0.2867
     53  CB         8.5040   12.4970   -1.9110 C.3    50  LEU50       0.0270
     54  CG         7.4640   11.4740   -2.3520 C.3    50  LEU50       0.0019
     55  CD1        8.1530   10.1420   -2.5850 C.3    50  LEU50       0.0001
     56  CD2        6.3640   11.3440   -1.3130 C.3    50  LEU50       0.0001
     57  N         12.2860   15.1420   -1.9200 N.3    52  LEU52      -0.1245
     58  CA        13.5080   14.3530   -1.8270 C.3    52  LEU52       0.1561
     59  C         14.4230   14.7600   -2.9600 C.2    52  LEU52       0.2260
     60  O         14.6450   13.9830   -3.8910 O.2    52  LEU52      -0.2867
     61  CB        13.2100   12.8530   -1.9020 C.3    52  LEU52       0.0270
     62  CG        12.1920   12.2830   -0.9100 C.3    52  LEU52       0.0019
     63  CD1       11.9320   10.8080   -1.2240 C.3    52  LEU52       0.0001
     64  CD2       12.6890   12.4560    0.5120 C.3    52  LEU52       0.0001
     65  N         17.2150   12.3830   -4.0310 N.3    55  TYR55      -0.1241
     66  CA        16.9480   10.9820   -4.3880 C.3    55  TYR55       0.1605
     67  C         17.6640   10.5520   -5.6700 C.2    55  TYR55       0.2264
     68  O         18.4060    9.5640   -5.6820 O.2    55  TYR55      -0.2867
     69  CB        15.4450   10.7140   -4.5420 C.3    55  TYR55       0.0534
     70  CG        15.1610    9.2340   -4.7310 C.ar   55  TYR55      -0.0201
     71  CD1       15.1580    8.3710   -3.6450 C.ar   55  TYR55      -0.0009
     72  CD2       14.9460    8.6940   -5.9980 C.ar   55  TYR55      -0.0009
     73  CE1       14.9250    7.0100   -3.8030 C.ar   55  TYR55       0.0417
     74  CE2       14.7150    7.3250   -6.1670 C.ar   55  TYR55       0.0417
     75  CZ        14.7040    6.4920   -5.0660 C.ar   55  TYR55       0.1957
     76  OH        14.4760    5.1320   -5.2190 O.3    55  TYR55      -0.2866
     77  N         16.2170    1.1120   -2.2760 N.3    94  CYS94      -0.1235
     78  CA        15.7030    1.5450   -0.9810 C.3    94  CYS94       0.1677
     79  C         16.7880    1.4820    0.0940 C.2    94  CYS94       0.2270
     80  O         16.9350    2.4050    0.8910 O.2    94  CYS94      -0.2867
     81  CB        14.5060    0.6950   -0.5750 C.3    94  CYS94       0.0956
     82  SG        13.7320    1.2410    0.9380 S.3    94  CYS94      -0.0801
     83  N         19.4210    4.3530   -0.6220 N.3    97  TYR97      -0.1227
     84  CA        19.0140    5.7420   -0.4080 C.3    97  TYR97       0.1736
     85  C         18.7700    6.0440    1.0700 C.2    97  TYR97       0.2595
     86  O         18.8990    7.1820    1.5170 O.2    97  TYR97      -0.2718
     87  CB        17.7600    6.0790   -1.2190 C.3    97  TYR97       0.0548
     88  CG        17.2410    7.4580   -0.8890 C.ar   97  TYR97      -0.0200
     89  CD1       17.9820    8.5920   -1.2100 C.ar   97  TYR97      -0.0009
     90  CD2       16.0380    7.6280   -0.2110 C.ar   97  TYR97      -0.0009
     91  CE1       17.5300    9.8650   -0.8740 C.ar   97  TYR97       0.0417
     92  CE2       15.5740    8.8930    0.1240 C.ar   97  TYR97       0.0417
     93  CZ        16.3230   10.0070   -0.2080 C.ar   97  TYR97       0.1957
     94  OH        15.8670   11.2650    0.1220 O.3    97  TYR97      -0.2866
     95  N         18.4170    5.0220    1.8350 N.am   98  ASN98      -0.1974
     96  CA        18.1320    5.2270    3.2480 C.3    98  ASN98       0.1688
     97  C         19.2150    4.5930    4.1090 C.2    98  ASN98       0.2292
     98  O         20.3760    4.5390    3.7080 O.2    98  ASN98      -0.2864
     99  CB        16.7610    4.6630    3.5880 C.3    98  ASN98       0.1181
    100  CG        15.6510    5.3200    2.7950 C.2    98  ASN98       0.2629
    101  OD1       15.0730    4.7130    1.8990 O.2    98  ASN98      -0.2716
    102  ND2       15.3400    6.5570    3.1300 N.am   98  ASN98      -0.0877
    103  N         10.9660    3.1000    6.0760 N.3   104  ILE104     -0.1245
    104  CA        10.8330    2.6320    4.6920 C.3   104  ILE104      0.1561
    105  C         11.6800    1.3840    4.4320 C.2   104  ILE104      0.2260
    106  O         11.3100    0.5180    3.6300 O.2   104  ILE104     -0.2867
    107  CB        11.2150    3.7550    3.6880 C.3   104  ILE104      0.0252
    108  CG1       11.0590    3.2810    2.2470 C.3   104  ILE104      0.0019
    109  CG2       12.6290    4.2320    3.9170 C.3   104  ILE104      0.0019
    110  CD1        9.6640    2.8790    1.9220 C.3   104  ILE104      0.0001
@<TRIPOS>BOND
     1    45    44    2
     2    34    35    1
     3    34    37    1
     4    34    33    1
     5    35    36    2
     6    37    38    1
     7    42    43    1
     8    44    43    1
     9    38    39    1
    10    43    46    1
    11    74    72   ar
    12    74    75   ar
    13    25    24    2
    14    46    47    1
    15    46    48    1
    16    72    70   ar
    17    68    67    2
    18    40    39    2
    19    67    66    1
    20    39    41   am
    21    76    75    1
    22    24    23    1
    23    75    73   ar
    24    70    69    1
    25    70    71   ar
    26    69    66    1
    27    66    65    1
    28    23    26    1
    29    23    22    1
    30    60    59    2
    31    73    71   ar
    32    26    27    1
    33    18    17    2
    34    49    50    1
    35    59    58    1
    36    22    17   am
    37    55    54    1
    38    17    16    1
    39    28    27   ar
    40    28    30   ar
    41     4     3    2
    42    54    53    1
    43    54    56    1
    44    77    78    1
    45    27    29   ar
    46    57    58    1
    47    53    50    1
    48    61    58    1
    49    61    62    1
    50    50    51    1
    51     3     2    1
    52     3    15   am
    53    30    32   ar
    54    63    62    1
    55    87    88    1
    56    87    84    1
    57    89    88   ar
    58    89    91   ar
    59    16    15    1
    60    16    19    1
    61     2     1    1
    62     2     5    1
    63    51    52    2
    64    29    31   ar
    65    78    81    1
    66    78    79    1
    67    62    64    1
    68    88    90   ar
    69    91    93   ar
    70    15    21    1
    71    83    84    1
    72    81    82    1
    73    84    85    1
    74    90    92   ar
    75    93    94    1
    76    93    92   ar
    77     5     6    1
    78    32    31   ar
    79    19    20    1
    80    79    80    2
    81    21    20    1
    82    85    86    2
    83    85    95   am
    84    11     8   ar
    85    11    13   ar
    86     6     8   ar
    87     6     7   ar
    88     8    10   ar
    89    95    96    1
    90    13    14   ar
    91   101   100    2
    92   110   108    1
    93   108   107    1
    94     7     9   ar
    95   100   102   am
    96   100    99    1
    97    10     9   ar
    98    10    12   ar
    99    14    12   ar
   100    96    99    1
   101    96    97    1
   102   106   105    2
   103   107   109    1
   104   107   104    1
   105    98    97    2
   106   105   104    1
   107   104   103    1
