@<TRIPOS>MOLECULE
tmp/5hqaA00.pdb
 255 254 0 0 0
SMALL
GASTEIGER

@<TRIPOS>ATOM
      1  N        167.1740    9.2430   25.4440 N.3   150  TRP150     -0.1227
      2  CA       166.5930   10.5390   25.1200 C.3   150  TRP150      0.1737
      3  C        166.8630   10.9480   23.6760 C.2   150  TRP150      0.2595
      4  O        166.1000   11.7560   23.1250 O.2   150  TRP150     -0.2718
      5  CB       167.1180   11.6180   26.0740 C.3   150  TRP150      0.0564
      6  CG       168.5340   12.0050   25.8120 C.ar  150  TRP150      0.0003
      7  CD1      169.6580   11.3880   26.2860 C.ar  150  TRP150      0.0946
      8  CD2      168.9860   13.0960   25.0040 C.ar  150  TRP150      0.0152
      9  NE1      170.7810   12.0290   25.8220 N.ar  150  TRP150     -0.2442
     10  CE2      170.3960   13.0800   25.0300 C.ar  150  TRP150      0.0810
     11  CE3      168.3380   14.0780   24.2600 C.ar  150  TRP150      0.0012
     12  CZ2      171.1640   14.0100   24.3490 C.ar  150  TRP150      0.0191
     13  CZ3      169.1090   15.0080   23.5750 C.ar  150  TRP150      0.0001
     14  CH2      170.5060   14.9640   23.6240 C.ar  150  TRP150      0.0015
     15  N        167.8990   10.3890   23.0360 N.am  151  ASN151     -0.1960
     16  CA       168.2310   10.7930   21.6730 C.3   151  ASN151      0.1819
     17  C        167.8540    9.7600   20.6150 C.2   151  ASN151      0.2621
     18  O        168.3990    9.8050   19.5090 O.2   151  ASN151     -0.2715
     19  CB       169.7160   11.1500   21.5420 C.3   151  ASN151      0.1195
     20  CG       169.9260   12.3990   20.6940 C.2   151  ASN151      0.2630
     21  OD1      169.1060   13.3160   20.7300 O.2   151  ASN151     -0.2716
     22  ND2      170.9990   12.4310   19.9140 N.am  151  ASN151     -0.0877
     23  N        166.9210    8.8520   20.9140 N.am  152  ARG152     -0.1977
     24  CA       166.2630    8.0060   19.8860 C.3   152  ARG152      0.1597
     25  C        167.3200    7.1140   19.2340 C.2   152  ARG152      0.2287
     26  O        168.0190    6.3730   19.9450 O.2   152  ARG152     -0.2864
     27  CB       165.4900    8.9040   18.9130 C.3   152  ARG152      0.0334
     28  CG       164.4320    9.8410   19.5390 C.3   152  ARG152      0.0492
     29  CD       163.9090   10.8340   18.4780 C.3   152  ARG152      0.2205
     30  NE       165.0450   11.3450   17.7280 N.pl3 152  ARG152     -0.0865
     31  CZ       165.7720   12.3870   18.0910 C.cat 152  ARG152      0.5346
     32  NH1      165.4520   13.0810   19.1680 N.pl3 152  ARG152      0.1354
     33  NH2      166.8140   12.7420   17.3620 N.pl3 152  ARG152      0.1354
     34  N        169.8640    8.3450   17.4670 N.3   154  GLU154     -0.1245
     35  CA       171.0230    9.1830   17.1520 C.3   154  GLU154      0.1567
     36  C        172.0770    9.0570   18.2550 C.2   154  GLU154      0.2260
     37  O        172.2800    9.9450   19.0880 O.2   154  GLU154     -0.2867
     38  CB       170.5850   10.6280   16.9280 C.3   154  GLU154      0.0388
     39  CG       169.8230   10.8110   15.6050 C.3   154  GLU154      0.1160
     40  CD       169.2780   12.2270   15.4060 C.2   154  GLU154      0.3649
     41  OE1      168.9350   12.5810   14.2550 O.co2 154  GLU154     -0.2457
     42  OE2      169.1850   12.9800   16.4000 O.co2 154  GLU154     -0.2457
     43  N        170.4930   24.6830    4.2710 N.3   270  TRP270     -0.1241
     44  CA       170.4770   23.6500    5.2980 C.3   270  TRP270      0.1605
     45  C        171.7160   23.7380    6.1880 C.2   270  TRP270      0.2264
     46  O        171.6140   24.1060    7.3610 O.2   270  TRP270     -0.2867
     47  CB       170.3750   22.2600    4.6530 C.3   270  TRP270      0.0550
     48  CG       170.3790   21.1890    5.6890 C.ar  270  TRP270      0.0003
     49  CD1      169.3630   20.8840    6.5510 C.ar  270  TRP270      0.0946
     50  CD2      171.4620   20.3020    6.0140 C.ar  270  TRP270      0.0152
     51  NE1      169.7440   19.8600    7.3900 N.ar  270  TRP270     -0.2442
     52  CE2      171.0290   19.4890    7.0830 C.ar  270  TRP270      0.0810
     53  CE3      172.7560   20.1220    5.5090 C.ar  270  TRP270      0.0012
     54  CZ2      171.8420   18.5090    7.6560 C.ar  270  TRP270      0.0191
     55  CZ3      173.5650   19.1510    6.0800 C.ar  270  TRP270      0.0001
     56  CH2      173.1050   18.3570    7.1430 C.ar  270  TRP270      0.0015
     57  N        173.0250   24.8810   10.3230 N.3   274  HIS274     -0.1241
     58  CA       173.7220   24.0240   11.2810 C.3   274  HIS274      0.1621
     59  C        175.0630   24.6030   11.7140 C.2   274  HIS274      0.2264
     60  O        175.4940   24.3620   12.8480 O.2   274  HIS274     -0.2867
     61  CB       173.9010   22.6220   10.7000 C.3   274  HIS274      0.0745
     62  CG       172.6420   21.8290   10.7190 C.ar  274  HIS274      0.0817
     63  ND1      172.2530   21.0870   11.8130 N.ar  274  HIS274     -0.2268
     64  CD2      171.6410   21.7200    9.8110 C.ar  274  HIS274      0.1154
     65  CE1      171.0810   20.5260   11.5660 C.ar  274  HIS274      0.1986
     66  NE2      170.6880   20.8960   10.3590 N.ar  274  HIS274     -0.2212
     67  N        167.0340   29.5100   10.8870 N.3   280  TRP280     -0.1241
     68  CA       165.7570   29.0020   10.3990 C.3   280  TRP280      0.1605
     69  C        164.6760   30.0640   10.5240 C.2   280  TRP280      0.2264
     70  O        163.8280   30.2070    9.6340 O.2   280  TRP280     -0.2867
     71  CB       165.3410   27.7570   11.1790 C.3   280  TRP280      0.0550
     72  CG       166.0140   26.4550   10.7960 C.ar  280  TRP280      0.0003
     73  CD1      165.6380   25.5980    9.8010 C.ar  280  TRP280      0.0946
     74  CD2      167.1360   25.8460   11.4460 C.ar  280  TRP280      0.0152
     75  NE1      166.4700   24.4990    9.7780 N.ar  280  TRP280     -0.2442
     76  CE2      167.3980   24.6270   10.7770 C.ar  280  TRP280      0.0810
     77  CE3      167.9540   26.2170   12.5220 C.ar  280  TRP280      0.0012
     78  CZ2      168.4420   23.7700   11.1520 C.ar  280  TRP280      0.0191
     79  CZ3      168.9920   25.3650   12.8970 C.ar  280  TRP280      0.0001
     80  CH2      169.2290   24.1590   12.2080 C.ar  280  TRP280      0.0015
     81  N        164.8940   24.6910    4.3270 N.3   311  GLU311     -0.1245
     82  CA       164.3160   24.6280    5.6650 C.3   311  GLU311      0.1567
     83  C        164.1410   26.0330    6.2260 C.2   311  GLU311      0.2260
     84  O        164.9480   26.9310    5.9690 O.2   311  GLU311     -0.2867
     85  CB       165.1850   23.7980    6.6150 C.3   311  GLU311      0.0388
     86  CG       165.3810   22.3800    6.1380 C.3   311  GLU311      0.1160
     87  CD       166.0310   21.4910    7.1760 C.2   311  GLU311      0.3649
     88  OE1      166.4470   22.0010    8.2370 O.co2 311  GLU311     -0.2457
     89  OE2      166.1370   20.2710    6.9160 O.co2 311  GLU311     -0.2457
     90  N        159.2060   29.1080   13.0370 N.3   317  TRP317     -0.1241
     91  CA       160.5760   28.8570   13.4640 C.3   317  TRP317      0.1605
     92  C        161.1280   29.9350   14.3860 C.2   317  TRP317      0.2264
     93  O        162.1790   29.7160   14.9970 O.2   317  TRP317     -0.2867
     94  CB       161.5130   28.7270   12.2550 C.3   317  TRP317      0.0550
     95  CG       161.2570   27.5120   11.3990 C.ar  317  TRP317      0.0003
     96  CD1      160.3610   27.4110   10.3750 C.ar  317  TRP317      0.0946
     97  CD2      161.9070   26.2370   11.4890 C.ar  317  TRP317      0.0152
     98  NE1      160.4090   26.1550    9.8220 N.ar  317  TRP317     -0.2442
     99  CE2      161.3530   25.4140   10.4830 C.ar  317  TRP317      0.0810
    100  CE3      162.9070   25.7110   12.3170 C.ar  317  TRP317      0.0012
    101  CZ2      161.7610   24.0900   10.2840 C.ar  317  TRP317      0.0191
    102  CZ3      163.3150   24.3850   12.1180 C.ar  317  TRP317      0.0001
    103  CH2      162.7370   23.5930   11.1110 C.ar  317  TRP317      0.0015
    104  N        162.9350   27.0230   17.9890 N.3   321  TRP321     -0.1227
    105  CA       162.0220   26.1950   17.2050 C.3   321  TRP321      0.1737
    106  C        161.8190   24.8120   17.8170 C.2   321  TRP321      0.2595
    107  O        160.7900   24.1850   17.5490 O.2   321  TRP321     -0.2718
    108  CB       162.5120   26.0750   15.7550 C.3   321  TRP321      0.0564
    109  CG       163.8410   25.3900   15.5990 C.ar  321  TRP321      0.0003
    110  CD1      165.0640   25.9930   15.5010 C.ar  321  TRP321      0.0946
    111  CD2      164.0840   23.9780   15.5200 C.ar  321  TRP321      0.0152
    112  NE1      166.0490   25.0450   15.3630 N.ar  321  TRP321     -0.2442
    113  CE2      165.4740   23.8010   15.3720 C.ar  321  TRP321      0.0810
    114  CE3      163.2600   22.8460   15.5510 C.ar  321  TRP321      0.0012
    115  CZ2      166.0600   22.5400   15.2650 C.ar  321  TRP321      0.0191
    116  CZ3      163.8460   21.5940   15.4420 C.ar  321  TRP321      0.0001
    117  CH2      165.2310   21.4500   15.3030 C.ar  321  TRP321      0.0015
    118  N        162.7660   24.3270   18.6360 N.am  322  PHE322     -0.1976
    119  CA       162.5920   23.0420   19.3190 C.3   322  PHE322      0.1639
    120  C        161.3050   23.0150   20.1350 C.2   322  PHE322      0.2290
    121  O        160.7320   21.9410   20.3540 O.2   322  PHE322     -0.2864
    122  CB       163.8110   22.7510   20.2170 C.3   322  PHE322      0.0560
    123  CG       163.7450   21.4260   20.9800 C.ar  322  PHE322     -0.0200
    124  CD1      163.1610   21.3540   22.2440 C.ar  322  PHE322     -0.0042
    125  CD2      164.3090   20.2690   20.4540 C.ar  322  PHE322     -0.0042
    126  CE1      163.1120   20.1520   22.9470 C.ar  322  PHE322     -0.0003
    127  CE2      164.2570   19.0580   21.1570 C.ar  322  PHE322     -0.0003
    128  CZ       163.6610   19.0040   22.3960 C.ar  322  PHE322     -0.0000
    129  N        159.7130   20.7500    3.0790 N.3   356  HIS356     -0.1241
    130  CA       160.2170   20.4730    4.4210 C.3   356  HIS356      0.1621
    131  C        159.1020   20.6880    5.4260 C.2   356  HIS356      0.2264
    132  O        158.5250   21.7790    5.4840 O.2   356  HIS356     -0.2867
    133  CB       161.4110   21.3610    4.7740 C.3   356  HIS356      0.0745
    134  CG       162.0400   21.0050    6.0830 C.ar  356  HIS356      0.0817
    135  ND1      162.2250   21.9210    7.0970 N.ar  356  HIS356     -0.2268
    136  CD2      162.5070   19.8220    6.5510 C.ar  356  HIS356      0.1154
    137  CE1      162.7960   21.3200    8.1290 C.ar  356  HIS356      0.1986
    138  NE2      162.9790   20.0460    7.8230 N.ar  356  HIS356     -0.2212
    139  N        158.9710   20.1530    9.3360 N.3   358  GLU358     -0.1245
    140  CA       159.4220   19.8500   10.6910 C.3   358  GLU358      0.1567
    141  C        158.2580   20.0210   11.6610 C.2   358  GLU358      0.2260
    142  O        157.5860   21.0580   11.6550 O.2   358  GLU358     -0.2867
    143  CB       160.5830   20.7580   11.1050 C.3   358  GLU358      0.0388
    144  CG       161.0050   20.5870   12.5710 C.3   358  GLU358      0.1160
    145  CD       161.4960   19.1730   12.8850 C.2   358  GLU358      0.3649
    146  OE1      162.4730   18.7130   12.2500 O.co2 358  GLU358     -0.2457
    147  OE2      160.9010   18.5060   13.7640 O.co2 358  GLU358     -0.2457
    148  N        161.0280   16.4350    2.8760 N.3   386  LYS386     -0.1245
    149  CA       161.7370   15.9800    4.0630 C.3   386  LYS386      0.1561
    150  C        160.8740   16.2940    5.2770 C.2   386  LYS386      0.2260
    151  O        160.4760   17.4460    5.4680 O.2   386  LYS386     -0.2867
    152  CB       163.0940   16.6780    4.1700 C.3   386  LYS386      0.0271
    153  CG       163.8760   16.3800    5.4310 C.3   386  LYS386      0.0035
    154  CD       165.2060   17.1350    5.4010 C.3   386  LYS386      0.0206
    155  CE       165.9600   16.9850    6.7140 C.3   386  LYS386      0.1093
    156  NZ       167.1850   17.8080    6.6980 N.3   386  LYS386     -0.1314
    157  N        161.4500   16.2920   15.6330 N.3   390  VAL390     -0.1245
    158  CA       162.4550   16.5630   16.6630 C.3   390  VAL390      0.1561
    159  C        161.7710   16.6730   18.0270 C.2   390  VAL390      0.2260
    160  O        161.0110   17.6080   18.2880 O.2   390  VAL390     -0.2867
    161  CB       163.2680   17.8230   16.3460 C.3   390  VAL390      0.0252
    162  CG1      164.2010   18.1510   17.5170 C.3   390  VAL390      0.0019
    163  CG2      164.0830   17.5990   15.0890 C.3   390  VAL390      0.0019
    164  N        162.6140   14.7050   22.2800 N.3   392  ASP392     -0.1239
    165  CA       163.3320   13.6660   23.0060 C.3   392  ASP392      0.1674
    166  C        162.5730   12.3440   22.9450 C.2   392  ASP392      0.2266
    167  O        161.3650   12.3000   22.6830 O.2   392  ASP392     -0.2867
    168  CB       163.5300   14.0640   24.4650 C.3   392  ASP392      0.1410
    169  CG       164.5920   15.1380   24.6460 C.2   392  ASP392      0.3668
    170  OD1      165.1540   15.6340   23.6300 O.co2 392  ASP392     -0.2456
    171  OD2      164.8530   15.4890   25.8200 O.co2 392  ASP392     -0.2456
    172  N        163.1710   12.3080    8.7310 N.3   436  HIS436     -0.1226
    173  CA       164.1300   12.4490    9.8210 C.3   436  HIS436      0.1752
    174  C        163.4340   12.2510   11.1640 C.2   436  HIS436      0.2595
    175  O        162.2330   12.4980   11.2990 O.2   436  HIS436     -0.2718
    176  CB       164.8500   13.8020    9.7530 C.3   436  HIS436      0.0759
    177  CG       165.8970   13.8440    8.6790 C.ar  436  HIS436      0.0818
    178  ND1      167.1490   14.3930    8.8660 N.ar  436  HIS436     -0.2268
    179  CD2      165.8840   13.3570    7.4120 C.ar  436  HIS436      0.1154
    180  CE1      167.8550   14.2560    7.7550 C.ar  436  HIS436      0.1986
    181  NE2      167.1060   13.6410    6.8550 N.ar  436  HIS436     -0.2212
    182  N        164.2060   11.7930   12.1530 N.am  437  GLU437     -0.1979
    183  CA       163.6770   11.2300   13.3910 C.3   437  GLU437      0.1602
    184  C        162.5530   10.2400   13.0690 C.2   437  GLU437      0.2287
    185  O        161.4020   10.4370   13.4710 O.2   437  GLU437     -0.2864
    186  CB       163.2000   12.3090   14.3560 C.3   437  GLU437      0.0415
    187  CG       164.3180   13.2840   14.7350 C.3   437  GLU437      0.1163
    188  CD       164.6310   14.2610   13.6100 C.2   437  GLU437      0.3649
    189  OE1      163.6690   14.8450   13.0720 O.co2 437  GLU437     -0.2457
    190  OE2      165.8230   14.4140   13.2310 O.co2 437  GLU437     -0.2457
    191  N        166.5610    9.2060    8.0680 N.3   455  GLU455     -0.1245
    192  CA       167.7700    9.3890    8.8600 C.3   455  GLU455      0.1567
    193  C        167.8580    8.2540    9.8850 C.2   455  GLU455      0.2260
    194  O        168.2920    7.1490    9.5400 O.2   455  GLU455     -0.2867
    195  CB       167.7730   10.7780    9.5040 C.3   455  GLU455      0.0388
    196  CG       169.1140   11.1950   10.0660 C.3   455  GLU455      0.1160
    197  CD       169.0760   12.6120   10.6200 C.2   455  GLU455      0.3649
    198  OE1      168.2580   12.8820   11.5290 O.co2 455  GLU455     -0.2457
    199  OE2      169.8500   13.4590   10.1270 O.co2 455  GLU455     -0.2457
    200  N        172.9650    8.9130   13.6350 N.3   458  ARG458     -0.1245
    201  CA       173.7430   10.1440   13.5550 C.3   458  ARG458      0.1563
    202  C        174.3120   10.3100   12.1490 C.2   458  ARG458      0.2260
    203  O        175.1030    9.4790   11.6880 O.2   458  ARG458     -0.2867
    204  CB       174.8630   10.1280   14.5880 C.3   458  ARG458      0.0307
    205  CG       174.3740   10.4060   16.0040 C.3   458  ARG458      0.0489
    206  CD       175.5050   10.2710   17.0270 C.3   458  ARG458      0.2205
    207  NE       176.6340   11.1640   16.7510 N.pl3 458  ARG458     -0.0865
    208  CZ       177.1760   11.9970   17.6380 C.cat 458  ARG458      0.5346
    209  NH1      176.6970   12.0790   18.8770 N.pl3 458  ARG458      0.1354
    210  NH2      178.2130   12.7500   17.2850 N.pl3 458  ARG458      0.1354
    211  N        174.9810   16.0600   10.2930 N.3   461  GLU461     -0.1231
    212  CA       174.6390   17.2090   11.1310 C.3   461  GLU461      0.1699
    213  C        175.3640   17.1720   12.4710 C.2   461  GLU461      0.2592
    214  O        175.7160   18.2250   13.0120 O.2   461  GLU461     -0.2718
    215  CB       173.1290   17.2710   11.3560 C.3   461  GLU461      0.0402
    216  CG       172.5570   16.0110   12.0080 C.3   461  GLU461      0.1161
    217  CD       171.0940   16.1600   12.3770 C.2   461  GLU461      0.3649
    218  OE1      170.5820   17.2960   12.2910 O.co2 461  GLU461     -0.2457
    219  OE2      170.4560   15.1520   12.7640 O.co2 461  GLU461     -0.2457
    220  N        175.6030   15.9790   13.0270 N.am  462  PHE462     -0.1976
    221  CA       176.3180   15.9170   14.3010 C.3   462  PHE462      0.1639
    222  C        177.7660   16.3490   14.1730 C.2   462  PHE462      0.2290
    223  O        178.4130   16.5860   15.1970 O.2   462  PHE462     -0.2864
    224  CB       176.2390   14.5130   14.9030 C.3   462  PHE462      0.0560
    225  CG       174.9380   14.2470   15.5860 C.ar  462  PHE462     -0.0200
    226  CD1      173.8130   13.8920   14.8470 C.ar  462  PHE462     -0.0042
    227  CD2      174.8210   14.4010   16.9570 C.ar  462  PHE462     -0.0042
    228  CE1      172.5890   13.6800   15.4800 C.ar  462  PHE462     -0.0003
    229  CE2      173.6070   14.1870   17.5990 C.ar  462  PHE462     -0.0003
    230  CZ       172.4890   13.8290   16.8630 C.ar  462  PHE462     -0.0000
    231  N        177.8860   20.2690   15.2570 N.3   465  TRP465     -0.1227
    232  CA       177.7220   20.7260   16.6340 C.3   465  TRP465      0.1737
    233  C        177.7150   19.5980   17.6660 C.2   465  TRP465      0.2596
    234  O        177.3790   19.8690   18.8270 O.2   465  TRP465     -0.2718
    235  CB       176.4090   21.5370   16.7560 C.3   465  TRP465      0.0564
    236  CG       175.2910   20.9630   15.9060 C.ar  465  TRP465      0.0003
    237  CD1      174.7860   21.4930   14.7470 C.ar  465  TRP465      0.0946
    238  CD2      174.5680   19.7450   16.1350 C.ar  465  TRP465      0.0152
    239  NE1      173.7860   20.6860   14.2540 N.ar  465  TRP465     -0.2442
    240  CE2      173.6370   19.6060   15.0820 C.ar  465  TRP465      0.0810
    241  CE3      174.6120   18.7610   17.1310 C.ar  465  TRP465      0.0012
    242  CZ2      172.7600   18.5200   14.9940 C.ar  465  TRP465      0.0191
    243  CZ3      173.7380   17.6840   17.0450 C.ar  465  TRP465      0.0001
    244  CH2      172.8280   17.5700   15.9850 C.ar  465  TRP465      0.0015
    245  N        178.0890   18.3610   17.3080 N.am  466  GLY466     -0.1942
    246  CA       177.7730   17.2190   18.1630 C.3   466  GLY466      0.2014
    247  C        178.3860   17.2940   19.5510 C.2   466  GLY466      0.2639
    248  O        177.7650   16.8700   20.5370 O.2   466  GLY466     -0.2714
    249  N        179.6090   17.8210   19.6450 N.am  467  THR467     -0.1950
    250  CA       180.3140   17.9900   20.9200 C.3   467  THR467      0.1897
    251  C        180.2990   16.7230   21.7920 C.2   467  THR467      0.2313
    252  O        179.7330   16.7310   22.8890 O.2   467  THR467     -0.2863
    253  CB       179.7040   19.1710   21.7300 C.3   467  THR467      0.1794
    254  OG1      179.3430   20.2260   20.8260 O.3   467  THR467     -0.2208
    255  CG2      180.7100   19.7210   22.7080 C.3   467  THR467      0.0378
@<TRIPOS>BOND
     1   148   149    1
     2   129   130    1
     3   149   152    1
     4   149   150    1
     5   152   153    1
     6    43    44    1
     7    81    82    1
     8   130   133    1
     9   130   131    1
    10    47    44    1
    11    47    48    1
    12   133   134    1
    13   150   151    2
    14    44    45    1
    15   154   153    1
    16   154   155    1
    17   131   132    2
    18    53    50   ar
    19    53    55   ar
    20    82    83    1
    21    82    85    1
    22    48    50   ar
    23    48    49   ar
    24    84    83    2
    25    50    52   ar
    26    55    56   ar
    27   134   136   ar
    28   134   135   ar
    29    86    85    1
    30    86    87    1
    31    45    46    2
    32    49    51   ar
    33   136   138   ar
    34   156   155    1
    35   181   179   ar
    36   181   180   ar
    37    89    87   ar
    38    52    51   ar
    39    52    54   ar
    40   135   137   ar
    41    56    54   ar
    42    87    88   ar
    43   179   177   ar
    44   180   178   ar
    45   138   137   ar
    46   191   192    1
    47   177   178   ar
    48   177   176    1
    49   172   173    1
    50   192   195    1
    51   192   193    1
    52   139   140    1
    53   195   196    1
    54   194   193    2
    55    70    69    2
    56   176   173    1
    57    75    73   ar
    58    75    76   ar
    59    73    72   ar
    60    64    66   ar
    61    64    62   ar
    62   173   174    1
    63    98    96   ar
    64    98    99   ar
    65   196   197    1
    66   199   197   ar
    67   101    99   ar
    68   101   103   ar
    69   211   212    1
    70    57    58    1
    71    66    65   ar
    72    96    95   ar
    73    68    69    1
    74    68    67    1
    75    68    71    1
    76    99    97   ar
    77   197   198   ar
    78   140   143    1
    79   140   141    1
    80    61    62    1
    81    61    58    1
    82    62    63   ar
    83    76    78   ar
    84    76    74   ar
    85    72    71    1
    86    72    74   ar
    87   143   144    1
    88   103   102   ar
    89   212   215    1
    90   212   213    1
    91    78    80   ar
    92   174   175    2
    93   174   182   am
    94    58    59    1
    95   215   216    1
    96    95    97   ar
    97    95    94    1
    98    74    77   ar
    99    97   100   ar
   100    65    63   ar
   101   142   141    2
   102   203   202    2
   103    59    60    2
   104   216   217    1
   105   102   100   ar
   106   202   201    1
   107   182   183    1
   108    80    79   ar
   109   146   145   ar
   110    94    91    1
   111   218   217   ar
   112   217   219   ar
   113   213   214    2
   114   213   220   am
   115    77    79   ar
   116   144   145    1
   117   145   147   ar
   118   220   221    1
   119    90    91    1
   120   184   183    1
   121   184   185    2
   122   189   188   ar
   123   190   188   ar
   124   183   186    1
   125    91    92    1
   126   201   200    1
   127   201   204    1
   128   188   187    1
   129   222   221    1
   130   222   223    2
   131   239   237   ar
   132   239   240   ar
   133    41    40   ar
   134   221   224    1
   135   186   187    1
   136    92    93    2
   137   204   205    1
   138   237   236   ar
   139   226   228   ar
   140   226   225   ar
   141   224   225    1
   142   242   240   ar
   143   242   244   ar
   144   240   238   ar
   145   163   161    1
   146   231   232    1
   147   115   117   ar
   148   115   113   ar
   149   117   116   ar
   150   112   113   ar
   151   112   110   ar
   152   113   111   ar
   153    40    39    1
   154    40    42   ar
   155   116   114   ar
   156   228   230   ar
   157   110   109   ar
   158   111   114   ar
   159   111   109   ar
   160   225   227   ar
   161   109   108    1
   162    39    38    1
   163   157   158    1
   164   108   105    1
   165   236   238   ar
   166   236   235    1
   167   244   243   ar
   168   205   206    1
   169   238   241   ar
   170   161   158    1
   171   161   162    1
   172   232   235    1
   173   232   233    1
   174   158   159    1
   175   207   206    1
   176   207   208    2
   177   230   229   ar
   178    38    35    1
   179   227   229   ar
   180   243   241   ar
   181    35    34    1
   182    35    36    1
   183   105   106    1
   184   105   104    1
   185   210   208    1
   186   245   233   am
   187   245   246    1
   188    33    31    1
   189   107   106    2
   190   208   209    1
   191   233   234    2
   192    30    31    2
   193    30    29    1
   194   106   118   am
   195   159   160    2
   196    31    32    1
   197   246   247    1
   198    36    37    2
   199    29    28    1
   200   118   119    1
   201    27    28    1
   202    27    24    1
   203    25    24    1
   204    25    26    2
   205   119   120    1
   206   119   122    1
   207    18    17    2
   208   247   249   am
   209   247   248    2
   210   249   250    1
   211    24    23    1
   212    22    20   am
   213   120   121    2
   214   122   123    1
   215   125   123   ar
   216   125   127   ar
   217    17    23   am
   218    17    16    1
   219    20    21    2
   220    20    19    1
   221   254   253    1
   222   250   253    1
   223   250   251    1
   224   123   124   ar
   225   127   128   ar
   226    19    16    1
   227    16    15    1
   228   253   255    1
   229   251   252    2
   230   124   126   ar
   231   164   165    1
   232   128   126   ar
   233   167   166    2
   234   166   165    1
   235   165   168    1
   236    15     3   am
   237     4     3    2
   238    13    14   ar
   239    13    11   ar
   240    14    12   ar
   241   170   169   ar
   242     3     2    1
   243    11     8   ar
   244    12    10   ar
   245   168   169    1
   246   169   171   ar
   247     8    10   ar
   248     8     6   ar
   249    10     9   ar
   250     2     1    1
   251     2     5    1
   252     6     5    1
   253     6     7   ar
   254     9     7   ar
