@<TRIPOS>MOLECULE
tmp/5hqbA00.pdb
 147 145 0 0 0
SMALL
GASTEIGER

@<TRIPOS>ATOM
      1  N         50.8470   24.4350    4.0390 N.3   270  TRP270     -0.1241
      2  CA        50.8030   23.4090    5.0750 C.3   270  TRP270      0.1605
      3  C         52.0400   23.4830    5.9690 C.2   270  TRP270      0.2264
      4  O         51.9460   23.8540    7.1460 O.2   270  TRP270     -0.2867
      5  CB        50.6710   22.0090    4.4380 C.3   270  TRP270      0.0550
      6  CG        50.6590   20.9490    5.4970 C.ar  270  TRP270      0.0003
      7  CD1       49.6480   20.6850    6.3710 C.ar  270  TRP270      0.0946
      8  CD2       51.7410   20.0750    5.8550 C.ar  270  TRP270      0.0152
      9  NE1       50.0200   19.6850    7.2380 N.ar  270  TRP270     -0.2442
     10  CE2       51.3010   19.2950    6.9450 C.ar  270  TRP270      0.0810
     11  CE3       53.0310   19.8680    5.3500 C.ar  270  TRP270      0.0012
     12  CZ2       52.1090   18.3240    7.5510 C.ar  270  TRP270      0.0191
     13  CZ3       53.8370   18.8970    5.9500 C.ar  270  TRP270      0.0001
     14  CH2       53.3710   18.1430    7.0440 C.ar  270  TRP270      0.0015
     15  N         53.3850   24.7080   10.1160 N.3   274  HIS274     -0.1241
     16  CA        54.0600   23.8650   11.0980 C.3   274  HIS274      0.1621
     17  C         55.4170   24.4230   11.5000 C.2   274  HIS274      0.2264
     18  O         55.8630   24.1810   12.6270 O.2   274  HIS274     -0.2867
     19  CB        54.1820   22.4390   10.5650 C.3   274  HIS274      0.0745
     20  CG        52.8860   21.7010   10.5980 C.ar  274  HIS274      0.0817
     21  ND1       52.4160   21.0780   11.7360 N.ar  274  HIS274     -0.2268
     22  CD2       51.9200   21.5550    9.6590 C.ar  274  HIS274      0.1154
     23  CE1       51.2320   20.5480   11.4840 C.ar  274  HIS274      0.1986
     24  NE2       50.9130   20.8150   10.2280 N.ar  274  HIS274     -0.2212
     25  N         47.4300   29.3000   10.5760 N.3   280  TRP280     -0.1241
     26  CA        46.1350   28.8310   10.0950 C.3   280  TRP280      0.1605
     27  C         45.0820   29.9160   10.2390 C.2   280  TRP280      0.2264
     28  O         44.2090   30.0630    9.3760 O.2   280  TRP280     -0.2867
     29  CB        45.6800   27.5960   10.8650 C.3   280  TRP280      0.0550
     30  CG        46.3540   26.2990   10.5210 C.ar  280  TRP280      0.0003
     31  CD1       45.9820   25.4100    9.5490 C.ar  280  TRP280      0.0946
     32  CD2       47.4790   25.7200   11.1880 C.ar  280  TRP280      0.0152
     33  NE1       46.8160   24.3140    9.5650 N.ar  280  TRP280     -0.2442
     34  CE2       47.7460   24.4800   10.5590 C.ar  280  TRP280      0.0810
     35  CE3       48.2920   26.1290   12.2510 C.ar  280  TRP280      0.0012
     36  CZ2       48.7950   23.6450   10.9590 C.ar  280  TRP280      0.0191
     37  CZ3       49.3370   25.2960   12.6530 C.ar  280  TRP280      0.0001
     38  CH2       49.5820   24.0690   12.0030 C.ar  280  TRP280      0.0015
     39  N         45.2830   24.4470    4.0660 N.3   311  GLU311     -0.1245
     40  CA        44.7010   24.4210    5.4010 C.3   311  GLU311      0.1567
     41  C         44.5390   25.8410    5.9270 C.2   311  GLU311      0.2260
     42  O         45.3460   26.7270    5.6350 O.2   311  GLU311     -0.2867
     43  CB        45.5670   23.6050    6.3630 C.3   311  GLU311      0.0388
     44  CG        45.8120   22.1900    5.8690 C.3   311  GLU311      0.1160
     45  CD        46.3960   21.3020    6.9390 C.2   311  GLU311      0.3649
     46  OE1       46.7830   21.8290    8.0050 O.co2 311  GLU311     -0.2457
     47  OE2       46.4710   20.0760    6.7120 O.co2 311  GLU311     -0.2457
     48  N         39.5830   28.9640   12.7160 N.3   317  TRP317     -0.1241
     49  CA        40.9590   28.6850   13.1200 C.3   317  TRP317      0.1605
     50  C         41.5650   29.7520   14.0260 C.2   317  TRP317      0.2264
     51  O         42.6190   29.4980   14.6250 O.2   317  TRP317     -0.2867
     52  CB        41.8700   28.5190   11.8910 C.3   317  TRP317      0.0550
     53  CG        41.6100   27.2900   11.0560 C.ar  317  TRP317      0.0003
     54  CD1       40.7170   27.1740   10.0230 C.ar  317  TRP317      0.0946
     55  CD2       42.2660   26.0170   11.1620 C.ar  317  TRP317      0.0152
     56  NE1       40.7700   25.9070    9.4940 N.ar  317  TRP317     -0.2442
     57  CE2       41.7150   25.1800   10.1710 C.ar  317  TRP317      0.0810
     58  CE3       43.2620   25.5010   12.0040 C.ar  317  TRP317      0.0012
     59  CZ2       42.1260   23.8540    9.9930 C.ar  317  TRP317      0.0191
     60  CZ3       43.6710   24.1850   11.8280 C.ar  317  TRP317      0.0001
     61  CH2       43.0980   23.3730   10.8330 C.ar  317  TRP317      0.0015
     62  N         43.5540   26.7160   17.5820 N.3   321  TRP321     -0.1241
     63  CA        42.5800   25.9170   16.8460 C.3   321  TRP321      0.1605
     64  C         42.3520   24.5410   17.4680 C.2   321  TRP321      0.2264
     65  O         41.3180   23.9210   17.1970 O.2   321  TRP321     -0.2867
     66  CB        43.0200   25.7750   15.3880 C.3   321  TRP321      0.0550
     67  CG        44.3610   25.1050   15.1920 C.ar  321  TRP321      0.0003
     68  CD1       45.5750   25.7260   15.0230 C.ar  321  TRP321      0.0946
     69  CD2       44.6160   23.6940   15.1100 C.ar  321  TRP321      0.0152
     70  NE1       46.5660   24.7790   14.8500 N.ar  321  TRP321     -0.2442
     71  CE2       46.0040   23.5290   14.9030 C.ar  321  TRP321      0.0810
     72  CE3       43.8060   22.5540   15.1970 C.ar  321  TRP321      0.0012
     73  CZ2       46.6010   22.2680   14.7850 C.ar  321  TRP321      0.0191
     74  CZ3       44.4040   21.2950   15.0800 C.ar  321  TRP321      0.0001
     75  CH2       45.7880   21.1690   14.8760 C.ar  321  TRP321      0.0015
     76  N         40.0900   20.5500    2.8350 N.3   356  HIS356     -0.1241
     77  CA        40.5530   20.2650    4.1870 C.3   356  HIS356      0.1621
     78  C         39.4230   20.4940    5.1770 C.2   356  HIS356      0.2264
     79  O         38.8510   21.5890    5.2200 O.2   356  HIS356     -0.2867
     80  CB        41.7540   21.1480    4.5620 C.3   356  HIS356      0.0745
     81  CG        42.3740   20.7810    5.8760 C.ar  356  HIS356      0.0817
     82  ND1       42.6300   21.7040    6.8690 N.ar  356  HIS356     -0.2268
     83  CD2       42.7780   19.5850    6.3610 C.ar  356  HIS356      0.1154
     84  CE1       43.1740   21.0910    7.9070 C.ar  356  HIS356      0.1986
     85  NE2       43.2810   19.8060    7.6220 N.ar  356  HIS356     -0.2212
     86  N         39.2880   19.9800    9.0830 N.3   358  GLU358     -0.1245
     87  CA        39.7490   19.6750   10.4350 C.3   358  GLU358      0.1567
     88  C         38.5760   19.8360   11.3970 C.2   358  GLU358      0.2260
     89  O         37.9050   20.8680   11.3850 O.2   358  GLU358     -0.2867
     90  CB        40.8990   20.6020   10.8420 C.3   358  GLU358      0.0388
     91  CG        41.3260   20.4550   12.3040 C.3   358  GLU358      0.1160
     92  CD        41.8400   19.0530   12.6140 C.2   358  GLU358      0.3649
     93  OE1       42.8590   18.6440   12.0170 O.co2 358  GLU358     -0.2457
     94  OE2       41.2180   18.3480   13.4380 O.co2 358  GLU358     -0.2457
     95  N         41.3560   16.2050    2.6200 N.3   386  LYS386     -0.1245
     96  CA        42.0500   15.7610    3.8190 C.3   386  LYS386      0.1561
     97  C         41.1770   16.0750    5.0230 C.2   386  LYS386      0.2260
     98  O         40.7500   17.2210    5.1900 O.2   386  LYS386     -0.2867
     99  CB        43.3950   16.4770    3.9410 C.3   386  LYS386      0.0271
    100  CG        44.1990   16.1540    5.2010 C.3   386  LYS386      0.0035
    101  CD        45.4920   16.9810    5.1880 C.3   386  LYS386      0.0206
    102  CE        46.3220   16.7290    6.4540 C.3   386  LYS386      0.1093
    103  NZ        47.4980   17.6330    6.5150 N.3   386  LYS386     -0.1314
    104  N         41.7030   16.1200   15.3590 N.3   390  VAL390     -0.1245
    105  CA        42.7330   16.4130   16.3550 C.3   390  VAL390      0.1561
    106  C         42.0870   16.5460   17.7350 C.2   390  VAL390      0.2260
    107  O         41.3490   17.4960   18.0080 O.2   390  VAL390     -0.2867
    108  CB        43.5270   17.6730   15.9930 C.3   390  VAL390      0.0252
    109  CG1       44.4960   18.0260   17.1220 C.3   390  VAL390      0.0019
    110  CG2       44.2760   17.4410   14.6940 C.3   390  VAL390      0.0019
    111  N         43.5150   12.1630    8.4880 N.3   436  HIS436     -0.1226
    112  CA        44.4590   12.2980    9.5910 C.3   436  HIS436      0.1752
    113  C         43.7300   12.0840   10.9190 C.2   436  HIS436      0.2595
    114  O         42.5180   12.2840   11.0160 O.2   436  HIS436     -0.2718
    115  CB        45.1680   13.6560    9.5350 C.3   436  HIS436      0.0759
    116  CG        46.2470   13.6980    8.4900 C.ar  436  HIS436      0.0818
    117  ND1       47.4730   14.2900    8.6960 N.ar  436  HIS436     -0.2268
    118  CD2       46.2920   13.1630    7.2450 C.ar  436  HIS436      0.1154
    119  CE1       48.2230   14.1330    7.6160 C.ar  436  HIS436      0.1986
    120  NE2       47.5300   13.4510    6.7220 N.ar  436  HIS436     -0.2212
    121  N         44.4870   11.6660   11.9400 N.am  437  GLU437     -0.1979
    122  CA        43.9610   11.1020   13.1830 C.3   437  GLU437      0.1602
    123  C         42.8450   10.0970   12.8670 C.2   437  GLU437      0.2287
    124  O         41.6900   10.2910   13.2620 O.2   437  GLU437     -0.2864
    125  CB        43.4690   12.1910   14.1330 C.3   437  GLU437      0.0415
    126  CG        44.5580   13.1990   14.4990 C.3   437  GLU437      0.1163
    127  CD        44.8560   14.1850   13.3670 C.2   437  GLU437      0.3649
    128  OE1       43.8990   14.6560   12.7180 O.co2 437  GLU437     -0.2457
    129  OE2       46.0470   14.4740   13.1170 O.co2 437  GLU437     -0.2457
    130  N         46.8660    9.0450    7.9120 N.3   455  GLU455     -0.1245
    131  CA        48.0770    9.2250    8.7020 C.3   455  GLU455      0.1567
    132  C         48.1660    8.1130    9.7430 C.2   455  GLU455      0.2260
    133  O         48.5960    7.0050    9.4170 O.2   455  GLU455     -0.2867
    134  CB        48.1060   10.6120    9.3480 C.3   455  GLU455      0.0388
    135  CG        49.4770   10.9860    9.8940 C.3   455  GLU455      0.1160
    136  CD        49.4960   12.3880   10.4720 C.2   455  GLU455      0.3649
    137  OE1       48.6300   12.6930   11.3160 O.co2 455  GLU455     -0.2457
    138  OE2       50.3660   13.1830   10.0680 O.co2 455  GLU455     -0.2457
    139  N         55.3160   15.8800   10.1240 N.3   461  GLN461     -0.1245
    140  CA        54.9750   17.0290   10.9640 C.3   461  GLN461      0.1566
    141  C         55.7040   16.9900   12.3000 C.2   461  GLN461      0.2260
    142  O         56.0310   18.0460   12.8540 O.2   461  GLN461     -0.2867
    143  CB        53.4590   17.1050   11.1980 C.3   461  GLN461      0.0367
    144  CG        52.8890   15.9030   11.9580 C.3   461  GLN461      0.0905
    145  CD        51.4390   16.0700   12.3800 C.2   461  GLN461      0.2608
    146  OE1       50.7700   15.0870   12.7240 O.2   461  GLN461     -0.2717
    147  NE2       50.9530   17.3060   12.3820 N.am  461  GLN461     -0.0878
@<TRIPOS>BOND
     1    95    96    1
     2    76    77    1
     3    96    99    1
     4    96    97    1
     5    99   100    1
     6     1     2    1
     7    39    40    1
     8    77    80    1
     9    77    78    1
    10     5     2    1
    11     5     6    1
    12    80    81    1
    13    97    98    2
    14     2     3    1
    15    78    79    2
    16   101   100    1
    17   101   102    1
    18    11     8   ar
    19    11    13   ar
    20    40    41    1
    21    40    43    1
    22     6     8   ar
    23     6     7   ar
    24    42    41    2
    25     8    10   ar
    26    44    43    1
    27    44    45    1
    28    81    83   ar
    29    81    82   ar
    30    13    14   ar
    31     3     4    2
    32    83    85   ar
    33     7     9   ar
    34   102   103    1
    35    47    45   ar
    36   120   118   ar
    37   120   119   ar
    38    82    84   ar
    39    45    46   ar
    40    10     9   ar
    41    10    12   ar
    42    14    12   ar
    43   118   116   ar
    44   119   117   ar
    45    85    84   ar
    46   130   131    1
    47   111   112    1
    48   116   117   ar
    49   116   115    1
    50   131   134    1
    51   131   132    1
    52    86    87    1
    53   134   135    1
    54    28    27    2
    55   133   132    2
    56    56    54   ar
    57    56    57   ar
    58   115   112    1
    59    31    33   ar
    60    31    30   ar
    61    33    34   ar
    62   112   113    1
    63    22    24   ar
    64    22    20   ar
    65   135   136    1
    66    59    57   ar
    67    59    61   ar
    68    54    53   ar
    69   138   136   ar
    70    26    27    1
    71    26    25    1
    72    26    29    1
    73    15    16    1
    74   139   140    1
    75    57    55   ar
    76    24    23   ar
    77    87    90    1
    78    87    88    1
    79   136   137   ar
    80    30    29    1
    81    30    32   ar
    82    34    36   ar
    83    34    32   ar
    84    19    20    1
    85    19    16    1
    86    20    21   ar
    87    61    60   ar
    88    90    91    1
    89   113   114    2
    90   113   121   am
    91    36    38   ar
    92   140   143    1
    93   140   141    1
    94    53    55   ar
    95    53    52    1
    96    16    17    1
    97    55    58   ar
    98    32    35   ar
    99   143   144    1
   100    89    88    2
   101    23    21   ar
   102    17    18    2
   103    60    58   ar
   104    52    49    1
   105   121   122    1
   106   144   145    1
   107    38    37   ar
   108    93    92   ar
   109    35    37   ar
   110   141   142    2
   111    91    92    1
   112   145   147   am
   113   145   146    2
   114    92    94   ar
   115    48    49    1
   116   128   127   ar
   117   123   122    1
   118   123   124    2
   119   129   127   ar
   120    49    50    1
   121   122   125    1
   122   127   126    1
   123    50    51    2
   124   125   126    1
   125   110   108    1
   126    73    75   ar
   127    73    71   ar
   128    70    71   ar
   129    70    68   ar
   130    75    74   ar
   131    71    69   ar
   132    68    67   ar
   133    74    72   ar
   134    69    67   ar
   135    69    72   ar
   136    67    66    1
   137   104   105    1
   138    66    63    1
   139   108   105    1
   140   108   109    1
   141   105   106    1
   142    63    64    1
   143    63    62    1
   144    65    64    2
   145   106   107    2
