@<TRIPOS>MOLECULE
tmp/5hqbA02.pdb
 112 116 0 0 0
SMALL
GASTEIGER

@<TRIPOS>ATOM
      1  N         47.5020    9.2460   25.2230 N.3   150  TRP150     -0.1227
      2  CA        46.9420   10.5610   24.9320 C.3   150  TRP150      0.1737
      3  C         47.1850   10.9840   23.4880 C.2   150  TRP150      0.2595
      4  O         46.4190   11.7970   22.9500 O.2   150  TRP150     -0.2718
      5  CB        47.5270   11.6040   25.8930 C.3   150  TRP150      0.0564
      6  CG        48.9690   11.9270   25.6120 C.ar  150  TRP150      0.0003
      7  CD1       50.0680   11.2760   26.1000 C.ar  150  TRP150      0.0946
      8  CD2       49.4620   12.9730   24.7640 C.ar  150  TRP150      0.0152
      9  NE1       51.2170   11.8550   25.6040 N.ar  150  TRP150     -0.2442
     10  CE2       50.8680   12.8970   24.7800 C.ar  150  TRP150      0.0810
     11  CE3       48.8470   13.9640   23.9880 C.ar  150  TRP150      0.0012
     12  CZ2       51.6760   13.7820   24.0630 C.ar  150  TRP150      0.0191
     13  CZ3       49.6500   14.8470   23.2680 C.ar  150  TRP150      0.0001
     14  CH2       51.0500   14.7500   23.3130 C.ar  150  TRP150      0.0015
     15  N         48.2010   10.4320   22.8290 N.am  151  ASN151     -0.1974
     16  CA        48.4930   10.8400   21.4610 C.3   151  ASN151      0.1688
     17  C         48.1590    9.7740   20.4250 C.2   151  ASN151      0.2292
     18  O         48.7200    9.7930   19.3240 O.2   151  ASN151     -0.2864
     19  CB        49.9550   11.2790   21.3180 C.3   151  ASN151      0.1181
     20  CG        50.0890   12.4350   20.3440 C.2   151  ASN151      0.2629
     21  OD1       49.1560   13.2280   20.1980 O.2   151  ASN151     -0.2716
     22  ND2       51.2110   12.5110   19.6400 N.am  151  ASN151     -0.0877
     23  N         53.3850   24.7080   10.1160 N.3   274  HIS274     -0.1241
     24  CA        54.0600   23.8650   11.0980 C.3   274  HIS274      0.1621
     25  C         55.4170   24.4230   11.5000 C.2   274  HIS274      0.2264
     26  O         55.8630   24.1810   12.6270 O.2   274  HIS274     -0.2867
     27  CB        54.1820   22.4390   10.5650 C.3   274  HIS274      0.0745
     28  CG        52.8860   21.7010   10.5980 C.ar  274  HIS274      0.0817
     29  ND1       52.4160   21.0780   11.7360 N.ar  274  HIS274     -0.2268
     30  CD2       51.9200   21.5550    9.6590 C.ar  274  HIS274      0.1154
     31  CE1       51.2320   20.5480   11.4840 C.ar  274  HIS274      0.1986
     32  NE2       50.9130   20.8150   10.2280 N.ar  274  HIS274     -0.2212
     33  N         47.4300   29.3000   10.5760 N.3   280  TRP280     -0.1241
     34  CA        46.1350   28.8310   10.0950 C.3   280  TRP280      0.1605
     35  C         45.0820   29.9160   10.2390 C.2   280  TRP280      0.2264
     36  O         44.2090   30.0630    9.3760 O.2   280  TRP280     -0.2867
     37  CB        45.6800   27.5960   10.8650 C.3   280  TRP280      0.0550
     38  CG        46.3540   26.2990   10.5210 C.ar  280  TRP280      0.0003
     39  CD1       45.9820   25.4100    9.5490 C.ar  280  TRP280      0.0946
     40  CD2       47.4790   25.7200   11.1880 C.ar  280  TRP280      0.0152
     41  NE1       46.8160   24.3140    9.5650 N.ar  280  TRP280     -0.2442
     42  CE2       47.7460   24.4800   10.5590 C.ar  280  TRP280      0.0810
     43  CE3       48.2920   26.1290   12.2510 C.ar  280  TRP280      0.0012
     44  CZ2       48.7950   23.6450   10.9590 C.ar  280  TRP280      0.0191
     45  CZ3       49.3370   25.2960   12.6530 C.ar  280  TRP280      0.0001
     46  CH2       49.5820   24.0690   12.0030 C.ar  280  TRP280      0.0015
     47  N         43.5540   26.7160   17.5820 N.3   321  TRP321     -0.1227
     48  CA        42.5800   25.9170   16.8460 C.3   321  TRP321      0.1737
     49  C         42.3520   24.5410   17.4680 C.2   321  TRP321      0.2595
     50  O         41.3180   23.9210   17.1970 O.2   321  TRP321     -0.2718
     51  CB        43.0200   25.7750   15.3880 C.3   321  TRP321      0.0564
     52  CG        44.3610   25.1050   15.1920 C.ar  321  TRP321      0.0003
     53  CD1       45.5750   25.7260   15.0230 C.ar  321  TRP321      0.0946
     54  CD2       44.6160   23.6940   15.1100 C.ar  321  TRP321      0.0152
     55  NE1       46.5660   24.7790   14.8500 N.ar  321  TRP321     -0.2442
     56  CE2       46.0040   23.5290   14.9030 C.ar  321  TRP321      0.0810
     57  CE3       43.8060   22.5540   15.1970 C.ar  321  TRP321      0.0012
     58  CZ2       46.6010   22.2680   14.7850 C.ar  321  TRP321      0.0191
     59  CZ3       44.4040   21.2950   15.0800 C.ar  321  TRP321      0.0001
     60  CH2       45.7880   21.1690   14.8760 C.ar  321  TRP321      0.0015
     61  N         43.2870   24.0550   18.2930 N.am  322  PHE322     -0.1976
     62  CA        43.0890   22.7860   18.9970 C.3   322  PHE322      0.1639
     63  C         41.7880   22.7800   19.8000 C.2   322  PHE322      0.2290
     64  O         41.1670   21.7220   19.9780 O.2   322  PHE322     -0.2864
     65  CB        44.2900   22.5280   19.9200 C.3   322  PHE322      0.0560
     66  CG        44.2340   21.2100   20.6660 C.ar  322  PHE322     -0.0200
     67  CD1       43.6380   21.1280   21.9200 C.ar  322  PHE322     -0.0042
     68  CD2       44.8060   20.0680   20.1240 C.ar  322  PHE322     -0.0042
     69  CE1       43.5980   19.9150   22.6140 C.ar  322  PHE322     -0.0003
     70  CE2       44.7660   18.8550   20.8080 C.ar  322  PHE322     -0.0003
     71  CZ        44.1610   18.7820   22.0540 C.ar  322  PHE322     -0.0000
     72  N         41.7030   16.1200   15.3590 N.3   390  VAL390     -0.1245
     73  CA        42.7330   16.4130   16.3550 C.3   390  VAL390      0.1561
     74  C         42.0870   16.5460   17.7350 C.2   390  VAL390      0.2260
     75  O         41.3490   17.4960   18.0080 O.2   390  VAL390     -0.2867
     76  CB        43.5270   17.6730   15.9930 C.3   390  VAL390      0.0252
     77  CG1       44.4960   18.0260   17.1220 C.3   390  VAL390      0.0019
     78  CG2       44.2760   17.4410   14.6940 C.3   390  VAL390      0.0019
     79  N         55.3160   15.8800   10.1240 N.3   461  GLN461     -0.1231
     80  CA        54.9750   17.0290   10.9640 C.3   461  GLN461      0.1698
     81  C         55.7040   16.9900   12.3000 C.2   461  GLN461      0.2592
     82  O         56.0310   18.0460   12.8540 O.2   461  GLN461     -0.2718
     83  CB        53.4590   17.1050   11.1980 C.3   461  GLN461      0.0381
     84  CG        52.8890   15.9030   11.9580 C.3   461  GLN461      0.0905
     85  CD        51.4390   16.0700   12.3800 C.2   461  GLN461      0.2608
     86  OE1       50.7700   15.0870   12.7240 O.2   461  GLN461     -0.2717
     87  NE2       50.9530   17.3060   12.3820 N.am  461  GLN461     -0.0878
     88  N         55.9740   15.7940   12.8370 N.am  462  PHE462     -0.1976
     89  CA        56.6960   15.7400   14.1060 C.3   462  PHE462      0.1639
     90  C         58.1400   16.1960   13.9820 C.2   462  PHE462      0.2290
     91  O         58.7880   16.4420   15.0060 O.2   462  PHE462     -0.2864
     92  CB        56.6260   14.3260   14.6960 C.3   462  PHE462      0.0560
     93  CG        55.3210   14.0520   15.3640 C.ar  462  PHE462     -0.0200
     94  CD1       54.2050   13.7100   14.6140 C.ar  462  PHE462     -0.0042
     95  CD2       55.1920   14.2190   16.7330 C.ar  462  PHE462     -0.0042
     96  CE1       52.9740   13.5050   15.2300 C.ar  462  PHE462     -0.0003
     97  CE2       53.9740   14.0050   17.3570 C.ar  462  PHE462     -0.0003
     98  CZ        52.8620   13.6550   16.6050 C.ar  462  PHE462     -0.0000
     99  N         58.2550   20.1250   15.1180 N.3   465  TRP465     -0.1241
    100  CA        58.0760   20.5750   16.4960 C.3   465  TRP465      0.1605
    101  C         58.0480   19.4400   17.5190 C.2   465  TRP465      0.2264
    102  O         57.6850   19.6990   18.6750 O.2   465  TRP465     -0.2867
    103  CB        56.7650   21.4040   16.6110 C.3   465  TRP465      0.0550
    104  CG        55.6320   20.8370   15.7670 C.ar  465  TRP465      0.0003
    105  CD1       55.1340   21.3650   14.6060 C.ar  465  TRP465      0.0946
    106  CD2       54.8920   19.6310   16.0040 C.ar  465  TRP465      0.0152
    107  NE1       54.1300   20.5720   14.1120 N.ar  465  TRP465     -0.2442
    108  CE2       53.9590   19.4990   14.9480 C.ar  465  TRP465      0.0810
    109  CE3       54.9210   18.6540   17.0050 C.ar  465  TRP465      0.0012
    110  CZ2       53.0690   18.4260   14.8640 C.ar  465  TRP465      0.0191
    111  CZ3       54.0330   17.5850   16.9180 C.ar  465  TRP465      0.0001
    112  CH2       53.1250   17.4790   15.8540 C.ar  465  TRP465      0.0015
@<TRIPOS>BOND
     1    36    35    2
     2    39    41   ar
     3    39    38   ar
     4    41    42   ar
     5    30    32   ar
     6    30    28   ar
     7    34    35    1
     8    34    33    1
     9    34    37    1
    10    23    24    1
    11    79    80    1
    12    32    31   ar
    13    38    37    1
    14    38    40   ar
    15    42    44   ar
    16    42    40   ar
    17    27    28    1
    18    27    24    1
    19    28    29   ar
    20    44    46   ar
    21    80    83    1
    22    80    81    1
    23    24    25    1
    24    40    43   ar
    25    83    84    1
    26    31    29   ar
    27    25    26    2
    28    84    85    1
    29    46    45   ar
    30    43    45   ar
    31    81    88   am
    32    81    82    2
    33    85    87   am
    34    85    86    2
    35    88    89    1
    36    90    89    1
    37    90    91    2
    38    89    92    1
    39   107   105   ar
    40   107   108   ar
    41   105   104   ar
    42    94    96   ar
    43    94    93   ar
    44    78    76    1
    45    92    93    1
    46    58    60   ar
    47    58    56   ar
    48    55    56   ar
    49    55    53   ar
    50   110   108   ar
    51   110   112   ar
    52    60    59   ar
    53    56    54   ar
    54   108   106   ar
    55    53    52   ar
    56    59    57   ar
    57    54    52   ar
    58    54    57   ar
    59    99   100    1
    60    52    51    1
    61    96    98   ar
    62    72    73    1
    63    93    95   ar
    64    51    48    1
    65   104   106   ar
    66   104   103    1
    67   112   111   ar
    68    76    73    1
    69    76    77    1
    70   106   109   ar
    71    73    74    1
    72   100   103    1
    73   100   101    1
    74    98    97   ar
    75    95    97   ar
    76    48    49    1
    77    48    47    1
    78   111   109   ar
    79    50    49    2
    80    49    61   am
    81   101   102    2
    82    74    75    2
    83    61    62    1
    84    62    63    1
    85    62    65    1
    86    18    17    2
    87    22    20   am
    88    63    64    2
    89    65    66    1
    90    68    66   ar
    91    68    70   ar
    92    21    20    2
    93    20    19    1
    94    17    16    1
    95    66    67   ar
    96    70    71   ar
    97    19    16    1
    98    16    15    1
    99    67    69   ar
   100    71    69   ar
   101    15     3   am
   102     4     3    2
   103    13    14   ar
   104    13    11   ar
   105    14    12   ar
   106     3     2    1
   107    11     8   ar
   108    12    10   ar
   109     8    10   ar
   110     8     6   ar
   111    10     9   ar
   112     2     1    1
   113     2     5    1
   114     9     7   ar
   115     6     5    1
   116     6     7   ar
