@<TRIPOS>MOLECULE
tmp/5hqbA01.pdb
 159 160 0 0 0
SMALL
GASTEIGER

@<TRIPOS>ATOM
      1  N         47.5020    9.2460   25.2230 N.3   150  TRP150     -0.1227
      2  CA        46.9420   10.5610   24.9320 C.3   150  TRP150      0.1737
      3  C         47.1850   10.9840   23.4880 C.2   150  TRP150      0.2595
      4  O         46.4190   11.7970   22.9500 O.2   150  TRP150     -0.2718
      5  CB        47.5270   11.6040   25.8930 C.3   150  TRP150      0.0564
      6  CG        48.9690   11.9270   25.6120 C.ar  150  TRP150      0.0003
      7  CD1       50.0680   11.2760   26.1000 C.ar  150  TRP150      0.0946
      8  CD2       49.4620   12.9730   24.7640 C.ar  150  TRP150      0.0152
      9  NE1       51.2170   11.8550   25.6040 N.ar  150  TRP150     -0.2442
     10  CE2       50.8680   12.8970   24.7800 C.ar  150  TRP150      0.0810
     11  CE3       48.8470   13.9640   23.9880 C.ar  150  TRP150      0.0012
     12  CZ2       51.6760   13.7820   24.0630 C.ar  150  TRP150      0.0191
     13  CZ3       49.6500   14.8470   23.2680 C.ar  150  TRP150      0.0001
     14  CH2       51.0500   14.7500   23.3130 C.ar  150  TRP150      0.0015
     15  N         48.2010   10.4320   22.8290 N.am  151  ASN151     -0.1960
     16  CA        48.4930   10.8400   21.4610 C.3   151  ASN151      0.1819
     17  C         48.1590    9.7740   20.4250 C.2   151  ASN151      0.2621
     18  O         48.7200    9.7930   19.3240 O.2   151  ASN151     -0.2715
     19  CB        49.9550   11.2790   21.3180 C.3   151  ASN151      0.1195
     20  CG        50.0890   12.4350   20.3440 C.2   151  ASN151      0.2630
     21  OD1       49.1560   13.2280   20.1980 O.2   151  ASN151     -0.2716
     22  ND2       51.2110   12.5110   19.6400 N.am  151  ASN151     -0.0877
     23  N         47.2380    8.8620   20.7370 N.am  152  ARG152     -0.1977
     24  CA        46.6100    7.9890   19.7330 C.3   152  ARG152      0.1597
     25  C         47.6410    7.0730   19.0900 C.2   152  ARG152      0.2287
     26  O         48.3560    6.3720   19.8000 O.2   152  ARG152     -0.2864
     27  CB        45.8750    8.8490   18.6930 C.3   152  ARG152      0.0334
     28  CG        44.8280    9.8140   19.3330 C.3   152  ARG152      0.0492
     29  CD        44.1950   10.7440   18.2760 C.3   152  ARG152      0.2205
     30  NE        45.2600   11.2060   17.4080 N.pl3 152  ARG152     -0.0865
     31  CZ        46.0590   12.2300   17.6680 C.cat 152  ARG152      0.5346
     32  NH1       45.8710   12.9980   18.7450 N.pl3 152  ARG152      0.1354
     33  NH2       47.0430   12.4950   16.8300 N.pl3 152  ARG152      0.1354
     34  N         50.1920    8.2120   17.3330 N.3   154  GLU154     -0.1245
     35  CA        51.3540    9.0320   16.9840 C.3   154  GLU154      0.1567
     36  C         52.4080    8.9280   18.0870 C.2   154  GLU154      0.2260
     37  O         52.6060    9.8320   18.9010 O.2   154  GLU154     -0.2867
     38  CB        50.9250   10.4760   16.7250 C.3   154  GLU154      0.0388
     39  CG        50.1520   10.6490   15.4120 C.3   154  GLU154      0.1160
     40  CD        49.6540   12.0750   15.2180 C.2   154  GLU154      0.3649
     41  OE1       49.8270   12.9020   16.1420 O.co2 154  GLU154     -0.2457
     42  OE2       49.0980   12.3670   14.1430 O.co2 154  GLU154     -0.2457
     43  N         53.3850   24.7080   10.1160 N.3   274  HIS274     -0.1241
     44  CA        54.0600   23.8650   11.0980 C.3   274  HIS274      0.1621
     45  C         55.4170   24.4230   11.5000 C.2   274  HIS274      0.2264
     46  O         55.8630   24.1810   12.6270 O.2   274  HIS274     -0.2867
     47  CB        54.1820   22.4390   10.5650 C.3   274  HIS274      0.0745
     48  CG        52.8860   21.7010   10.5980 C.ar  274  HIS274      0.0817
     49  ND1       52.4160   21.0780   11.7360 N.ar  274  HIS274     -0.2268
     50  CD2       51.9200   21.5550    9.6590 C.ar  274  HIS274      0.1154
     51  CE1       51.2320   20.5480   11.4840 C.ar  274  HIS274      0.1986
     52  NE2       50.9130   20.8150   10.2280 N.ar  274  HIS274     -0.2212
     53  N         43.5540   26.7160   17.5820 N.3   321  TRP321     -0.1227
     54  CA        42.5800   25.9170   16.8460 C.3   321  TRP321      0.1737
     55  C         42.3520   24.5410   17.4680 C.2   321  TRP321      0.2595
     56  O         41.3180   23.9210   17.1970 O.2   321  TRP321     -0.2718
     57  CB        43.0200   25.7750   15.3880 C.3   321  TRP321      0.0564
     58  CG        44.3610   25.1050   15.1920 C.ar  321  TRP321      0.0003
     59  CD1       45.5750   25.7260   15.0230 C.ar  321  TRP321      0.0946
     60  CD2       44.6160   23.6940   15.1100 C.ar  321  TRP321      0.0152
     61  NE1       46.5660   24.7790   14.8500 N.ar  321  TRP321     -0.2442
     62  CE2       46.0040   23.5290   14.9030 C.ar  321  TRP321      0.0810
     63  CE3       43.8060   22.5540   15.1970 C.ar  321  TRP321      0.0012
     64  CZ2       46.6010   22.2680   14.7850 C.ar  321  TRP321      0.0191
     65  CZ3       44.4040   21.2950   15.0800 C.ar  321  TRP321      0.0001
     66  CH2       45.7880   21.1690   14.8760 C.ar  321  TRP321      0.0015
     67  N         43.2870   24.0550   18.2930 N.am  322  PHE322     -0.1976
     68  CA        43.0890   22.7860   18.9970 C.3   322  PHE322      0.1639
     69  C         41.7880   22.7800   19.8000 C.2   322  PHE322      0.2290
     70  O         41.1670   21.7220   19.9780 O.2   322  PHE322     -0.2864
     71  CB        44.2900   22.5280   19.9200 C.3   322  PHE322      0.0560
     72  CG        44.2340   21.2100   20.6660 C.ar  322  PHE322     -0.0200
     73  CD1       43.6380   21.1280   21.9200 C.ar  322  PHE322     -0.0042
     74  CD2       44.8060   20.0680   20.1240 C.ar  322  PHE322     -0.0042
     75  CE1       43.5980   19.9150   22.6140 C.ar  322  PHE322     -0.0003
     76  CE2       44.7660   18.8550   20.8080 C.ar  322  PHE322     -0.0003
     77  CZ        44.1610   18.7820   22.0540 C.ar  322  PHE322     -0.0000
     78  N         39.2880   19.9800    9.0830 N.3   358  GLU358     -0.1245
     79  CA        39.7490   19.6750   10.4350 C.3   358  GLU358      0.1567
     80  C         38.5760   19.8360   11.3970 C.2   358  GLU358      0.2260
     81  O         37.9050   20.8680   11.3850 O.2   358  GLU358     -0.2867
     82  CB        40.8990   20.6020   10.8420 C.3   358  GLU358      0.0388
     83  CG        41.3260   20.4550   12.3040 C.3   358  GLU358      0.1160
     84  CD        41.8400   19.0530   12.6140 C.2   358  GLU358      0.3649
     85  OE1       42.8590   18.6440   12.0170 O.co2 358  GLU358     -0.2457
     86  OE2       41.2180   18.3480   13.4380 O.co2 358  GLU358     -0.2457
     87  N         41.7030   16.1200   15.3590 N.3   390  VAL390     -0.1231
     88  CA        42.7330   16.4130   16.3550 C.3   390  VAL390      0.1692
     89  C         42.0870   16.5460   17.7350 C.2   390  VAL390      0.2592
     90  O         41.3490   17.4960   18.0080 O.2   390  VAL390     -0.2718
     91  CB        43.5270   17.6730   15.9930 C.3   390  VAL390      0.0266
     92  CG1       44.4960   18.0260   17.1220 C.3   390  VAL390      0.0020
     93  CG2       44.2760   17.4410   14.6940 C.3   390  VAL390      0.0020
     94  N         42.4070   15.6050   18.6170 N.am  391  ALA391     -0.1966
     95  CA        41.9960   15.5860   20.0150 C.3   391  ALA391      0.1728
     96  C         42.8120   14.4960   20.6970 C.2   391  ALA391      0.2616
     97  O         43.2580   13.5510   20.0420 O.2   391  ALA391     -0.2715
     98  CB        40.4930   15.3060   20.1700 C.3   391  ALA391      0.0334
     99  N         43.0090   14.6340   22.0040 N.am  392  ASP392     -0.1971
    100  CA        43.7430   13.5990   22.7180 C.3   392  ASP392      0.1709
    101  C         42.9690   12.2820   22.6980 C.2   392  ASP392      0.2293
    102  O         41.7620   12.2370   22.4290 O.2   392  ASP392     -0.2864
    103  CB        43.9990   14.0180   24.1690 C.3   392  ASP392      0.1436
    104  CG        45.0850   15.0730   24.3020 C.2   392  ASP392      0.3671
    105  OD1       45.6250   15.5440   23.2700 O.co2 392  ASP392     -0.2456
    106  OD2       45.3980   15.4330   25.4590 O.co2 392  ASP392     -0.2456
    107  N         43.5150   12.1630    8.4880 N.3   436  HIS436     -0.1226
    108  CA        44.4590   12.2980    9.5910 C.3   436  HIS436      0.1752
    109  C         43.7300   12.0840   10.9190 C.2   436  HIS436      0.2595
    110  O         42.5180   12.2840   11.0160 O.2   436  HIS436     -0.2718
    111  CB        45.1680   13.6560    9.5350 C.3   436  HIS436      0.0759
    112  CG        46.2470   13.6980    8.4900 C.ar  436  HIS436      0.0818
    113  ND1       47.4730   14.2900    8.6960 N.ar  436  HIS436     -0.2268
    114  CD2       46.2920   13.1630    7.2450 C.ar  436  HIS436      0.1154
    115  CE1       48.2230   14.1330    7.6160 C.ar  436  HIS436      0.1986
    116  NE2       47.5300   13.4510    6.7220 N.ar  436  HIS436     -0.2212
    117  N         44.4870   11.6660   11.9400 N.am  437  GLU437     -0.1979
    118  CA        43.9610   11.1020   13.1830 C.3   437  GLU437      0.1602
    119  C         42.8450   10.0970   12.8670 C.2   437  GLU437      0.2287
    120  O         41.6900   10.2910   13.2620 O.2   437  GLU437     -0.2864
    121  CB        43.4690   12.1910   14.1330 C.3   437  GLU437      0.0415
    122  CG        44.5580   13.1990   14.4990 C.3   437  GLU437      0.1163
    123  CD        44.8560   14.1850   13.3670 C.2   437  GLU437      0.3649
    124  OE1       43.8990   14.6560   12.7180 O.co2 437  GLU437     -0.2457
    125  OE2       46.0470   14.4740   13.1170 O.co2 437  GLU437     -0.2457
    126  N         55.3160   15.8800   10.1240 N.3   461  GLN461     -0.1231
    127  CA        54.9750   17.0290   10.9640 C.3   461  GLN461      0.1698
    128  C         55.7040   16.9900   12.3000 C.2   461  GLN461      0.2592
    129  O         56.0310   18.0460   12.8540 O.2   461  GLN461     -0.2718
    130  CB        53.4590   17.1050   11.1980 C.3   461  GLN461      0.0381
    131  CG        52.8890   15.9030   11.9580 C.3   461  GLN461      0.0905
    132  CD        51.4390   16.0700   12.3800 C.2   461  GLN461      0.2608
    133  OE1       50.7700   15.0870   12.7240 O.2   461  GLN461     -0.2717
    134  NE2       50.9530   17.3060   12.3820 N.am  461  GLN461     -0.0878
    135  N         55.9740   15.7940   12.8370 N.am  462  PHE462     -0.1976
    136  CA        56.6960   15.7400   14.1060 C.3   462  PHE462      0.1639
    137  C         58.1400   16.1960   13.9820 C.2   462  PHE462      0.2290
    138  O         58.7880   16.4420   15.0060 O.2   462  PHE462     -0.2864
    139  CB        56.6260   14.3260   14.6960 C.3   462  PHE462      0.0560
    140  CG        55.3210   14.0520   15.3640 C.ar  462  PHE462     -0.0200
    141  CD1       54.2050   13.7100   14.6140 C.ar  462  PHE462     -0.0042
    142  CD2       55.1920   14.2190   16.7330 C.ar  462  PHE462     -0.0042
    143  CE1       52.9740   13.5050   15.2300 C.ar  462  PHE462     -0.0003
    144  CE2       53.9740   14.0050   17.3570 C.ar  462  PHE462     -0.0003
    145  CZ        52.8620   13.6550   16.6050 C.ar  462  PHE462     -0.0000
    146  N         58.2550   20.1250   15.1180 N.3   465  TRP465     -0.1241
    147  CA        58.0760   20.5750   16.4960 C.3   465  TRP465      0.1605
    148  C         58.0480   19.4400   17.5190 C.2   465  TRP465      0.2264
    149  O         57.6850   19.6990   18.6750 O.2   465  TRP465     -0.2867
    150  CB        56.7650   21.4040   16.6110 C.3   465  TRP465      0.0550
    151  CG        55.6320   20.8370   15.7670 C.ar  465  TRP465      0.0003
    152  CD1       55.1340   21.3650   14.6060 C.ar  465  TRP465      0.0946
    153  CD2       54.8920   19.6310   16.0040 C.ar  465  TRP465      0.0152
    154  NE1       54.1300   20.5720   14.1120 N.ar  465  TRP465     -0.2442
    155  CE2       53.9590   19.4990   14.9480 C.ar  465  TRP465      0.0810
    156  CE3       54.9210   18.6540   17.0050 C.ar  465  TRP465      0.0012
    157  CZ2       53.0690   18.4260   14.8640 C.ar  465  TRP465      0.0191
    158  CZ3       54.0330   17.5850   16.9180 C.ar  465  TRP465      0.0001
    159  CH2       53.1250   17.4790   15.8540 C.ar  465  TRP465      0.0015
@<TRIPOS>BOND
     1   116   114   ar
     2   116   115   ar
     3   114   112   ar
     4   115   113   ar
     5   107   108    1
     6   112   113   ar
     7   112   111    1
     8    78    79    1
     9   111   108    1
    10   108   109    1
    11    50    52   ar
    12    50    48   ar
    13    43    44    1
    14   126   127    1
    15    52    51   ar
    16    79    82    1
    17    79    80    1
    18    47    48    1
    19    47    44    1
    20    48    49   ar
    21    82    83    1
    22   109   110    2
    23   109   117   am
    24   127   130    1
    25   127   128    1
    26    44    45    1
    27   130   131    1
    28    81    80    2
    29    51    49   ar
    30    45    46    2
    31   117   118    1
    32   131   132    1
    33    85    84   ar
    34   128   135   am
    35   128   129    2
    36    83    84    1
    37   132   134   am
    38   132   133    2
    39    84    86   ar
    40   124   123   ar
    41   135   136    1
    42   119   118    1
    43   119   120    2
    44   125   123   ar
    45   118   121    1
    46   123   122    1
    47   137   136    1
    48   137   138    2
    49   136   139    1
    50   154   152   ar
    51   154   155   ar
    52   121   122    1
    53    42    40   ar
    54   152   151   ar
    55   141   143   ar
    56   141   140   ar
    57    93    91    1
    58   139   140    1
    59    64    66   ar
    60    64    62   ar
    61    61    62   ar
    62    61    59   ar
    63   157   155   ar
    64   157   159   ar
    65    66    65   ar
    66    62    60   ar
    67   155   153   ar
    68    59    58   ar
    69    65    63   ar
    70    60    58   ar
    71    60    63   ar
    72   146   147    1
    73    58    57    1
    74    40    39    1
    75    40    41   ar
    76   143   145   ar
    77    87    88    1
    78   140   142   ar
    79    57    54    1
    80    39    38    1
    81   151   153   ar
    82   151   150    1
    83   159   158   ar
    84    91    88    1
    85    91    92    1
    86   153   156   ar
    87    88    89    1
    88   147   150    1
    89   147   148    1
    90   145   144   ar
    91    38    35    1
    92   142   144   ar
    93    33    31    1
    94    54    55    1
    95    54    53    1
    96   158   156   ar
    97    35    34    1
    98    35    36    1
    99    56    55    2
   100    30    31    2
   101    30    29    1
   102    55    67   am
   103   148   149    2
   104    31    32    1
   105    89    90    2
   106    89    94   am
   107    36    37    2
   108    29    28    1
   109    67    68    1
   110    94    95    1
   111    27    28    1
   112    27    24    1
   113    68    69    1
   114    68    71    1
   115    25    24    1
   116    25    26    2
   117    18    17    2
   118    22    20   am
   119    24    23    1
   120    69    70    2
   121    71    72    1
   122    95    98    1
   123    95    96    1
   124    97    96    2
   125    74    72   ar
   126    74    76   ar
   127    21    20    2
   128    20    19    1
   129    17    23   am
   130    17    16    1
   131    72    73   ar
   132    96    99   am
   133    76    77   ar
   134    19    16    1
   135    16    15    1
   136    73    75   ar
   137    99   100    1
   138    77    75   ar
   139   102   101    2
   140   101   100    1
   141   100   103    1
   142    15     3   am
   143     4     3    2
   144    13    14   ar
   145    13    11   ar
   146   105   104   ar
   147    14    12   ar
   148     3     2    1
   149    11     8   ar
   150    12    10   ar
   151   103   104    1
   152   104   106   ar
   153     8    10   ar
   154     8     6   ar
   155    10     9   ar
   156     2     1    1
   157     2     5    1
   158     9     7   ar
   159     6     5    1
   160     6     7   ar
