@<TRIPOS>MOLECULE
tmp/5hqjA00.pdb
 133 125 0 0 0
SMALL
GASTEIGER

@<TRIPOS>ATOM
      1  N         26.1280    5.1540   43.5570 N.3    13  LYS13      -0.1245
      2  CA        26.6540    4.3670   42.4380 C.3    13  LYS13       0.1561
      3  C         26.7640    2.9050   42.8730 C.2    13  LYS13       0.2260
      4  O         26.6360    1.9980   42.0520 O.2    13  LYS13      -0.2867
      5  CB        28.0160    4.8930   41.9720 C.3    13  LYS13       0.0271
      6  CG        27.9520    6.1750   41.0790 C.3    13  LYS13       0.0035
      7  CD        29.3550    6.5870   40.5960 C.3    13  LYS13       0.0206
      8  CE        29.3520    7.8910   39.7870 C.3    13  LYS13       0.1093
      9  NZ        30.6790    8.1390   39.1590 N.3    13  LYS13      -0.1314
     10  N         30.0450    2.0800   48.1710 N.3    16  VAL16      -0.1245
     11  CA        31.4410    2.4870   48.3100 C.3    16  VAL16       0.1561
     12  C         31.5560    3.6930   49.2680 C.2    16  VAL16       0.2260
     13  O         30.5990    4.4310   49.4580 O.2    16  VAL16      -0.2867
     14  CB        32.0490    2.8430   46.9430 C.3    16  VAL16       0.0252
     15  CG1       32.1630    1.6130   46.0710 C.3    16  VAL16       0.0019
     16  CG2       31.2130    3.8630   46.2620 C.3    16  VAL16       0.0019
     17  N         32.6860    6.7620   49.7160 N.3    18  PHE18      -0.1227
     18  CA        32.2150    8.1260   49.5140 C.3    18  PHE18       0.1736
     19  C         30.7350    8.3520   49.8260 C.2    18  PHE18       0.2595
     20  O         30.3740    9.4110   50.3610 O.2    18  PHE18      -0.2718
     21  CB        32.5100    8.5190   48.0640 C.3    18  PHE18       0.0547
     22  CG        31.9490    9.8670   47.6470 C.ar   18  PHE18      -0.0202
     23  CD1       32.6430   11.0530   47.9030 C.ar   18  PHE18      -0.0042
     24  CD2       30.7660    9.9310   46.9300 C.ar   18  PHE18      -0.0042
     25  CE1       32.1450   12.2910   47.4650 C.ar   18  PHE18      -0.0003
     26  CE2       30.2580   11.1400   46.4940 C.ar   18  PHE18      -0.0003
     27  CZ        30.9670   12.3430   46.7360 C.ar   18  PHE18      -0.0000
     28  N         29.8750    7.3980   49.4710 N.am   19  PHE19      -0.1976
     29  CA        28.4370    7.6410   49.5300 C.3    19  PHE19       0.1639
     30  C         27.8250    7.5470   50.9080 C.2    19  PHE19       0.2290
     31  O         26.6500    7.8870   51.0610 O.2    19  PHE19      -0.2864
     32  CB        27.7140    6.6840   48.5790 C.3    19  PHE19       0.0560
     33  CG        27.9330    7.0310   47.1420 C.ar   19  PHE19      -0.0200
     34  CD1       27.2140    8.0370   46.5680 C.ar   19  PHE19      -0.0042
     35  CD2       28.8990    6.3870   46.4050 C.ar   19  PHE19      -0.0042
     36  CE1       27.4280    8.3890   45.2150 C.ar   19  PHE19      -0.0003
     37  CE2       29.1160    6.6820   45.0440 C.ar   19  PHE19      -0.0003
     38  CZ        28.4010    7.7080   44.4580 C.ar   19  PHE19      -0.0000
     39  N         25.8630   14.2090   42.3750 N.3    92  ASP92      -0.1239
     40  CA        27.2270   13.6960   42.2730 C.3    92  ASP92       0.1674
     41  C         27.6740   13.3770   40.8520 C.2    92  ASP92       0.2266
     42  O         28.6920   13.8980   40.4050 O.2    92  ASP92      -0.2867
     43  CB        27.3760   12.4470   43.1630 C.3    92  ASP92       0.1410
     44  CG        28.7130   11.7990   43.0080 C.2    92  ASP92       0.3668
     45  OD1       29.7470   12.4960   43.1410 O.co2  92  ASP92      -0.2456
     46  OD2       28.7100   10.6020   42.7140 O.co2  92  ASP92      -0.2456
     47  N         35.9270    4.1320   37.3110 N.3   132  GLN132     -0.1245
     48  CA        35.2440    3.4930   36.2030 C.3   132  GLN132      0.1566
     49  C         35.2780    4.4230   34.9640 C.2   132  GLN132      0.2260
     50  O         35.0460    5.6250   35.0500 O.2   132  GLN132     -0.2867
     51  CB        33.8110    3.0950   36.6200 C.3   132  GLN132      0.0367
     52  CG        32.9560    4.1570   37.3510 C.3   132  GLN132      0.0905
     53  CD        33.1010    4.1550   38.8870 C.2   132  GLN132      0.2608
     54  OE1       34.0690    4.6750   39.4210 O.2   132  GLN132     -0.2717
     55  NE2       32.1130    3.6000   39.5900 N.am  132  GLN132     -0.0878
     56  N         31.3600   12.1640   35.7200 N.3   137  ASN137     -0.1225
     57  CA        31.9570   13.1580   36.5650 C.3   137  ASN137      0.1785
     58  C         33.4570   12.9120   36.4950 C.2   137  ASN137      0.2597
     59  O         34.2110   13.8650   36.4670 O.2   137  ASN137     -0.2718
     60  CB        31.3810   13.1430   38.0010 C.3   137  ASN137      0.1169
     61  CG        31.4730   11.7840   38.7090 C.2   137  ASN137      0.2627
     62  OD1       31.7290   10.7430   38.1060 O.2   137  ASN137     -0.2716
     63  ND2       31.2200   11.8080   40.0230 N.am  137  ASN137     -0.0877
     64  N         33.8730   11.6380   36.4490 N.am  138  LEU138     -0.1980
     65  CA        35.2890   11.3020   36.4520 C.3   138  LEU138      0.1596
     66  C         35.8980   11.7150   35.1480 C.2   138  LEU138      0.2287
     67  O         36.9620   12.2980   35.1210 O.2   138  LEU138     -0.2864
     68  CB        35.5060    9.8180   36.6750 C.3   138  LEU138      0.0297
     69  CG        35.0290    9.2710   38.0010 C.3   138  LEU138      0.0022
     70  CD1       35.5430    7.8670   38.1430 C.3   138  LEU138      0.0001
     71  CD2       35.4440   10.1540   39.2000 C.3   138  LEU138      0.0001
     72  N         36.4430   15.4100   35.1260 N.3   141  ARG141     -0.1245
     73  CA        37.5950   15.7500   35.9320 C.3   141  ARG141      0.1563
     74  C         38.8530   15.5810   35.0930 C.2   141  ARG141      0.2260
     75  O         39.7570   16.4150   35.0880 O.2   141  ARG141     -0.2867
     76  CB        37.6970   14.8540   37.1820 C.3   141  ARG141      0.0307
     77  CG        36.5730   15.1400   38.1630 C.3   141  ARG141      0.0489
     78  CD        36.5360   14.1330   39.3250 C.3   141  ARG141      0.2205
     79  NE        35.2560   14.2840   39.9920 N.pl3 141  ARG141     -0.0865
     80  CZ        34.7610   13.4700   40.9040 C.cat 141  ARG141      0.5346
     81  NH1       35.4640   12.4270   41.3550 N.pl3 141  ARG141      0.1354
     82  NH2       33.5570   13.7220   41.4330 N.pl3 141  ARG141      0.1354
     83  N         37.6990    1.6940   40.5930 N.3   165  ASP165     -0.1239
     84  CA        37.7610    1.9450   42.0330 C.3   165  ASP165      0.1674
     85  C         37.8520    0.6480   42.8180 C.2   165  ASP165      0.2266
     86  O         37.3430    0.5520   43.9250 O.2   165  ASP165     -0.2867
     87  CB        36.5520    2.7660   42.5060 C.3   165  ASP165      0.1410
     88  CG        36.6780    4.2410   42.1810 C.2   165  ASP165      0.3668
     89  OD1       37.7600    4.6660   41.7330 O.co2 165  ASP165     -0.2456
     90  OD2       35.7010    4.9860   42.4100 O.co2 165  ASP165     -0.2456
     91  N         39.3760    9.8320   41.4160 N.3   191  SER191     -0.1202
     92  CA        38.3210    9.0700   42.0860 C.3   191  SER191      0.2020
     93  C         38.7740    8.6950   43.5110 C.2   191  SER191      0.2618
     94  O         39.9190    8.8760   43.8610 O.2   191  SER191     -0.2717
     95  CB        37.9560    7.8310   41.2800 C.3   191  SER191      0.2103
     96  OG        38.9880    6.8870   41.3540 O.3   191  SER191     -0.2182
     97  N         37.8650    8.2130   44.3490 N.am  192  GLN192     -0.1979
     98  CA        38.2030    8.1470   45.7700 C.3   192  GLN192      0.1601
     99  C         39.3200    7.1370   46.0590 C.2   192  GLN192      0.2287
    100  O         40.0120    7.3140   47.0410 O.2   192  GLN192     -0.2864
    101  CB        36.9670    7.8480   46.6510 C.3   192  GLN192      0.0394
    102  CG        36.0270    6.7700   46.1700 C.3   192  GLN192      0.0908
    103  CD        36.7130    5.4480   46.0030 C.2   192  GLN192      0.2608
    104  OE1       37.0400    5.0410   44.8930 O.2   192  GLN192     -0.2717
    105  NE2       36.9410    4.7640   47.1080 N.am  192  GLN192     -0.0878
    106  N         41.3840   12.8950   45.2600 N.3   218  PHE218     -0.1227
    107  CA        39.9880   13.2730   45.4460 C.3   218  PHE218      0.1736
    108  C         39.3880   12.6210   46.6870 C.2   218  PHE218      0.2595
    109  O         39.6950   11.4690   47.0380 O.2   218  PHE218     -0.2718
    110  CB        39.1720   12.8880   44.2000 C.3   218  PHE218      0.0547
    111  CG        38.4850   14.0420   43.5330 C.ar  218  PHE218     -0.0202
    112  CD1       37.1710   14.3330   43.8180 C.ar  218  PHE218     -0.0042
    113  CD2       39.1440   14.8520   42.6210 C.ar  218  PHE218     -0.0042
    114  CE1       36.5480   15.4050   43.2120 C.ar  218  PHE218     -0.0003
    115  CE2       38.5060   15.9150   42.0030 C.ar  218  PHE218     -0.0003
    116  CZ        37.2190   16.1880   42.3070 C.ar  218  PHE218     -0.0000
    117  N         38.5490   13.4110   47.3590 N.am  219  ASP219     -0.1974
    118  CA        37.6980   12.9990   48.4840 C.3   219  ASP219      0.1709
    119  C         38.5190   12.8810   49.7590 C.2   219  ASP219      0.2293
    120  O         39.7310   13.1250   49.7570 O.2   219  ASP219     -0.2864
    121  CB        36.9540   11.7210   48.1440 C.3   219  ASP219      0.1436
    122  CG        36.0980   11.8620   46.8820 C.2   219  ASP219      0.3671
    123  OD1       35.4920   12.9540   46.6500 O.co2 219  ASP219     -0.2456
    124  OD2       36.0290   10.9050   46.0800 O.co2 219  ASP219     -0.2456
    125  N         34.7470   17.3180   47.9810 N.3   238  GLN238     -0.1245
    126  CA        33.4360   17.7190   47.4980 C.3   238  GLN238      0.1566
    127  C         32.5490   17.9530   48.7390 C.2   238  GLN238      0.2260
    128  O         33.0680   17.9680   49.8430 O.2   238  GLN238     -0.2867
    129  CB        32.8610   16.6500   46.5690 C.3   238  GLN238      0.0367
    130  CG        33.7890   16.1890   45.4710 C.3   238  GLN238      0.0905
    131  CD        33.0880   15.1720   44.6330 C.2   238  GLN238      0.2608
    132  OE1       32.1410   15.4860   43.9330 O.2   238  GLN238     -0.2717
    133  NE2       33.5440   13.9140   44.7130 N.am  238  GLN238     -0.0878
@<TRIPOS>BOND
     1    49    50    2
     2    49    48    1
     3    75    74    2
     4    74    73    1
     5    67    66    2
     6    72    73    1
     7    66    65    1
     8    56    57    1
     9    73    76    1
    10    48    51    1
    11    48    47    1
    12    64    65    1
    13    64    58   am
    14    65    68    1
    15    59    58    2
    16    58    57    1
    17    57    60    1
    18    51    52    1
    19    68    69    1
    20    76    77    1
    21    52    53    1
    22    60    61    1
    23    69    70    1
    24    69    71    1
    25    62    61    2
    26    77    78    1
    27    61    63   am
    28    53    54    2
    29    53    55   am
    30     9     8    1
    31    78    79    1
    32     8     7    1
    33    79    80    2
    34    42    41    2
    35    83    84    1
    36     7     6    1
    37    41    40    1
    38    80    81    1
    39    80    82    1
    40     6     5    1
    41    95    96    1
    42    95    92    1
    43    91    92    1
    44    89    88   ar
    45     5     2    1
    46   115   116   ar
    47   115   113   ar
    48    84    87    1
    49    84    85    1
    50     4     3    2
    51    92    93    1
    52    88    90   ar
    53    88    87    1
    54    40    39    1
    55    40    43    1
    56   116   114   ar
    57     2     3    1
    58     2     1    1
    59   113   111   ar
    60    46    44   ar
    61    85    86    2
    62    44    45   ar
    63    44    43    1
    64   114   112   ar
    65    93    94    2
    66    93    97   am
    67   111   112   ar
    68   111   110    1
    69   132   131    2
    70   110   107    1
    71    97    98    1
    72    38    37   ar
    73    38    36   ar
    74   131   133   am
    75   131   130    1
    76   104   103    2
    77    37    35   ar
    78    36    34   ar
    79   106   107    1
    80   107   108    1
    81   130   129    1
    82    98    99    1
    83    98   101    1
    84   103   102    1
    85   103   105   am
    86    99   100    2
    87    15    14    1
    88   124   122   ar
    89   102   101    1
    90    16    14    1
    91    35    33   ar
    92    26    27   ar
    93    26    24   ar
    94    34    33   ar
    95   129   126    1
    96   123   122   ar
    97   108   109    2
    98   108   117   am
    99    27    25   ar
   100   122   121    1
   101    24    22   ar
   102    14    11    1
   103    33    32    1
   104   117   118    1
   105    25    23   ar
   106   126   125    1
   107   126   127    1
   108    22    23   ar
   109    22    21    1
   110    21    18    1
   111   121   118    1
   112    10    11    1
   113    11    12    1
   114   118   119    1
   115    32    29    1
   116   127   128    2
   117    12    13    2
   118    28    29    1
   119    28    19   am
   120    18    17    1
   121    18    19    1
   122    29    30    1
   123   120   119    2
   124    19    20    2
   125    30    31    2
