@<TRIPOS>MOLECULE
tmp/5hqmA00.pdb
 156 148 0 0 0
SMALL
GASTEIGER

@<TRIPOS>ATOM
      1  N         14.2010   25.2820   45.8490 N.3   163  ILE163     -0.1245
      2  CA        14.7000   23.9870   45.4700 C.3   163  ILE163      0.1561
      3  C         14.9370   23.3010   46.7670 C.2   163  ILE163      0.2260
      4  O         15.5660   23.9240   47.6340 O.2   163  ILE163     -0.2867
      5  CB        15.9870   24.1110   44.6530 C.3   163  ILE163      0.0252
      6  CG1       15.8420   25.0240   43.4460 C.3   163  ILE163      0.0019
      7  CG2       16.4940   22.7580   44.2260 C.3   163  ILE163      0.0019
      8  CD1       16.6110   26.2520   43.5710 C.3   163  ILE163      0.0001
      9  N         17.0640   21.6440   49.2000 N.3   165  LYS165     -0.1245
     10  CA        18.4870   21.4270   49.4920 C.3   165  LYS165      0.1561
     11  C         18.5820   20.6810   50.8260 C.2   165  LYS165      0.2260
     12  O         17.7440   20.9270   51.6950 O.2   165  LYS165     -0.2867
     13  CB        19.2570   22.7360   49.5680 C.3   165  LYS165      0.0271
     14  CG        19.1400   23.6340   48.3390 C.3   165  LYS165      0.0035
     15  CD        19.9160   23.1220   47.1720 C.3   165  LYS165      0.0206
     16  CE        19.6090   23.9300   45.9580 C.3   165  LYS165      0.1093
     17  NZ        20.3660   23.5050   44.7630 N.3   165  LYS165     -0.1314
     18  N         21.0500   19.0310   47.8000 N.3   167  LYS167     -0.1245
     19  CA        20.8220   18.5790   46.4290 C.3   167  LYS167      0.1561
     20  C         20.4990   17.0930   46.4210 C.2   167  LYS167      0.2260
     21  O         19.5930   16.6770   45.7070 O.2   167  LYS167     -0.2867
     22  CB        22.0510   18.9170   45.5720 C.3   167  LYS167      0.0271
     23  CG        22.0380   18.3570   44.1550 C.3   167  LYS167      0.0035
     24  CD        23.3370   18.7680   43.3890 C.3   167  LYS167      0.0206
     25  CE        23.5970   20.2400   43.2780 C.3   167  LYS167      0.1093
     26  NZ        22.6080   20.9320   42.4440 N.3   167  LYS167     -0.1314
     27  N         15.6050   19.4050   43.3090 N.3   191  ASP191     -0.1225
     28  CA        16.9110   19.7660   42.7700 C.3   191  ASP191      0.1805
     29  C         17.1380   18.8050   41.5790 C.2   191  ASP191      0.2597
     30  O         16.6510   17.6640   41.6280 O.2   191  ASP191     -0.2718
     31  CB        18.0320   19.6720   43.8330 C.3   191  ASP191      0.1424
     32  CG        19.1710   20.6320   43.5790 C.2   191  ASP191      0.3668
     33  OD1       19.2930   21.1300   42.4350 O.co2 191  ASP191     -0.2456
     34  OD2       19.9270   20.9120   44.5230 O.co2 191  ASP191     -0.2456
     35  N         17.7760   19.2720   40.4830 N.am  192  GLU192     -0.1979
     36  CA        17.8650   18.5240   39.2150 C.3   192  GLU192      0.1602
     37  C         18.2390   17.0030   39.2830 C.2   192  GLU192      0.2287
     38  O         17.6840   16.2730   38.4690 O.2   192  GLU192     -0.2864
     39  CB        18.7690   19.2020   38.1760 C.3   192  GLU192      0.0415
     40  CG        20.2690   19.1850   38.4170 C.3   192  GLU192      0.1163
     41  CD        20.8460   20.1480   39.4290 C.2   192  GLU192      0.3649
     42  OE1       20.1840   21.1620   39.7480 O.co2 192  GLU192     -0.2457
     43  OE2       21.9280   19.8370   39.9730 O.co2 192  GLU192     -0.2457
     44  N         14.9010   22.1120   32.8450 N.3   285  HIS285     -0.1226
     45  CA        16.1150   22.3680   33.6280 C.3   285  HIS285      0.1752
     46  C         17.2780   22.1550   32.6550 C.2   285  HIS285      0.2596
     47  O         17.2720   21.1960   31.9030 O.2   285  HIS285     -0.2718
     48  CB        16.1930   21.4640   34.8820 C.3   285  HIS285      0.0759
     49  CG        17.2570   21.9220   35.8410 C.ar  285  HIS285      0.0818
     50  ND1       18.5980   21.5770   35.6850 N.ar  285  HIS285     -0.2268
     51  CD2       17.1540   22.7790   36.8760 C.ar  285  HIS285      0.1154
     52  CE1       19.2440   22.2040   36.6500 C.ar  285  HIS285      0.1986
     53  NE2       18.4230   22.9530   37.3820 N.ar  285  HIS285     -0.2212
     54  N         18.2120   23.0920   32.5840 N.am  286  ARG286     -0.1966
     55  CA        19.2620   23.0790   31.5620 C.3   286  ARG286      0.1729
     56  C         20.6470   22.6770   32.0890 C.2   286  ARG286      0.2616
     57  O         21.6230   22.9430   31.4020 O.2   286  ARG286     -0.2715
     58  CB        19.3350   24.4800   30.8920 C.3   286  ARG286      0.0348
     59  CG        19.6280   25.5950   31.8900 C.3   286  ARG286      0.0492
     60  CD        19.7710   26.9120   31.2280 C.3   286  ARG286      0.2205
     61  NE        20.2990   27.8870   32.1650 N.pl3 286  ARG286     -0.0865
     62  CZ        20.7080   29.1080   31.8400 C.cat 286  ARG286      0.5346
     63  NH1       20.5770   29.5510   30.5930 N.pl3 286  ARG286      0.1354
     64  NH2       21.2360   29.9000   32.7570 N.pl3 286  ARG286      0.1354
     65  N         20.7430   21.8930   33.1870 N.am  287  ALA287     -0.1977
     66  CA        22.0510   21.4440   33.7030 C.3   287  ALA287      0.1597
     67  C         22.9680   20.9610   32.5880 C.2   287  ALA287      0.2287
     68  O         22.5230   20.1960   31.7310 O.2   287  ALA287     -0.2864
     69  CB        21.8670   20.2860   34.6890 C.3   287  ALA287      0.0319
     70  N         24.3940   22.8750   30.2030 N.3   289  HIS289     -0.1241
     71  CA        24.3830   23.8110   29.0800 C.3   289  HIS289      0.1621
     72  C         25.6160   24.6860   29.0030 C.2   289  HIS289      0.2264
     73  O         25.9990   25.0500   27.8920 O.2   289  HIS289     -0.2867
     74  CB        23.1270   24.7010   29.1420 C.3   289  HIS289      0.0745
     75  CG        23.2200   25.7720   30.1930 C.ar  289  HIS289      0.0817
     76  ND1       23.5950   27.0640   29.8590 N.ar  289  HIS289     -0.2268
     77  CD2       23.1150   25.6820   31.5390 C.ar  289  HIS289      0.1154
     78  CE1       23.7090   27.7150   31.0110 C.ar  289  HIS289      0.1986
     79  NE2       23.3710   26.9290   32.0470 N.ar  289  HIS289     -0.2212
     80  N         14.9320   27.6480   32.6010 N.3   319  HIS319     -0.1241
     81  CA        15.9170   28.4000   33.3590 C.3   319  HIS319      0.1621
     82  C         16.6630   29.3200   32.3880 C.2   319  HIS319      0.2264
     83  O         17.1780   28.8350   31.3770 O.2   319  HIS319     -0.2867
     84  CB        16.8700   27.4460   34.0510 C.3   319  HIS319      0.0745
     85  CG        16.2800   26.8070   35.2690 C.ar  319  HIS319      0.0817
     86  ND1       16.8970   26.8880   36.4980 N.ar  319  HIS319     -0.2268
     87  CD2       15.1400   26.0920   35.4000 C.ar  319  HIS319      0.1154
     88  CE1       16.1260   26.2200   37.3390 C.ar  319  HIS319      0.1986
     89  NE2       15.0570   25.7220   36.7250 N.ar  319  HIS319     -0.2212
     90  N         18.7080   31.8440   33.6950 N.3   321  GLY321     -0.1225
     91  CA        19.7940   32.3530   34.5020 C.3   321  GLY321      0.1811
     92  C         19.4070   33.6070   35.2430 C.2   321  GLY321      0.2280
     93  O         18.3140   34.1190   35.0570 O.2   321  GLY321     -0.2866
     94  N         24.9610   33.2690   41.2110 N.3   327  LYS327     -0.1231
     95  CA        26.2370   32.5390   41.2910 C.3   327  LYS327      0.1693
     96  C         26.7220   31.9670   39.9630 C.2   327  LYS327      0.2591
     97  O         27.8680   31.5450   39.9040 O.2   327  LYS327     -0.2718
     98  CB        26.1460   31.3910   42.3200 C.3   327  LYS327      0.0285
     99  CG        25.4090   30.1320   41.8320 C.3   327  LYS327      0.0035
    100  CD        25.0930   29.1320   42.9510 C.3   327  LYS327      0.0206
    101  CE        24.5050   27.8760   42.3930 C.3   327  LYS327      0.1093
    102  NZ        24.1110   26.9000   43.4640 N.3   327  LYS327     -0.1314
    103  N         25.8700   31.8840   38.9390 N.am  328  MET328     -0.1979
    104  CA        26.2420   31.2770   37.6480 C.3   328  MET328      0.1605
    105  C         26.6540   32.3630   36.6620 C.2   328  MET328      0.2287
    106  O         26.4090   33.5400   36.9210 O.2   328  MET328     -0.2864
    107  CB        25.0690   30.4410   37.0580 C.3   328  MET328      0.0413
    108  CG        24.5460   29.3290   37.9760 C.3   328  MET328      0.0598
    109  SD        25.7440   27.9940   38.2070 S.3   328  MET328     -0.1393
    110  CE        24.6060   26.5990   38.6140 C.3   328  MET328      0.0692
    111  N         16.9570   31.3250   38.7150 N.3   366  SER366     -0.1202
    112  CA        17.5660   30.4740   39.7220 C.3   366  SER366      0.2020
    113  C         19.0840   30.4580   39.6300 C.2   366  SER366      0.2619
    114  O         19.6150   30.5510   38.5230 O.2   366  SER366     -0.2717
    115  CB        17.0620   29.0540   39.4820 C.3   366  SER366      0.2103
    116  OG        17.4160   28.1830   40.5350 O.3   366  SER366     -0.2182
    117  N         19.7390   30.2020   40.7710 N.am  367  GLY367     -0.1942
    118  CA        21.1860   30.0590   40.8730 C.3   367  GLY367      0.2014
    119  C         21.8020   31.1360   41.7330 C.2   367  GLY367      0.2639
    120  O         22.1930   32.1840   41.2240 O.2   367  GLY367     -0.2714
    121  N         21.9240   30.8640   43.0310 N.am  368  GLY368     -0.1939
    122  CA        22.5330   31.7950   43.9660 C.3   368  GLY368      0.2014
    123  C         21.6760   33.0060   44.2630 C.2   368  GLY368      0.2638
    124  O         22.2020   34.0330   44.6570 O.2   368  GLY368     -0.2714
    125  N         20.3480   32.8920   44.1300 N.am  369  MET369     -0.1976
    126  CA        19.4680   34.0190   44.4360 C.3   369  MET369      0.1605
    127  C         19.0660   33.9990   45.9090 C.2   369  MET369      0.2287
    128  O         19.0060   32.9540   46.5600 O.2   369  MET369     -0.2864
    129  CB        18.2040   34.0070   43.5580 C.3   369  MET369      0.0413
    130  CG        18.4480   34.3260   42.0770 C.3   369  MET369      0.0598
    131  SD        19.3060   35.9270   41.7550 S.3   369  MET369     -0.1393
    132  CE        18.1960   37.0700   42.5500 C.3   369  MET369      0.0692
    133  N         13.3580   30.4440   41.9420 N.3   389  THR389     -0.1203
    134  CA        13.6650   29.4100   42.9290 C.3   389  THR389      0.1994
    135  C         14.9890   29.7710   43.6090 C.2   389  THR389      0.2618
    136  O         15.9820   30.0260   42.9150 O.2   389  THR389     -0.2717
    137  CB        13.7140   28.0450   42.2600 C.3   389  THR389      0.1784
    138  OG1       14.6600   28.1110   41.2130 O.3   389  THR389     -0.2211
    139  CG2       12.3610   27.6110   41.7110 C.3   389  THR389      0.0376
    140  N         15.0000   29.8110   44.9500 N.am  390  ALA390     -0.1965
    141  CA        16.1890   30.0820   45.7810 C.3   390  ALA390      0.1728
    142  C         16.3220   28.9940   46.8200 C.2   390  ALA390      0.2617
    143  O         15.5420   28.9790   47.7830 O.2   390  ALA390     -0.2715
    144  CB        16.0740   31.4590   46.4560 C.3   390  ALA390      0.0334
    145  N         17.2420   28.0600   46.5760 N.am  391  GLY391     -0.1940
    146  CA        17.5190   26.9270   47.4450 C.3   391  GLY391      0.2014
    147  C         18.3150   27.4050   48.6330 C.2   391  GLY391      0.2639
    148  O         17.7900   27.4480   49.7460 O.2   391  GLY391     -0.2714
    149  N         19.5560   27.8140   48.3750 N.am  392  GLY392     -0.1939
    150  CA        20.4220   28.3690   49.3980 C.3   392  GLY392      0.2014
    151  C         19.7920   29.5970   50.0190 C.2   392  GLY392      0.2639
    152  O         19.8000   29.7510   51.2340 O.2   392  GLY392     -0.2714
    153  N         19.1680   30.4280   49.1880 N.am  393  GLY393     -0.1954
    154  CA        18.4980   31.6320   49.6670 C.3   393  GLY393      0.1869
    155  C         17.2990   31.4420   50.5860 C.2   393  GLY393      0.2309
    156  O         16.8920   32.4070   51.2330 O.2   393  GLY393     -0.2863
@<TRIPOS>BOND
     1    73    72    2
     2    72    71    1
     3    71    74    1
     4    71    70    1
     5    74    75    1
     6    76    75   ar
     7    76    78   ar
     8    75    77   ar
     9    63    62    1
    10    58    55    1
    11    58    59    1
    12    78    79   ar
    13    60    59    1
    14    60    61    1
    15    83    82    2
    16    57    56    2
    17    77    79   ar
    18    55    56    1
    19    55    54    1
    20    68    67    2
    21    62    61    2
    22    62    64    1
    23    47    46    2
    24    56    65   am
    25    82    81    1
    26    54    46   am
    27    67    66    1
    28    80    81    1
    29    46    45    1
    30    44    45    1
    31    65    66    1
    32    81    84    1
    33    45    48    1
    34    90    91    1
    35    66    69    1
    36    84    85    1
    37    91    92    1
    38    48    49    1
    39    93    92    2
    40    85    87   ar
    41    85    86   ar
    42    87    89   ar
    43    50    49   ar
    44    50    52   ar
    45    49    51   ar
    46    86    88   ar
    47    52    53   ar
    48   105   106    2
    49   105   104    1
    50    89    88   ar
    51    51    53   ar
    52   107   104    1
    53   107   108    1
    54   104   103    1
    55   108   109    1
    56    39    40    1
    57    39    36    1
    58   109   110    1
    59    40    41    1
    60    38    37    2
    61   114   113    2
    62   111   112    1
    63   103    96   am
    64    36    37    1
    65    36    35    1
    66    41    42   ar
    67    41    43   ar
    68   115   112    1
    69   115   116    1
    70   113   112    1
    71   113   117   am
    72    97    96    2
    73    96    95    1
    74    35    29   am
    75   117   118    1
    76   118   119    1
    77    94    95    1
    78   138   137    1
    79   120   119    2
    80    95    98    1
    81    29    30    2
    82    29    28    1
    83   139   137    1
    84   119   121   am
    85   131   130    1
    86   131   132    1
    87    99    98    1
    88    99   100    1
    89   133   134    1
    90   130   129    1
    91   137   134    1
    92   101   100    1
    93   101   102    1
    94    33    32   ar
    95    26    25    1
    96    28    27    1
    97    28    31    1
    98   136   135    2
    99   134   135    1
   100   121   122    1
   101    25    24    1
   102    24    23    1
   103     6     8    1
   104     6     5    1
   105   129   126    1
   106    32    31    1
   107    32    34   ar
   108   135   140   am
   109   122   123    1
   110   125   123   am
   111   125   126    1
   112    23    22    1
   113     7     5    1
   114   123   124    2
   115   126   127    1
   116     5     2    1
   117    17    16    1
   118   140   141    1
   119     2     1    1
   120     2     3    1
   121    22    19    1
   122    21    20    2
   123   141   144    1
   124   141   142    1
   125   127   128    2
   126    16    15    1
   127    20    19    1
   128    19    18    1
   129   145   142   am
   130   145   146    1
   131     3     4    2
   132   142   143    2
   133    15    14    1
   134   146   147    1
   135    14    13    1
   136   149   147   am
   137   149   150    1
   138   147   148    2
   139   153   154    1
   140   153   151   am
   141     9    10    1
   142   150   151    1
   143    10    13    1
   144    10    11    1
   145   154   155    1
   146   151   152    2
   147   155   156    2
   148    11    12    2
