@<TRIPOS>MOLECULE
tmp/5hqnA01.pdb
 74 72 0 0 0
SMALL
GASTEIGER

@<TRIPOS>ATOM
      1  N         87.8050   -2.5960  129.6050 N.3     8  ILE8       -0.1245
      2  CA        89.1970   -2.1940  129.7500 C.3     8  ILE8        0.1561
      3  C         89.4100   -1.8120  131.2040 C.2     8  ILE8        0.2260
      4  O         88.6330   -1.0320  131.7650 O.2     8  ILE8       -0.2867
      5  CB        89.5560   -1.0280  128.8060 C.3     8  ILE8        0.0252
      6  CG1       89.6480   -1.5170  127.3530 C.3     8  ILE8        0.0019
      7  CG2       90.8670   -0.3490  129.2260 C.3     8  ILE8        0.0019
      8  CD1       90.7720   -2.5220  127.0800 C.3     8  ILE8        0.0001
      9  N         96.7130   -4.8400  113.9010 N.3   162  PRO162     -0.2102
     10  CA        98.0850   -5.3260  113.6810 C.3   162  PRO162      0.1504
     11  C         98.1930   -6.8280  113.4860 C.2   162  PRO162      0.2575
     12  O         99.0800   -7.2710  112.7460 O.2   162  PRO162     -0.2718
     13  CB        98.8220   -4.8700  114.9500 C.3   162  PRO162      0.0282
     14  CG        98.0310   -3.7280  115.4570 C.3   162  PRO162      0.0208
     15  CD        96.6050   -4.0500  115.1370 C.3   162  PRO162      0.0893
     16  N         97.3360   -7.6340  114.1220 N.am  163  PHE163     -0.1977
     17  CA        97.5090   -9.0810  114.0280 C.3   163  PHE163      0.1639
     18  C         97.3510   -9.5830  112.5990 C.2   163  PHE163      0.2290
     19  O         97.8810  -10.6490  112.2710 O.2   163  PHE163     -0.2864
     20  CB        96.5350   -9.8110  114.9650 C.3   163  PHE163      0.0560
     21  CG        95.0900   -9.6860  114.5790 C.ar  163  PHE163     -0.0200
     22  CD1       94.5380  -10.5180  113.6170 C.ar  163  PHE163     -0.0042
     23  CD2       94.2700   -8.7590  115.2100 C.ar  163  PHE163     -0.0042
     24  CE1       93.1980  -10.4110  113.2720 C.ar  163  PHE163     -0.0003
     25  CE2       92.9300   -8.6450  114.8710 C.ar  163  PHE163     -0.0003
     26  CZ        92.3920   -9.4720  113.9020 C.ar  163  PHE163     -0.0000
     27  N         87.5820   -9.3180  115.0840 N.3   227  ASN227     -0.1240
     28  CA        87.7030   -9.0470  116.5120 C.3   227  ASN227      0.1653
     29  C         87.6670   -7.5360  116.6890 C.2   227  ASN227      0.2266
     30  O         88.4760   -6.8240  116.0880 O.2   227  ASN227     -0.2867
     31  CB        88.9940   -9.6490  117.0910 C.3   227  ASN227      0.1155
     32  CG        88.9980   -9.6580  118.6030 C.2   227  ASN227      0.2627
     33  OD1       88.3520   -8.8190  119.2240 O.2   227  ASN227     -0.2716
     34  ND2       89.7200  -10.6030  119.2060 N.am  227  ASN227     -0.0877
     35  N         87.7290   -6.1510  119.8380 N.3   229  THR229     -0.1203
     36  CA        88.1580   -5.9180  121.2130 C.3   229  THR229      0.1994
     37  C         89.4370   -5.0910  121.1980 C.2   229  THR229      0.2618
     38  O         90.5200   -5.6040  120.9080 O.2   229  THR229     -0.2717
     39  CB        88.3640   -7.2420  121.9360 C.3   229  THR229      0.1784
     40  OG1       87.1440   -7.9950  121.9090 O.3   229  THR229     -0.2211
     41  CG2       88.7810   -7.0070  123.3750 C.3   229  THR229      0.0376
     42  N         89.3030   -3.8030  121.5150 N.am  230  ASP230     -0.1960
     43  CA        90.4030   -2.8480  121.6250 C.3   230  ASP230      0.1825
     44  C         91.4650   -3.1180  120.5520 C.2   230  ASP230      0.2464
     45  O         92.6140   -3.4300  120.8780 O.2   230  ASP230     -0.2730
     46  CB        91.0190   -2.8760  123.0210 C.3   230  ASP230      0.1450
     47  CG        91.9720   -1.7080  123.2690 C.2   230  ASP230      0.3671
     48  OD1       91.9510   -0.7410  122.4800 O.co2 230  ASP230     -0.2456
     49  OD2       92.7300   -1.7460  124.2610 O.co2 230  ASP230     -0.2456
     50  N         91.1100   -3.0020  119.2720 N.am  231  PRO231     -0.2715
     51  CA        92.0930   -3.2580  118.2140 C.3   231  PRO231      0.1536
     52  C         93.3750   -2.4740  118.4510 C.2   231  PRO231      0.2598
     53  O         93.3500   -1.3050  118.8430 O.2   231  PRO231     -0.2715
     54  CB        91.3740   -2.8000  116.9400 C.3   231  PRO231      0.0310
     55  CG        89.9220   -2.8630  117.2690 C.3   231  PRO231      0.0237
     56  CD        89.8160   -2.5490  118.7300 C.3   231  PRO231      0.0939
     57  N         94.5030   -3.1420  118.2250 N.am  232  ALA232     -0.1964
     58  CA        95.8400   -2.5850  118.3950 C.3   232  ALA232      0.1728
     59  C         96.1460   -2.2270  119.8390 C.2   232  ALA232      0.2616
     60  O         97.1530   -1.5600  120.1050 O.2   232  ALA232     -0.2715
     61  CB        96.0550   -1.3540  117.5030 C.3   232  ALA232      0.0334
     62  N         95.3160   -2.6620  120.7790 N.am  233  GLY233     -0.1955
     63  CA        95.5180   -2.2820  122.1740 C.3   233  GLY233      0.1869
     64  C         95.6210   -0.7880  122.3680 C.2   233  GLY233      0.2309
     65  O         96.3820   -0.3230  123.2270 O.2   233  GLY233     -0.2863
     66  N         94.0160    0.5870  125.8480 N.3   236  GLN236     -0.1245
     67  CA        94.9390    0.2740  126.9360 C.3   236  GLN236      0.1566
     68  C         96.1680    1.1710  126.8790 C.2   236  GLN236      0.2260
     69  O         96.6320    1.6790  127.9080 O.2   236  GLN236     -0.2867
     70  CB        95.3470   -1.2010  126.8720 C.3   236  GLN236      0.0367
     71  CG        96.1900   -1.6650  128.0490 C.3   236  GLN236      0.0905
     72  CD        95.4830   -1.4590  129.3870 C.2   236  GLN236      0.2608
     73  OE1       94.3530   -1.9160  129.5900 O.2   236  GLN236     -0.2717
     74  NE2       96.1420   -0.7490  130.2990 N.am  236  GLN236     -0.0878
@<TRIPOS>BOND
     1    19    18    2
     2    18    17    1
     3    12    11    2
     4    24    22   ar
     5    24    26   ar
     6    11    10    1
     7    11    16   am
     8    22    21   ar
     9    10     9    1
    10    10    13    1
    11     9    15    1
    12    26    25   ar
    13    17    16    1
    14    17    20    1
    15    21    20    1
    16    21    23   ar
    17    25    23   ar
    18    13    14    1
    19    27    28    1
    20    15    14    1
    21    30    29    2
    22    28    29    1
    23    28    31    1
    24    54    55    1
    25    54    51    1
    26    31    32    1
    27    55    56    1
    28    61    58    1
    29    51    52    1
    30    51    50    1
    31    57    58    1
    32    57    52   am
    33    58    59    1
    34    52    53    2
    35    32    34   am
    36    32    33    2
    37    56    50    1
    38    50    44   am
    39    35    36    1
    40    59    60    2
    41    59    62   am
    42    44    45    2
    43    44    43    1
    44    62    63    1
    45    38    37    2
    46    37    36    1
    47    37    42   am
    48    36    39    1
    49    42    43    1
    50    43    46    1
    51    40    39    1
    52    39    41    1
    53    63    64    1
    54    64    65    2
    55    48    47   ar
    56    46    47    1
    57    47    49   ar
    58    66    67    1
    59    70    67    1
    60    70    71    1
    61    68    67    1
    62    68    69    2
    63     8     6    1
    64     6     5    1
    65    71    72    1
    66     5     7    1
    67     5     2    1
    68    72    73    2
    69    72    74   am
    70     1     2    1
    71     2     3    1
    72     3     4    2
