@<TRIPOS>MOLECULE
tmp/5hqxA01.pdb
 161 153 0 0 0
SMALL
GASTEIGER

@<TRIPOS>ATOM
      1  N        -21.0790    7.4360  -31.3740 N.3   127  ASP127     -0.1225
      2  CA       -20.2240    8.3860  -32.1040 C.3   127  ASP127      0.1805
      3  C        -20.7130    9.8200  -31.8640 C.2   127  ASP127      0.2597
      4  O        -19.9500   10.7520  -32.0840 O.2   127  ASP127     -0.2718
      5  CB       -20.3370    8.1810  -33.6300 C.3   127  ASP127      0.1424
      6  CG       -19.9990    6.8080  -34.1520 C.2   127  ASP127      0.3668
      7  OD1      -19.1540    6.1500  -33.5490 O.co2 127  ASP127     -0.2456
      8  OD2      -20.4740    6.4630  -35.2730 O.co2 127  ASP127     -0.2456
      9  N        -22.0150    9.9900  -31.5280 N.am  128  TYR128     -0.1976
     10  CA       -22.6590   11.3020  -31.3370 C.3   128  TYR128      0.1639
     11  C        -23.1840   11.3770  -29.9100 C.2   128  TYR128      0.2290
     12  O        -23.8790   10.4690  -29.4770 O.2   128  TYR128     -0.2864
     13  CB       -23.7790   11.4650  -32.3710 C.3   128  TYR128      0.0560
     14  CG       -24.5330   12.7780  -32.3040 C.ar  128  TYR128     -0.0198
     15  CD1      -23.9360   13.9690  -32.7170 C.ar  128  TYR128     -0.0009
     16  CD2      -25.8800   12.8100  -31.9660 C.ar  128  TYR128     -0.0009
     17  CE1      -24.6490   15.1620  -32.7470 C.ar  128  TYR128      0.0417
     18  CE2      -26.5990   14.0020  -31.9760 C.ar  128  TYR128      0.0417
     19  CZ       -25.9870   15.1690  -32.3950 C.ar  128  TYR128      0.1957
     20  OH       -26.6830   16.3450  -32.3930 O.3   128  TYR128     -0.2866
     21  N        -23.8630    2.1000  -29.6150 N.3   142  ILE142     -0.1245
     22  CA       -22.6530    1.5480  -30.1920 C.3   142  ILE142      0.1561
     23  C        -21.7510    2.5950  -30.7810 C.2   142  ILE142      0.2260
     24  O        -22.2020    3.6310  -31.2730 O.2   142  ILE142     -0.2867
     25  CB       -22.9690    0.3980  -31.2220 C.3   142  ILE142      0.0252
     26  CG1      -23.6710    0.9330  -32.4860 C.3   142  ILE142      0.0019
     27  CG2      -23.7940   -0.7480  -30.5540 C.3   142  ILE142      0.0019
     28  CD1      -24.1400   -0.1960  -33.5240 C.3   142  ILE142      0.0001
     29  N        -13.1020    1.6020  -36.0710 N.3   240  GLU240     -0.1245
     30  CA       -14.2030    1.7990  -36.9810 C.3   240  GLU240      0.1567
     31  C        -13.6480    1.7230  -38.3920 C.2   240  GLU240      0.2260
     32  O        -12.4540    1.4660  -38.6140 O.2   240  GLU240     -0.2867
     33  CB       -14.9610    3.1310  -36.7250 C.3   240  GLU240      0.0388
     34  CG       -15.8430    3.0870  -35.4760 C.3   240  GLU240      0.1160
     35  CD       -16.9440    4.1230  -35.3920 C.2   240  GLU240      0.3649
     36  OE1      -17.4990    4.2910  -34.2880 O.co2 240  GLU240     -0.2457
     37  OE2      -17.2600    4.7650  -36.4170 O.co2 240  GLU240     -0.2457
     38  N        -18.4030   14.4160  -33.8930 N.3   299  VAL299     -0.1245
     39  CA       -19.5920   14.4210  -34.7610 C.3   299  VAL299      0.1561
     40  C        -20.4150   15.7150  -34.5980 C.2   299  VAL299      0.2260
     41  O        -20.9930   16.2120  -35.5720 O.2   299  VAL299     -0.2867
     42  CB       -20.4090   13.1030  -34.6720 C.3   299  VAL299      0.0252
     43  CG1      -21.6860   13.1590  -35.5140 C.3   299  VAL299      0.0019
     44  CG2      -19.5410   11.9210  -35.0960 C.3   299  VAL299      0.0019
     45  N        -19.0840   18.4190  -36.9310 N.3   302  ALA302     -0.1245
     46  CA       -19.5900   18.1310  -38.2720 C.3   302  ALA302      0.1562
     47  C        -21.0520   18.5950  -38.3650 C.2   302  ALA302      0.2260
     48  O        -21.4190   19.2290  -39.3580 O.2   302  ALA302     -0.2867
     49  CB       -19.4730   16.6390  -38.5730 C.3   302  ALA302      0.0290
     50  N        -22.8320   21.3120  -40.9250 N.3   306  LEU306     -0.1245
     51  CA       -23.9970   20.9350  -41.7260 C.3   306  LEU306      0.1561
     52  C        -25.1800   21.8940  -41.5150 C.2   306  LEU306      0.2260
     53  O        -25.8300   22.2610  -42.4950 O.2   306  LEU306     -0.2867
     54  CB       -24.3960   19.4670  -41.5040 C.3   306  LEU306      0.0270
     55  CG       -23.4700   18.4360  -42.1500 C.3   306  LEU306      0.0019
     56  CD1      -23.7280   17.0350  -41.5920 C.3   306  LEU306      0.0001
     57  CD2      -23.5960   18.4420  -43.6910 C.3   306  LEU306      0.0001
     58  N        -28.6810   19.8350  -42.3020 N.3   312  TRP312     -0.1241
     59  CA       -28.9050   19.0560  -41.0910 C.3   312  TRP312      0.1605
     60  C        -30.3700   18.6640  -40.9890 C.2   312  TRP312      0.2264
     61  O        -30.6710   17.4850  -40.8300 O.2   312  TRP312     -0.2867
     62  CB       -28.4800   19.8330  -39.8280 C.3   312  TRP312      0.0550
     63  CG       -28.5800   19.0230  -38.5670 C.ar  312  TRP312      0.0003
     64  CD1      -29.5150   19.1520  -37.5810 C.ar  312  TRP312      0.0946
     65  CD2      -27.7230   17.9370  -38.1710 C.ar  312  TRP312      0.0152
     66  NE1      -29.2640   18.2480  -36.5700 N.ar  312  TRP312     -0.2442
     67  CE2      -28.1690   17.4920  -36.9040 C.ar  312  TRP312      0.0810
     68  CE3      -26.6030   17.3120  -38.7520 C.ar  312  TRP312      0.0012
     69  CZ2      -27.5510   16.4350  -36.2200 C.ar  312  TRP312      0.0191
     70  CZ3      -25.9890   16.2670  -38.0690 C.ar  312  TRP312      0.0001
     71  CH2      -26.4600   15.8410  -36.8180 C.ar  312  TRP312      0.0015
     72  N        -32.0140    6.5800  -42.9440 N.3   318  TRP318     -0.1241
     73  CA       -30.9230    5.6990  -42.5060 C.3   318  TRP318      0.1605
     74  C        -31.2620    4.2300  -42.5450 C.2   318  TRP318      0.2264
     75  O        -32.4270    3.8390  -42.3860 O.2   318  TRP318     -0.2867
     76  CB       -30.5230    6.0490  -41.0460 C.3   318  TRP318      0.0550
     77  CG       -29.7570    7.3360  -40.9150 C.ar  318  TRP318      0.0003
     78  CD1      -29.4970    8.2520  -41.8960 C.ar  318  TRP318      0.0946
     79  CD2      -29.1130    7.8170  -39.7380 C.ar  318  TRP318      0.0152
     80  NE1      -28.7170    9.2630  -41.4020 N.ar  318  TRP318     -0.2442
     81  CE2      -28.4710    9.0270  -40.0770 C.ar  318  TRP318      0.0810
     82  CE3      -29.0170    7.3420  -38.4120 C.ar  318  TRP318      0.0012
     83  CZ2      -27.7280    9.7650  -39.1480 C.ar  318  TRP318      0.0191
     84  CZ3      -28.3260    8.1050  -37.4860 C.ar  318  TRP318      0.0001
     85  CH2      -27.6740    9.2880  -37.8640 C.ar  318  TRP318      0.0015
     86  N        -29.3610    0.8180  -40.7140 N.3   320  ASN320     -0.1240
     87  CA       -28.3070    0.2830  -39.8670 C.3   320  ASN320      0.1653
     88  C        -28.5170   -1.2160  -39.7520 C.2   320  ASN320      0.2266
     89  O        -29.5710   -1.6800  -39.3060 O.2   320  ASN320     -0.2867
     90  CB       -28.3280    0.9540  -38.4960 C.3   320  ASN320      0.1155
     91  CG       -28.0540    2.4340  -38.5940 C.2   320  ASN320      0.2627
     92  OD1      -26.9160    2.8620  -38.6950 O.2   320  ASN320     -0.2716
     93  ND2      -29.0870    3.2410  -38.6450 N.am  320  ASN320     -0.0877
     94  N        -22.2350    9.1360  -45.3570 N.3   349  PRO349     -0.2116
     95  CA       -21.2520    8.1030  -44.9390 C.3   349  PRO349      0.1372
     96  C        -21.8040    6.6780  -44.8470 C.2   349  PRO349      0.2244
     97  O        -22.9800    6.4530  -44.5260 O.2   349  PRO349     -0.2868
     98  CB       -20.7520    8.5810  -43.5720 C.3   349  PRO349      0.0268
     99  CG       -21.6670    9.7070  -43.1570 C.3   349  PRO349      0.0207
    100  CD       -22.4160   10.1970  -44.3420 C.3   349  PRO349      0.0892
    101  N        -20.6260    3.5580  -42.7700 N.3   351  LEU351     -0.1245
    102  CA       -19.7370    3.0340  -41.7310 C.3   351  LEU351      0.1561
    103  C        -19.7510    1.5240  -41.7430 C.2   351  LEU351      0.2260
    104  O        -20.7810    0.9130  -42.0160 O.2   351  LEU351     -0.2867
    105  CB       -20.0930    3.5530  -40.2990 C.3   351  LEU351      0.0270
    106  CG       -20.2720    5.0890  -40.1530 C.3   351  LEU351      0.0019
    107  CD1      -20.3350    5.4900  -38.6960 C.3   351  LEU351      0.0001
    108  CD2      -19.1520    5.8710  -40.8360 C.3   351  LEU351      0.0001
    109  N        -17.7670   -1.7280  -39.4580 N.3   353  TYR353     -0.1241
    110  CA       -16.8010   -2.2440  -38.4960 C.3   353  TYR353      0.1605
    111  C        -17.3290   -3.4390  -37.7340 C.2   353  TYR353      0.2264
    112  O        -18.5180   -3.4990  -37.4490 O.2   353  TYR353     -0.2867
    113  CB       -16.2510   -1.1570  -37.5430 C.3   353  TYR353      0.0534
    114  CG       -17.3160   -0.4660  -36.7330 C.ar  353  TYR353     -0.0201
    115  CD1      -17.9530    0.6800  -37.2130 C.ar  353  TYR353     -0.0009
    116  CD2      -17.6620   -0.9290  -35.4640 C.ar  353  TYR353     -0.0009
    117  CE1      -18.9010    1.3550  -36.4380 C.ar  353  TYR353      0.0417
    118  CE2      -18.6340   -0.2930  -34.7040 C.ar  353  TYR353      0.0417
    119  CZ       -19.2210    0.8710  -35.1750 C.ar  353  TYR353      0.1957
    120  OH       -20.1490    1.4900  -34.3810 O.3   353  TYR353     -0.2866
    121  N        -21.3200   -3.8580  -37.9390 N.3   376  LEU376     -0.1245
    122  CA       -22.3380   -2.8590  -38.1080 C.3   376  LEU376      0.1561
    123  C        -22.0540   -2.2590  -39.4890 C.2   376  LEU376      0.2260
    124  O        -20.9110   -1.9160  -39.7890 O.2   376  LEU376     -0.2867
    125  CB       -22.2710   -1.7590  -37.0510 C.3   376  LEU376      0.0270
    126  CG       -23.0780   -0.5160  -37.3990 C.3   376  LEU376      0.0019
    127  CD1      -24.6050   -0.7810  -37.3580 C.3   376  LEU376      0.0001
    128  CD2      -22.6490    0.6200  -36.5650 C.3   376  LEU376      0.0001
    129  N        -23.5770    0.9160  -41.4960 N.3   378  ALA378     -0.1245
    130  CA       -24.4990    2.0330  -41.2460 C.3   378  ALA378      0.1562
    131  C        -24.5310    2.9450  -42.4530 C.2   378  ALA378      0.2260
    132  O        -23.5020    3.5100  -42.8130 O.2   378  ALA378     -0.2867
    133  CB       -24.0470    2.8030  -40.0020 C.3   378  ALA378      0.0290
    134  N        -25.6540    6.1610  -43.4470 N.3   380  LEU380     -0.1245
    135  CA       -26.0600    7.4080  -42.7940 C.3   380  LEU380      0.1561
    136  C        -26.4040    8.4600  -43.8200 C.2   380  LEU380      0.2260
    137  O        -25.7400    9.4870  -43.9350 O.2   380  LEU380     -0.2867
    138  CB       -24.9990    7.8720  -41.7690 C.3   380  LEU380      0.0270
    139  CG       -24.4960    6.7590  -40.7950 C.3   380  LEU380      0.0019
    140  CD1      -23.3870    7.2950  -39.9140 C.3   380  LEU380      0.0001
    141  CD2      -25.6230    6.2310  -39.9400 C.3   380  LEU380      0.0001
    142  N        -30.4800   -2.7510  -36.8580 N.3   415  TYR415     -0.1227
    143  CA       -30.2500   -2.0540  -35.6040 C.3   415  TYR415      0.1736
    144  C        -31.1820   -0.8270  -35.7550 C.2   415  TYR415      0.2595
    145  O        -31.3240   -0.3160  -36.8720 O.2   415  TYR415     -0.2718
    146  CB       -28.7610   -1.6720  -35.4460 C.3   415  TYR415      0.0548
    147  CG       -28.4690   -0.7960  -34.2430 C.ar  415  TYR415     -0.0200
    148  CD1      -28.8470   -1.1880  -32.9590 C.ar  415  TYR415     -0.0009
    149  CD2      -27.7570    0.3940  -34.3800 C.ar  415  TYR415     -0.0009
    150  CE1      -28.5800   -0.3850  -31.8470 C.ar  415  TYR415      0.0417
    151  CE2      -27.5040    1.2180  -33.2780 C.ar  415  TYR415      0.0417
    152  CZ       -27.9080    0.8160  -32.0140 C.ar  415  TYR415      0.1957
    153  OH       -27.6460    1.6100  -30.9250 O.3   415  TYR415     -0.2866
    154  N        -31.8530   -0.3900  -34.6660 N.am  416  LEU416     -0.1980
    155  CA       -32.8640    0.6970  -34.6600 C.3   416  LEU416      0.1596
    156  C        -33.9750    0.2720  -35.6690 C.2   416  LEU416      0.2287
    157  O        -34.2050    0.9620  -36.6660 O.2   416  LEU416     -0.2864
    158  CB       -32.2400    2.0640  -35.0630 C.3   416  LEU416      0.0297
    159  CG       -30.8910    2.4770  -34.4250 C.3   416  LEU416      0.0022
    160  CD1      -30.4230    3.8050  -35.0020 C.3   416  LEU416      0.0001
    161  CD2      -30.9980    2.5840  -32.8940 C.3   416  LEU416      0.0001
@<TRIPOS>BOND
     1    94    95    1
     2    94   100    1
     3    95    96    1
     4    95    98    1
     5    96    97    2
     6   100    99    1
     7   137   136    2
     8   136   135    1
     9    57    55    1
    10    98    99    1
    11   134   135    1
    12    72    73    1
    13   132   131    2
    14   135   138    1
    15   101   102    1
    16    74    73    1
    17    74    75    2
    18    73    76    1
    19    53    52    2
    20   131   130    1
    21    58    59    1
    22    55    56    1
    23    55    54    1
    24   104   103    2
    25    78    80   ar
    26    78    77   ar
    27   138   139    1
    28   103   102    1
    29   102   105    1
    30    51    52    1
    31    51    54    1
    32    51    50    1
    33   129   130    1
    34    80    81   ar
    35   130   133    1
    36    59    60    1
    37    59    62    1
    38    76    77    1
    39    60    61    2
    40    77    79   ar
    41   108   106    1
    42   139   141    1
    43   139   140    1
    44    86    87    1
    45   105   106    1
    46   106   107    1
    47    81    79   ar
    48    81    83   ar
    49    87    88    1
    50    87    90    1
    51    62    63    1
    52   124   123    2
    53    88    89    2
    54    79    82   ar
    55   123   122    1
    56   109   110    1
    57    48    47    2
    58    83    85   ar
    59    68    65   ar
    60    68    70   ar
    61    92    91    2
    62    93    91   am
    63    32    31    2
    64    91    90    1
    65    49    46    1
    66    63    65   ar
    67    63    64   ar
    68   110   111    1
    69   110   113    1
    70    82    84   ar
    71    31    30    1
    72    47    46    1
    73    46    45    1
    74    65    67   ar
    75   122   121    1
    76   122   125    1
    77    70    71   ar
    78    85    84   ar
    79   111   112    2
    80    64    66   ar
    81   113   114    1
    82   126   127    1
    83   126   125    1
    84   126   128    1
    85   115   114   ar
    86   115   117   ar
    87    30    33    1
    88    30    29    1
    89    67    66   ar
    90    67    69   ar
    91   145   144    2
    92   142   143    1
    93    71    69   ar
    94   114   116   ar
    95    33    34    1
    96   157   156    2
    97   117   119   ar
    98    37    35   ar
    99   144   143    1
   100   144   154   am
   101   156   155    1
   102   143   146    1
   103    41    40    2
   104    43    42    1
   105    34    35    1
   106   116   118   ar
   107   146   147    1
   108    35    36   ar
   109     8     6   ar
   110   119   118   ar
   111   119   120    1
   112    44    42    1
   113   158   155    1
   114   158   159    1
   115   160   159    1
   116    39    42    1
   117    39    40    1
   118    39    38    1
   119   154   155    1
   120   159   161    1
   121   149   147   ar
   122   149   151   ar
   123   147   148   ar
   124     6     5    1
   125     6     7   ar
   126     5     2    1
   127    28    26    1
   128   151   152   ar
   129   148   150   ar
   130    17    15   ar
   131    17    19   ar
   132    15    14   ar
   133    26    25    1
   134    19    20    1
   135    19    18   ar
   136    13    14    1
   137    13    10    1
   138    14    16   ar
   139     2     3    1
   140     2     1    1
   141     4     3    2
   142   152   150   ar
   143   152   153    1
   144    18    16   ar
   145     3     9   am
   146     9    10    1
   147    10    11    1
   148    24    23    2
   149    25    27    1
   150    25    22    1
   151    23    22    1
   152    22    21    1
   153    11    12    2
