@<TRIPOS>MOLECULE
tmp/5hqzA01.pdb
 150 144 0 0 0
SMALL
GASTEIGER

@<TRIPOS>ATOM
      1  N         22.0720   12.2540    1.6470 N.3     7  ILE7       -0.1231
      2  CA        21.4570   11.4120    2.6290 C.3     7  ILE7        0.1692
      3  C         21.5400    9.9800    2.0270 C.2     7  ILE7        0.2592
      4  O         21.2510    9.7790    0.8650 O.2     7  ILE7       -0.2718
      5  CB        19.9690   11.8280    2.9570 C.3     7  ILE7        0.0266
      6  CG1       19.3510   10.9250    4.0380 C.3     7  ILE7        0.0019
      7  CG2       19.0800   11.9080    1.7070 C.3     7  ILE7        0.0020
      8  CD1       18.1850   11.6230    4.7160 C.3     7  ILE7        0.0001
      9  N         21.8700    9.0220    2.9180 N.am    8  VAL8       -0.1966
     10  CA        22.0340    7.6100    2.4850 C.3     8  VAL8        0.1727
     11  C         21.7340    6.6940    3.7120 C.2     8  VAL8        0.2616
     12  O         21.8770    7.1420    4.8580 O.2     8  VAL8       -0.2715
     13  CB        23.5110    7.3800    2.0420 C.3     8  VAL8        0.0290
     14  CG1       24.5590    7.4860    3.1850 C.3     8  VAL8        0.0023
     15  CG2       23.6320    6.0460    1.2720 C.3     8  VAL8        0.0023
     16  N         21.3580    5.4660    3.4510 N.am    9  ALA9       -0.1977
     17  CA        21.3780    4.3810    4.4490 C.3     9  ALA9        0.1597
     18  C         22.4060    3.4050    3.8880 C.2     9  ALA9        0.2287
     19  O         22.3490    2.9750    2.6870 O.2     9  ALA9       -0.2864
     20  CB        19.9770    3.7600    4.6260 C.3     9  ALA9        0.0319
     21  N         16.9810   -2.0370   -2.1160 N.3    22  LEU22      -0.1245
     22  CA        17.8670   -1.9690   -0.9510 C.3    22  LEU22       0.1561
     23  C         18.3620   -3.3730   -0.5980 C.2    22  LEU22       0.2260
     24  O         17.6870   -4.4120   -0.9340 O.2    22  LEU22      -0.2867
     25  CB        17.1980   -1.2590    0.1950 C.3    22  LEU22       0.0270
     26  CG        16.7760    0.2340    0.0170 C.3    22  LEU22       0.0019
     27  CD1       16.5890    0.8610    1.3740 C.3    22  LEU22       0.0001
     28  CD2       17.7470    1.1130   -0.7230 C.3    22  LEU22       0.0001
     29  N         12.8370    3.9170    8.8910 N.3    30  GLU30      -0.1231
     30  CA        13.9570    4.5360    8.1710 C.3    30  GLU30       0.1699
     31  C         13.4410    5.2810    6.9540 C.2    30  GLU30       0.2592
     32  O         13.9080    6.3950    6.6480 O.2    30  GLU30      -0.2718
     33  CB        14.9590    3.4540    7.7600 C.3    30  GLU30       0.0402
     34  CG        16.4280    3.8950    7.6780 C.3    30  GLU30       0.1161
     35  CD        16.7740    4.8310    6.4730 C.2    30  GLU30       0.3649
     36  OE1       17.4960    5.8450    6.7620 O.co2  30  GLU30      -0.2457
     37  OE2       16.3550    4.5790    5.3570 O.co2  30  GLU30      -0.2457
     38  N         12.5310    4.6900    6.1780 N.am   31  PHE31      -0.1976
     39  CA        11.9210    5.4330    5.1030 C.3    31  PHE31       0.1639
     40  C         11.2080    6.7100    5.6270 C.2    31  PHE31       0.2290
     41  O         11.3000    7.7750    4.9710 O.2    31  PHE31      -0.2864
     42  CB        10.8600    4.6530    4.3140 C.3    31  PHE31       0.0560
     43  CG        11.3940    3.6000    3.3790 C.ar   31  PHE31      -0.0200
     44  CD1       12.1020    3.9230    2.2210 C.ar   31  PHE31      -0.0042
     45  CD2       11.1550    2.2230    3.6640 C.ar   31  PHE31      -0.0042
     46  CE1       12.5860    2.9060    1.3640 C.ar   31  PHE31      -0.0003
     47  CE2       11.6550    1.2250    2.8240 C.ar   31  PHE31      -0.0003
     48  CZ        12.3740    1.5720    1.7050 C.ar   31  PHE31      -0.0000
     49  N         12.0510    8.5190    8.1590 N.3    33  TYR33      -0.1227
     50  CA        13.1430    9.4600    8.4780 C.3    33  TYR33       0.1736
     51  C         13.5930   10.1030    7.1700 C.2    33  TYR33       0.2595
     52  O         13.7910   11.3210    7.0840 O.2    33  TYR33      -0.2718
     53  CB        14.2840    8.6720    9.1920 C.3    33  TYR33       0.0548
     54  CG        15.5630    9.5150    9.3630 C.ar   33  TYR33      -0.0200
     55  CD1       15.6360   10.4330   10.4590 C.ar   33  TYR33      -0.0009
     56  CD2       16.6380    9.4050    8.4550 C.ar   33  TYR33      -0.0009
     57  CE1       16.7630   11.2480   10.6300 C.ar   33  TYR33       0.0417
     58  CE2       17.8040   10.1950    8.7000 C.ar   33  TYR33       0.0417
     59  CZ        17.7980   11.1020    9.7360 C.ar   33  TYR33       0.1957
     60  OH        18.9370   11.8480   10.0480 O.3    33  TYR33      -0.2866
     61  N         13.8700    9.2700    6.1560 N.am   34  PHE34      -0.1962
     62  CA        14.3040    9.8380    4.8770 C.3    34  PHE34       0.1771
     63  C         13.2650   10.8920    4.3630 C.2    34  PHE34       0.2619
     64  O         13.6670   12.0190    3.9040 O.2    34  PHE34      -0.2715
     65  CB        14.4630    8.6890    3.8270 C.3    34  PHE34       0.0574
     66  CG        14.5730    9.1640    2.4180 C.ar   34  PHE34      -0.0200
     67  CD1       15.8030    9.5530    1.9330 C.ar   34  PHE34      -0.0042
     68  CD2       13.4690    9.2030    1.5510 C.ar   34  PHE34      -0.0042
     69  CE1       15.9450   10.0630    0.6520 C.ar   34  PHE34      -0.0003
     70  CE2       13.5890    9.7150    0.2600 C.ar   34  PHE34      -0.0003
     71  CZ        14.8420   10.0780   -0.2460 C.ar   34  PHE34      -0.0000
     72  N         11.9610   10.5280    4.4170 N.am   35  GLN35      -0.1977
     73  CA        10.9280   11.4460    3.8770 C.3    35  GLN35       0.1601
     74  C         10.9490   12.7530    4.7310 C.2    35  GLN35       0.2287
     75  O         10.9150   13.8570    4.1370 O.2    35  GLN35      -0.2864
     76  CB         9.6010   10.7360    4.0540 C.3    35  GLN35       0.0394
     77  CG         8.4730   11.6550    3.8380 C.3    35  GLN35       0.0908
     78  CD         7.1030   10.9370    3.7810 C.2    35  GLN35       0.2608
     79  OE1        6.2360   11.2810    2.9050 O.2    35  GLN35      -0.2717
     80  NE2        6.8810    9.9600    4.7060 N.am   35  GLN35      -0.0878
     81  N         18.4670    5.4260   -9.3940 N.3    56  THR56      -0.1218
     82  CA        17.7430    5.7120   -8.1350 C.3    56  THR56       0.1862
     83  C         16.3000    6.1330   -8.3430 C.2    56  THR56       0.2287
     84  O         15.4100    5.6200   -7.6460 O.2    56  THR56      -0.2866
     85  CB        18.5180    6.7740   -7.2990 C.3    56  THR56       0.1770
     86  OG1       19.7840    6.1770   -6.9130 O.3    56  THR56      -0.2211
     87  CG2       17.8550    7.0810   -6.0130 C.3    56  THR56       0.0375
     88  N         14.2980    3.1110   -8.9900 N.3    59  SER59      -0.1202
     89  CA        14.2450    2.2310   -7.8120 C.3    59  SER59       0.2020
     90  C         13.1390    2.6140   -6.8340 C.2    59  SER59       0.2619
     91  O         12.6830    1.8290   -5.9950 O.2    59  SER59      -0.2717
     92  CB        15.5860    2.2050   -7.0940 C.3    59  SER59       0.2103
     93  OG        15.7970    3.3350   -6.2210 O.3    59  SER59      -0.2182
     94  N         12.6290    3.8290   -6.9650 N.am   60  ILE60      -0.1966
     95  CA        11.5490    4.2360   -6.0280 C.3    60  ILE60       0.1712
     96  C         10.2620    3.7000   -6.6280 C.2    60  ILE60       0.2458
     97  O         10.0320    3.8810   -7.8180 O.2    60  ILE60      -0.2730
     98  CB        11.5020    5.8090   -5.9610 C.3    60  ILE60       0.0289
     99  CG1       12.7900    6.3650   -5.3760 C.3    60  ILE60       0.0022
    100  CG2       10.3060    6.2410   -5.1270 C.3    60  ILE60       0.0023
    101  CD1       13.0050    7.8880   -5.6420 C.3    60  ILE60       0.0001
    102  N          9.4000    3.0720   -5.7890 N.am   61  PRO61      -0.2727
    103  CA         8.1590    2.4950   -6.3100 C.3    61  PRO61       0.1402
    104  C          7.4290    3.6340   -7.0170 C.2    61  PRO61       0.2269
    105  O          7.3590    4.7700   -6.4380 O.2    61  PRO61      -0.2865
    106  CB         7.4300    2.0320   -5.0590 C.3    61  PRO61       0.0296
    107  CG         8.5280    1.7540   -4.0410 C.3    61  PRO61       0.0237
    108  CD         9.6440    2.7470   -4.3700 C.3    61  PRO61       0.0939
    109  N          5.3300    6.2190   -5.3210 N.3    64  ASN64      -0.1240
    110  CA         5.9960    7.1410   -4.3790 C.3    64  ASN64       0.1653
    111  C          6.7130    8.1980   -5.1690 C.2    64  ASN64       0.2266
    112  O          7.4120    9.0370   -4.5680 O.2    64  ASN64      -0.2867
    113  CB         6.9920    6.4130   -3.4760 C.3    64  ASN64       0.1155
    114  CG         6.2980    5.5570   -2.4380 C.2    64  ASN64       0.2627
    115  OD1        5.2350    5.9330   -1.9260 O.2    64  ASN64      -0.2716
    116  ND2        6.8670    4.4050   -2.1420 N.am   64  ASN64      -0.0877
    117  N          8.9000   12.0480   -5.4250 N.3    67  LEU67      -0.1245
    118  CA         8.9160   12.2250   -3.9580 C.3    67  LEU67       0.1561
    119  C          8.0450   13.4670   -3.5560 C.2    67  LEU67       0.2260
    120  O          8.4120   14.5840   -3.9570 O.2    67  LEU67      -0.2867
    121  CB        10.3640   12.3080   -3.4650 C.3    67  LEU67       0.0270
    122  CG        11.1200   10.9230   -3.6690 C.3    67  LEU67       0.0019
    123  CD1       12.5240   11.1690   -3.2010 C.3    67  LEU67       0.0001
    124  CD2       10.4660    9.7660   -2.9450 C.3    67  LEU67       0.0001
    125  N         20.2040   12.2440   -3.1080 N.3   115  VAL115     -0.1301
    126  CA        19.6480   11.0080   -2.5250 C.3   115  VAL115      0.1246
    127  C         20.1430    9.7260   -3.2370 C.3   115  VAL115      0.2009
    128  O         19.5850    8.6740   -2.8210 O.3   115  VAL115     -0.2188
    129  CB        18.1090   11.0180   -2.4430 C.3   115  VAL115      0.0202
    130  CG1       17.5770   12.3080   -1.7600 C.3   115  VAL115      0.0016
    131  CG2       17.4150   10.9830   -3.8470 C.3   115  VAL115      0.0016
    132  N         26.8800   10.5910   -5.2860 N.3   121  TYR121     -0.1241
    133  CA        27.4810   10.8080   -3.9470 C.3   121  TYR121      0.1605
    134  C         28.9860   11.1020   -4.0470 C.2   121  TYR121      0.2264
    135  O         29.4900   12.0280   -3.3720 O.2   121  TYR121     -0.2867
    136  CB        27.2880    9.5620   -3.1000 C.3   121  TYR121      0.0534
    137  CG        25.9100    9.2460   -2.6110 C.ar  121  TYR121     -0.0201
    138  CD1       25.0820   10.2350   -2.0060 C.ar  121  TYR121     -0.0009
    139  CD2       25.4590    7.9140   -2.6920 C.ar  121  TYR121     -0.0009
    140  CE1       23.8640    9.8880   -1.4670 C.ar  121  TYR121      0.0417
    141  CE2       24.1920    7.5910   -2.2200 C.ar  121  TYR121      0.0417
    142  CZ        23.4260    8.5690   -1.6030 C.ar  121  TYR121      0.1957
    143  OH        22.2410    8.1650   -1.0630 O.3   121  TYR121     -0.2866
    144  N         22.5530    6.8280    7.6090 N.3   136  THR136     -0.1218
    145  CA        21.9870    5.8420    8.5360 C.3   136  THR136      0.1862
    146  C         22.8780    4.6110    8.4510 C.2   136  THR136      0.2287
    147  O         23.0230    4.0250    7.3380 O.2   136  THR136     -0.2866
    148  CB        20.6080    5.4490    8.0820 C.3   136  THR136      0.1770
    149  OG1       19.7520    6.6270    8.0290 O.3   136  THR136     -0.2211
    150  CG2       20.0650    4.3800    9.1040 C.3   136  THR136      0.0375
@<TRIPOS>BOND
     1    81    82    1
     2    88    89    1
     3    83    82    1
     4    83    84    2
     5    82    85    1
     6    97    96    2
     7    89    92    1
     8    89    90    1
     9    85    86    1
    10    85    87    1
    11    92    93    1
    12   104   105    2
    13   104   103    1
    14    94    90   am
    15    94    95    1
    16    90    91    2
    17    96    95    1
    18    96   102   am
    19   103   102    1
    20   103   106    1
    21    95    98    1
    22    98    99    1
    23    98   100    1
    24   102   108    1
    25   101    99    1
    26   117   118    1
    27   109   110    1
    28   132   133    1
    29   111   112    2
    30   111   110    1
    31   106   107    1
    32   110   113    1
    33   108   107    1
    34   134   133    1
    35   134   135    2
    36   118   119    1
    37   118   121    1
    38   120   119    2
    39   133   136    1
    40   131   129    1
    41   122   121    1
    42   122   123    1
    43   122   124    1
    44   113   114    1
    45   127   128    1
    46   127   126    1
    47   125   126    1
    48   136   137    1
    49   139   137   ar
    50   139   141   ar
    51   137   138   ar
    52   126   129    1
    53   129   130    1
    54   114   116   am
    55   114   115    2
    56   141   142   ar
    57    21    22    1
    58   138   140   ar
    59   142   140   ar
    60   142   143    1
    61    22    23    1
    62    22    25    1
    63    24    23    2
    64    28    26    1
    65    71    70   ar
    66    71    69   ar
    67    26    25    1
    68    26    27    1
    69    70    68   ar
    70    69    67   ar
    71     4     3    2
    72    15    13    1
    73    46    48   ar
    74    46    44   ar
    75    68    66   ar
    76     1     2    1
    77    48    47   ar
    78     7     5    1
    79    67    66   ar
    80     3     2    1
    81     3     9   am
    82    13    10    1
    83    13    14    1
    84    44    43   ar
    85    66    65    1
    86    10     9    1
    87    10    11    1
    88     2     5    1
    89    19    18    2
    90    47    45   ar
    91    79    78    2
    92     5     6    1
    93    43    45   ar
    94    43    42    1
    95    16    11   am
    96    16    17    1
    97    11    12    2
    98    78    77    1
    99    78    80   am
   100    65    62    1
   101    77    76    1
   102    73    76    1
   103    73    72    1
   104    73    74    1
   105    18    17    1
   106    64    63    2
   107     6     8    1
   108    75    74    2
   109    42    39    1
   110    63    72   am
   111    63    62    1
   112    17    20    1
   113    62    61    1
   114    41    40    2
   115    39    40    1
   116    39    38    1
   117    37    35   ar
   118    61    51   am
   119    38    31   am
   120    35    36   ar
   121    35    34    1
   122    32    31    2
   123    31    30    1
   124    52    51    2
   125    51    50    1
   126   147   146    2
   127   144   145    1
   128    34    33    1
   129    33    30    1
   130   149   148    1
   131   148   145    1
   132   148   150    1
   133    49    50    1
   134    30    29    1
   135   146   145    1
   136    56    58   ar
   137    56    54   ar
   138    50    53    1
   139    58    59   ar
   140    53    54    1
   141    54    55   ar
   142    59    60    1
   143    59    57   ar
   144    55    57   ar
