@<TRIPOS>MOLECULE
tmp/5hr4D00.pdb
 225 221 0 0 0
SMALL
GASTEIGER

@<TRIPOS>ATOM
      1  N          3.3700  -12.8230  -38.0420 N.3   144  PHE144     -0.1241
      2  CA         4.2160  -13.9990  -37.8790 C.3   144  PHE144      0.1605
      3  C          5.2380  -14.1080  -38.9980 C.2   144  PHE144      0.2264
      4  O          6.3480  -14.6070  -38.7790 O.2   144  PHE144     -0.2867
      5  CB         3.3030  -15.2320  -37.7620 C.3   144  PHE144      0.0534
      6  CG         3.7270  -16.4350  -38.5600 C.ar  144  PHE144     -0.0203
      7  CD1        4.7590  -17.2410  -38.1290 C.ar  144  PHE144     -0.0042
      8  CD2        3.0100  -16.8190  -39.6910 C.ar  144  PHE144     -0.0042
      9  CE1        5.1190  -18.3720  -38.8470 C.ar  144  PHE144     -0.0003
     10  CE2        3.3730  -17.9490  -40.4230 C.ar  144  PHE144     -0.0003
     11  CZ         4.4160  -18.7260  -39.9980 C.ar  144  PHE144     -0.0000
     12  N         11.3630  -22.8870  -43.5440 N.3   156  LEU156     -0.1231
     13  CA        10.2740  -23.4440  -42.7500 C.3   156  LEU156      0.1693
     14  C          8.9210  -23.2490  -43.4130 C.2   156  LEU156      0.2593
     15  O          7.8970  -23.5390  -42.7960 O.2   156  LEU156     -0.2718
     16  CB        10.2200  -22.8090  -41.3520 C.3   156  LEU156      0.0284
     17  CG        11.4680  -22.7450  -40.4920 C.3   156  LEU156      0.0019
     18  CD1       11.1360  -22.0890  -39.1780 C.3   156  LEU156      0.0001
     19  CD2       12.0020  -24.1410  -40.2770 C.3   156  LEU156      0.0001
     20  N          8.8860  -22.7450  -44.6380 N.am  157  GLY157     -0.1942
     21  CA         7.6020  -22.4700  -45.2500 C.3   157  GLY157      0.2014
     22  C          6.7080  -21.5850  -44.4100 C.2   157  GLY157      0.2639
     23  O          5.4860  -21.7820  -44.3920 O.2   157  GLY157     -0.2714
     24  N          7.2820  -20.6020  -43.7200 N.am  158  ALA158     -0.1963
     25  CA         6.4680  -19.6800  -42.9280 C.3   158  ALA158      0.1728
     26  C          5.7680  -18.7000  -43.8650 C.2   158  ALA158      0.2616
     27  O          6.1780  -17.5470  -44.0350 O.2   158  ALA158     -0.2715
     28  CB         7.3140  -18.9470  -41.9000 C.3   158  ALA158      0.0334
     29  N          4.6920  -19.1820  -44.4890 N.am  159  HIS159     -0.1959
     30  CA         3.7810  -18.3400  -45.2540 C.3   159  HIS159      0.1787
     31  C          2.3690  -18.6260  -44.7880 C.2   159  HIS159      0.2620
     32  O          1.9520  -19.7880  -44.7470 O.2   159  HIS159     -0.2715
     33  CB         3.8710  -18.5690  -46.7760 C.3   159  HIS159      0.0785
     34  CG         5.1680  -18.1240  -47.3660 C.ar  159  HIS159      0.0821
     35  ND1        6.3210  -18.8770  -47.2890 N.ar  159  HIS159     -0.2267
     36  CD2        5.5030  -16.9840  -48.0130 C.ar  159  HIS159      0.1154
     37  CE1        7.3020  -18.2300  -47.8840 C.ar  159  HIS159      0.1986
     38  NE2        6.8350  -17.0750  -48.3230 N.ar  159  HIS159     -0.2212
     39  N          1.6440  -17.5740  -44.4410 N.am  160  TYR160     -0.1960
     40  CA         0.3150  -17.7610  -43.8930 C.3   160  TYR160      0.1771
     41  C         -0.6910  -17.9810  -45.0240 C.2   160  TYR160      0.2620
     42  O         -0.5530  -17.4440  -46.1290 O.2   160  TYR160     -0.2715
     43  CB        -0.0720  -16.5630  -43.0220 C.3   160  TYR160      0.0574
     44  CG        -0.8080  -15.4570  -43.7390 C.ar  160  TYR160     -0.0198
     45  CD1       -2.1830  -15.5620  -43.9750 C.ar  160  TYR160     -0.0009
     46  CD2       -0.1500  -14.2940  -44.1530 C.ar  160  TYR160     -0.0009
     47  CE1       -2.8840  -14.5730  -44.6380 C.ar  160  TYR160      0.0417
     48  CE2       -0.8500  -13.2750  -44.8080 C.ar  160  TYR160      0.0417
     49  CZ        -2.2260  -13.4350  -45.0460 C.ar  160  TYR160      0.1957
     50  OH        -2.9680  -12.4770  -45.6930 O.3   160  TYR160     -0.2866
     51  N         -1.7190  -18.7680  -44.7260 N.am  161  THR161     -0.1951
     52  CA        -2.7250  -19.1370  -45.7060 C.3   161  THR161      0.1897
     53  C         -3.8770  -18.1390  -45.7230 C.2   161  THR161      0.2313
     54  O         -4.4150  -17.7800  -44.6740 O.2   161  THR161     -0.2863
     55  CB        -3.2340  -20.5410  -45.4090 C.3   161  THR161      0.1794
     56  OG1       -2.1030  -21.4100  -45.2170 O.3   161  THR161     -0.2208
     57  CG2       -4.0770  -21.0430  -46.5860 C.3   161  THR161      0.0378
     58  N         -4.5700  -29.3930  -36.6290 N.3   206  ASP206     -0.1239
     59  CA        -3.6850  -28.8520  -37.6600 C.3   206  ASP206      0.1674
     60  C         -2.2260  -29.0470  -37.2670 C.2   206  ASP206      0.2266
     61  O         -1.6770  -28.2350  -36.5040 O.2   206  ASP206     -0.2867
     62  CB        -3.9930  -27.3680  -37.8920 C.3   206  ASP206      0.1410
     63  CG        -3.1160  -26.7330  -38.9940 C.2   206  ASP206      0.3668
     64  OD1       -2.2780  -27.4470  -39.6220 O.co2 206  ASP206     -0.2456
     65  OD2       -3.2850  -25.4980  -39.2370 O.co2 206  ASP206     -0.2456
     66  N          1.4480  -28.3860  -38.2260 N.3   208  ALA208     -0.1231
     67  CA         2.0150  -27.2960  -39.0190 C.3   208  ALA208      0.1694
     68  C          1.0750  -26.0950  -39.0670 C.2   208  ALA208      0.2592
     69  O          0.9490  -25.4490  -40.1120 O.2   208  ALA208     -0.2718
     70  CB         2.3870  -27.7570  -40.4350 C.3   208  ALA208      0.0304
     71  N          0.4880  -25.7310  -37.9180 N.am  209  CYS209     -0.1956
     72  CA        -0.6180  -24.7800  -37.8750 C.3   209  CYS209      0.1843
     73  C         -0.2050  -23.3270  -38.0860 C.2   209  CYS209      0.2626
     74  O         -1.0850  -22.4670  -38.2080 O.2   209  CYS209     -0.2714
     75  CB        -1.3680  -24.8980  -36.5450 C.3   209  CYS209      0.0997
     76  SG        -0.4390  -24.4440  -35.0670 S.3   209  CYS209     -0.0797
     77  N          1.0870  -23.0170  -38.1210 N.am  210  GLY210     -0.1940
     78  CA         1.4610  -21.6180  -38.2450 C.3   210  GLY210      0.2014
     79  C          0.8630  -20.7830  -37.1290 C.2   210  GLY210      0.2639
     80  O          0.7340  -21.2290  -35.9870 O.2   210  GLY210     -0.2714
     81  N          0.4440  -19.5670  -37.4770 N.am  211  CYS211     -0.1967
     82  CA        -0.2250  -18.6520  -36.5610 C.3   211  CYS211      0.1712
     83  C         -1.6830  -19.0250  -36.2740 C.2   211  CYS211      0.2296
     84  O         -2.3770  -18.2650  -35.5820 O.2   211  CYS211     -0.2864
     85  CB        -0.1730  -17.2280  -37.1170 C.3   211  CYS211      0.0983
     86  SG        -1.3320  -17.0030  -38.4820 S.3   211  CYS211     -0.0798
     87  N         -4.4790  -20.0330  -38.4230 N.3   213  ASN213     -0.1225
     88  CA        -5.6000  -19.5330  -39.2120 C.3   213  ASN213      0.1785
     89  C         -6.6290  -20.6100  -39.5540 C.2   213  ASN213      0.2597
     90  O         -7.8210  -20.3000  -39.6690 O.2   213  ASN213     -0.2718
     91  CB        -5.0800  -18.8790  -40.4890 C.3   213  ASN213      0.1169
     92  CG        -4.4530  -17.5220  -40.2330 C.2   213  ASN213      0.2627
     93  OD1       -4.9740  -16.7260  -39.4610 O.2   213  ASN213     -0.2716
     94  ND2       -3.3220  -17.2580  -40.8810 N.am  213  ASN213     -0.0877
     95  N         -6.2200  -21.8620  -39.7680 N.am  214  PHE214     -0.1976
     96  CA        -7.2550  -22.8420  -40.0850 C.3   214  PHE214      0.1639
     97  C         -8.1310  -23.0940  -38.8800 C.2   214  PHE214      0.2290
     98  O         -9.3340  -23.3490  -39.0290 O.2   214  PHE214     -0.2864
     99  CB        -6.6600  -24.1520  -40.5780 C.3   214  PHE214      0.0560
    100  CG        -6.1980  -24.1260  -42.0180 C.ar  214  PHE214     -0.0200
    101  CD1       -4.9450  -23.6500  -42.3430 C.ar  214  PHE214     -0.0042
    102  CD2       -6.9980  -24.6380  -43.0420 C.ar  214  PHE214     -0.0042
    103  CE1       -4.4900  -23.6690  -43.6590 C.ar  214  PHE214     -0.0003
    104  CE2       -6.5440  -24.6530  -44.3680 C.ar  214  PHE214     -0.0003
    105  CZ        -5.2900  -24.1560  -44.6710 C.ar  214  PHE214     -0.0000
    106  N          3.1360  -26.8810  -34.0430 N.3   258  GLU258     -0.1231
    107  CA         3.8260  -25.8030  -34.7350 C.3   258  GLU258      0.1699
    108  C          5.2280  -25.6930  -34.1590 C.2   258  GLU258      0.2592
    109  O          5.4020  -25.5610  -32.9390 O.2   258  GLU258     -0.2718
    110  CB         3.0600  -24.4830  -34.6030 C.3   258  GLU258      0.0402
    111  CG         3.8000  -23.2250  -35.0450 C.3   258  GLU258      0.1161
    112  CD         4.5690  -23.3720  -36.3620 C.2   258  GLU258      0.3649
    113  OE1        3.9280  -23.4230  -37.4430 O.co2 258  GLU258     -0.2457
    114  OE2        5.8210  -23.4220  -36.3160 O.co2 258  GLU258     -0.2457
    115  N          6.2170  -25.7420  -35.0430 N.am  259  ILE259     -0.1966
    116  CA         7.5870  -25.9290  -34.5980 C.3   259  ILE259      0.1727
    117  C          8.1530  -24.6650  -33.9720 C.2   259  ILE259      0.2616
    118  O          9.0170  -24.7500  -33.0990 O.2   259  ILE259     -0.2715
    119  CB         8.4290  -26.4340  -35.7830 C.3   259  ILE259      0.0290
    120  CG1        9.6800  -27.1710  -35.2970 C.3   259  ILE259      0.0022
    121  CG2        8.7430  -25.3060  -36.7440 C.3   259  ILE259      0.0023
    122  CD1       10.4450  -27.8110  -36.4150 C.3   259  ILE259      0.0001
    123  N          7.6740  -23.4850  -34.3640 N.am  260  GLU260     -0.1977
    124  CA         8.2300  -22.2220  -33.8890 C.3   260  GLU260      0.1602
    125  C          7.3300  -21.6380  -32.8040 C.2   260  GLU260      0.2287
    126  O          6.1250  -21.4620  -33.0210 O.2   260  GLU260     -0.2864
    127  CB         8.3990  -21.2270  -35.0420 C.3   260  GLU260      0.0415
    128  CG         9.6040  -21.4750  -35.9220 C.3   260  GLU260      0.1163
    129  CD        10.9560  -21.1800  -35.2300 C.2   260  GLU260      0.3649
    130  OE1       11.1840  -20.0240  -34.8010 O.co2 260  GLU260     -0.2457
    131  OE2       11.7970  -22.1050  -35.1210 O.co2 260  GLU260     -0.2457
    132  N          4.6580  -18.3680  -33.5330 N.3   263  PRO263     -0.2116
    133  CA         3.3500  -18.6950  -34.1160 C.3   263  PRO263      0.1372
    134  C          2.5330  -19.5950  -33.2210 C.2   263  PRO263      0.2244
    135  O          1.3090  -19.4330  -33.1500 O.2   263  PRO263     -0.2868
    136  CB         3.6880  -19.3700  -35.4560 C.3   263  PRO263      0.0268
    137  CG         5.1260  -19.6600  -35.4330 C.3   263  PRO263      0.0207
    138  CD         5.7690  -18.7280  -34.4360 C.3   263  PRO263      0.0892
    139  N          6.0470  -28.0360  -30.9550 N.3   304  ALA304     -0.1231
    140  CA         6.9210  -29.1800  -31.1430 C.3   304  ALA304      0.1694
    141  C          7.0900  -29.4050  -32.6360 C.2   304  ALA304      0.2592
    142  O          6.7220  -28.5610  -33.4600 O.2   304  ALA304     -0.2718
    143  CB         6.3730  -30.4210  -30.4340 C.3   304  ALA304      0.0304
    144  N          7.6510  -30.5490  -32.9810 N.am  305  ASN305     -0.1960
    145  CA         8.0280  -30.8810  -34.3460 C.3   305  ASN305      0.1819
    146  C          7.1200  -32.0250  -34.7590 C.2   305  ASN305      0.2621
    147  O          7.2540  -33.1420  -34.2490 O.2   305  ASN305     -0.2715
    148  CB         9.5070  -31.2650  -34.4070 C.3   305  ASN305      0.1195
    149  CG        10.0090  -31.4970  -35.8230 C.2   305  ASN305      0.2630
    150  OD1        9.4430  -32.2690  -36.5940 O.2   305  ASN305     -0.2716
    151  ND2       11.1010  -30.8400  -36.1610 N.am  305  ASN305     -0.0877
    152  N          6.1900  -31.7440  -35.6660 N.am  306  ALA306     -0.1963
    153  CA         5.1200  -32.6980  -35.9290 C.3   306  ALA306      0.1728
    154  C          5.6230  -34.0060  -36.5330 C.2   306  ALA306      0.2616
    155  O          4.9520  -35.0340  -36.3890 O.2   306  ALA306     -0.2715
    156  CB         4.0710  -32.0550  -36.8300 C.3   306  ALA306      0.0334
    157  N          6.8010  -34.0060  -37.1660 N.am  307  LEU307     -0.1977
    158  CA         7.3320  -35.2240  -37.7740 C.3   307  LEU307      0.1596
    159  C          7.9670  -36.1880  -36.7700 C.2   307  LEU307      0.2287
    160  O          8.0940  -37.3810  -37.0830 O.2   307  LEU307     -0.2864
    161  CB         8.3430  -34.8450  -38.8630 C.3   307  LEU307      0.0297
    162  CG         7.6260  -33.9870  -39.9200 C.3   307  LEU307      0.0022
    163  CD1        8.5450  -33.4820  -40.9930 C.3   307  LEU307      0.0001
    164  CD2        6.4210  -34.7350  -40.5240 C.3   307  LEU307      0.0001
    165  N         -1.5780  -26.5640  -43.8590 N.3   326  ASN326     -0.1226
    166  CA        -0.8050  -26.1360  -45.0290 C.3   326  ASN326      0.1770
    167  C          0.6700  -26.2940  -44.6860 C.2   326  ASN326      0.2439
    168  O          1.3880  -25.3160  -44.4310 O.2   326  ASN326     -0.2733
    169  CB        -1.1790  -24.6980  -45.4030 C.3   326  ASN326      0.1168
    170  CG        -0.2790  -24.0940  -46.4610 C.2   326  ASN326      0.2627
    171  OD1        0.5070  -24.7800  -47.1180 O.2   326  ASN326     -0.2716
    172  ND2       -0.3970  -22.7800  -46.6310 N.am  326  ASN326     -0.0877
    173  N          1.1520  -27.5330  -44.6710 N.am  327  PRO327     -0.2718
    174  CA         2.5110  -27.8370  -44.1690 C.3   327  PRO327      0.1520
    175  C          3.5770  -27.1820  -45.0290 C.2   327  PRO327      0.2440
    176  O          3.2720  -26.6810  -46.1210 O.2   327  PRO327     -0.2731
    177  CB         2.5840  -29.3690  -44.2620 C.3   327  PRO327      0.0310
    178  CG         1.1090  -29.8380  -44.3970 C.3   327  PRO327      0.0237
    179  CD         0.4130  -28.7250  -45.1160 C.3   327  PRO327      0.0939
    180  N          4.8350  -27.1390  -44.5610 N.am  328  PRO328     -0.2727
    181  CA         5.8860  -26.4660  -45.3350 C.3   328  PRO328      0.1402
    182  C          6.2100  -27.1950  -46.6220 C.2   328  PRO328      0.2269
    183  O          6.2730  -28.4250  -46.6530 O.2   328  PRO328     -0.2865
    184  CB         7.0940  -26.4920  -44.3880 C.3   328  PRO328      0.0296
    185  CG         6.8500  -27.6830  -43.5280 C.3   328  PRO328      0.0237
    186  CD         5.3580  -27.5890  -43.2580 C.3   328  PRO328      0.0939
    187  N         15.5640  -31.8830  -41.4750 N.3   339  GLN339     -0.1245
    188  CA        14.3220  -32.2070  -42.1680 C.3   339  GLN339      0.1566
    189  C         14.4910  -33.3600  -43.1470 C.2   339  GLN339      0.2260
    190  O         13.5390  -34.1290  -43.3230 O.2   339  GLN339     -0.2867
    191  CB        13.7450  -30.9810  -42.8650 C.3   339  GLN339      0.0367
    192  CG        14.7550  -30.1140  -43.5220 C.3   339  GLN339      0.0905
    193  CD        14.2170  -28.7160  -43.7780 C.2   339  GLN339      0.2608
    194  OE1       14.8270  -27.9370  -44.5170 O.2   339  GLN339     -0.2717
    195  NE2       13.0640  -28.3950  -43.1730 N.am  339  GLN339     -0.0878
    196  N         14.0880  -36.0510  -40.8560 N.3   342  ASP342     -0.1239
    197  CA        12.6600  -36.1320  -40.5340 C.3   342  ASP342      0.1674
    198  C         11.8980  -36.8870  -41.6130 C.2   342  ASP342      0.2266
    199  O         11.2100  -37.8770  -41.3390 O.2   342  ASP342     -0.2867
    200  CB        12.0660  -34.7270  -40.3930 C.3   342  ASP342      0.1410
    201  CG        12.3440  -34.0760  -39.0380 C.2   342  ASP342      0.3668
    202  OD1       13.2390  -34.5260  -38.2740 O.co2 342  ASP342     -0.2456
    203  OD2       11.6500  -33.0720  -38.7450 O.co2 342  ASP342     -0.2456
    204  N          9.3430  -32.1070  -48.6850 N.3   358  LEU358     -0.1245
    205  CA         9.0950  -32.2850  -47.2530 C.3   358  LEU358      0.1561
    206  C          7.6050  -32.3970  -46.9360 C.2   358  LEU358      0.2260
    207  O          7.2080  -33.1730  -46.0570 O.2   358  LEU358     -0.2867
    208  CB         9.7170  -31.1230  -46.4730 C.3   358  LEU358      0.0270
    209  CG         9.6700  -31.1960  -44.9520 C.3   358  LEU358      0.0019
    210  CD1       10.2950  -32.4990  -44.4580 C.3   358  LEU358      0.0001
    211  CD2       10.4020  -29.9970  -44.4000 C.3   358  LEU358      0.0001
    212  N          3.9470  -35.1500  -44.1580 N.3   362  TRP362     -0.1241
    213  CA         2.7150  -35.0760  -43.3990 C.3   362  TRP362      0.1605
    214  C          1.6710  -36.0650  -43.9040 C.2   362  TRP362      0.2264
    215  O          0.6300  -36.2260  -43.2530 O.2   362  TRP362     -0.2867
    216  CB         2.1660  -33.6370  -43.4450 C.3   362  TRP362      0.0550
    217  CG         2.7510  -32.7400  -42.4080 C.ar  362  TRP362      0.0003
    218  CD1        2.1620  -32.3450  -41.2460 C.ar  362  TRP362      0.0946
    219  CD2        4.0630  -32.1710  -42.4020 C.ar  362  TRP362      0.0152
    220  NE1        3.0160  -31.5510  -40.5270 N.ar  362  TRP362     -0.2442
    221  CE2        4.1900  -31.4300  -41.2120 C.ar  362  TRP362      0.0810
    222  CE3        5.1390  -32.2180  -43.2840 C.ar  362  TRP362      0.0012
    223  CZ2        5.3450  -30.7310  -40.8880 C.ar  362  TRP362      0.0191
    224  CZ3        6.2830  -31.5300  -42.9630 C.ar  362  TRP362      0.0001
    225  CH2        6.3840  -30.7990  -41.7740 C.ar  362  TRP362      0.0015
@<TRIPOS>BOND
     1   204   205    1
     2    38    36   ar
     3    38    37   ar
     4    36    34   ar
     5    37    35   ar
     6    34    35   ar
     7    34    33    1
     8   205   206    1
     9   205   208    1
    10   171   170    2
    11   206   207    2
    12    33    30    1
    13   183   182    2
    14   172   170   am
    15   182   181    1
    16    57    55    1
    17   208   209    1
    18   170   169    1
    19    42    41    2
    20   176   175    2
    21    53    52    1
    22    53    54    2
    23    52    55    1
    24    52    51    1
    25    50    49    1
    26    55    56    1
    27   169   166    1
    28   181   180    1
    29   181   184    1
    30    30    31    1
    31    30    29    1
    32    21    20    1
    33    21    22    1
    34   179   173    1
    35   179   178    1
    36    49    48   ar
    37    49    47   ar
    38   175   180   am
    39   175   174    1
    40   166   167    1
    41   166   165    1
    42    41    51   am
    43    41    40    1
    44   209   210    1
    45   209   211    1
    46    48    46   ar
    47    31    32    2
    48    31    39   am
    49   167   173   am
    50   167   168    2
    51   173   174    1
    52   105   104   ar
    53   105   103   ar
    54    20    14   am
    55    47    45   ar
    56   180   186    1
    57   194   193    2
    58    29    26   am
    59    39    40    1
    60    22    23    2
    61    22    24   am
    62   178   177    1
    63   184   185    1
    64   104   102   ar
    65   177   174    1
    66   212   213    1
    67    46    44   ar
    68    27    26    2
    69    45    44   ar
    70   214   213    1
    71   214   215    2
    72    40    43    1
    73    26    25    1
    74   193   192    1
    75   193   195   am
    76    44    43    1
    77    24    25    1
    78   103   101   ar
    79    12    13    1
    80   185   186    1
    81   192   191    1
    82   216   213    1
    83   216   217    1
    84    14    15    2
    85    14    13    1
    86   190   189    2
    87   222   224   ar
    88   222   219   ar
    89   189   188    1
    90   102   100   ar
    91   224   225   ar
    92    25    28    1
    93   191   188    1
    94    13    16    1
    95   217   219   ar
    96   217   218   ar
    97   219   221   ar
    98   101   100   ar
    99   188   187    1
   100   100    99    1
   101   225   223   ar
   102   198   199    2
   103   198   197    1
   104    16    17    1
   105   218   220   ar
   106   221   223   ar
   107   221   220   ar
   108   163   162    1
   109    94    92   am
   110   196   197    1
   111    99    96    1
   112   197   200    1
   113   164   162    1
   114    17    19    1
   115    17    18    1
   116    91    92    1
   117    91    88    1
   118    70    67    1
   119    10    11   ar
   120    10     8   ar
   121   200   201    1
   122    92    93    2
   123    69    68    2
   124    96    95    1
   125    96    97    1
   126    11     9   ar
   127   162   161    1
   128    95    89   am
   129     8     6   ar
   130    90    89    2
   131    64    63   ar
   132    89    88    1
   133    65    63   ar
   134    88    87    1
   135    68    67    1
   136    68    71   am
   137   201   203   ar
   138   201   202   ar
   139    98    97    2
   140    67    66    1
   141     3     4    2
   142     3     2    1
   143    63    62    1
   144   161   158    1
   145     9     7   ar
   146     6     7   ar
   147     6     5    1
   148    86    85    1
   149    78    77    1
   150    78    79    1
   151    74    73    2
   152    77    73   am
   153    73    72    1
   154     1     2    1
   155    71    72    1
   156    62    59    1
   157     2     5    1
   158    72    75    1
   159   158   157    1
   160   158   159    1
   161    59    60    1
   162    59    58    1
   163    81    79   am
   164    81    82    1
   165   113   112   ar
   166    60    61    2
   167   157   154   am
   168    79    80    2
   169    85    82    1
   170   160   159    2
   171   156   153    1
   172   121   119    1
   173   150   149    2
   174    82    83    1
   175    75    76    1
   176   154   155    2
   177   154   153    1
   178   122   120    1
   179   112   114   ar
   180   112   111    1
   181    83    84    2
   182   151   149   am
   183   153   152    1
   184   128   129    1
   185   128   127    1
   186   149   148    1
   187   119   120    1
   188   119   116    1
   189   152   146   am
   190   136   137    1
   191   136   133    1
   192   137   138    1
   193   129   131   ar
   194   129   130   ar
   195   111   110    1
   196   115   116    1
   197   115   108   am
   198   127   124    1
   199   146   145    1
   200   146   147    2
   201   107   110    1
   202   107   108    1
   203   107   106    1
   204   116   117    1
   205   138   132    1
   206   148   145    1
   207   123   117   am
   208   123   124    1
   209   145   144    1
   210   108   109    2
   211   133   132    1
   212   133   134    1
   213   117   118    2
   214   124   125    1
   215   142   141    2
   216   134   135    2
   217   126   125    2
   218   144   141   am
   219   141   140    1
   220   140   139    1
   221   140   143    1
