@<TRIPOS>MOLECULE
tmp/5hr5A02.pdb
 175 168 0 0 0
SMALL
GASTEIGER

@<TRIPOS>ATOM
      1  N         22.5570   28.3300   30.6930 N.3    21  PRO21      -0.2102
      2  CA        22.0060   29.3020   31.6460 C.3    21  PRO21       0.1504
      3  C         23.0040   29.6850   32.7270 C.2    21  PRO21       0.2576
      4  O         23.8450   28.8910   33.1470 O.2    21  PRO21      -0.2718
      5  CB        20.7840   28.5780   32.2230 C.3    21  PRO21       0.0282
      6  CG        20.3810   27.5730   31.1490 C.3    21  PRO21       0.0208
      7  CD        21.7140   27.1310   30.5710 C.3    21  PRO21       0.0893
      8  N         22.8750   30.9220   33.1870 N.am   22  ALA22      -0.1966
      9  CA        23.6850   31.4760   34.2560 C.3    22  ALA22       0.1728
     10  C         25.1490   31.6260   33.8550 C.2    22  ALA22       0.2616
     11  O         26.0390   31.4360   34.6800 O.2    22  ALA22      -0.2715
     12  CB        23.5510   30.6800   35.5610 C.3    22  ALA22       0.0334
     13  N         25.4010   31.9460   32.5810 N.am   23  ARG23      -0.1963
     14  CA        26.7340   32.2390   32.0770 C.3    23  ARG23       0.1729
     15  C         26.9290   33.7260   31.7620 C.2    23  ARG23       0.2617
     16  O         27.9030   34.0970   31.0930 O.2    23  ARG23      -0.2715
     17  CB        27.0420   31.4020   30.8420 C.3    23  ARG23       0.0348
     18  CG        27.7080   30.0480   31.1250 C.3    23  ARG23       0.0492
     19  CD        26.9100   29.1400   32.0130 C.3    23  ARG23       0.2205
     20  NE        27.6320   27.8730   32.2480 N.pl3  23  ARG23      -0.0865
     21  CZ        27.2360   26.9020   33.0550 C.cat  23  ARG23       0.5346
     22  NH1       26.0830   26.9900   33.6940 N.pl3  23  ARG23       0.1354
     23  NH2       28.0040   25.8280   33.2150 N.pl3  23  ARG23       0.1354
     24  N         26.0560   34.5880   32.2720 N.am   24  GLY24      -0.1940
     25  CA        26.2320   36.0130   32.0570 C.3    24  GLY24       0.2014
     26  C         25.7230   36.5740   30.7460 C.2    24  GLY24       0.2639
     27  O         26.0380   37.7270   30.4260 O.2    24  GLY24      -0.2714
     28  N         24.8940   35.8290   29.9960 N.am   25  LYS25      -0.1963
     29  CA        24.4880   36.3070   28.6770 C.3    25  LYS25       0.1728
     30  C         23.6570   37.5840   28.7630 C.2    25  LYS25       0.2617
     31  O         23.7880   38.4720   27.9070 O.2    25  LYS25      -0.2715
     32  CB        23.6770   35.2460   27.9480 C.3    25  LYS25       0.0311
     33  CG        24.4370   33.9530   27.5970 C.3    25  LYS25       0.0038
     34  CD        23.5270   32.9940   26.8220 C.3    25  LYS25       0.0206
     35  CE        22.2650   32.5990   27.5630 C.3    25  LYS25       0.1093
     36  NZ        22.5720   31.8430   28.8150 N.3    25  LYS25      -0.1314
     37  N         22.7160   37.6410   29.7070 N.am   26  THR26      -0.1937
     38  CA        21.8600   38.8200   29.8420 C.3    26  THR26       0.2028
     39  C         22.6710   39.9990   30.3440 C.2    26  THR26       0.2642
     40  O         22.4970   41.1360   29.8950 O.2    26  THR26      -0.2714
     41  CB        20.7130   38.4830   30.8050 C.3    26  THR26       0.1808
     42  OG1       19.9720   37.3690   30.2760 O.3    26  THR26      -0.2208
     43  CG2       19.7650   39.6590   31.0130 C.3    26  THR26       0.0379
     44  N         23.5650   39.7280   31.2850 N.am   27  TYR27      -0.1959
     45  CA        24.4580   40.7480   31.8090 C.3    27  TYR27       0.1771
     46  C         25.2980   41.3660   30.6880 C.2    27  TYR27       0.2619
     47  O         25.3700   42.6040   30.5450 O.2    27  TYR27      -0.2715
     48  CB        25.3330   40.0660   32.8470 C.3    27  TYR27       0.0574
     49  CG        26.4010   40.9500   33.4280 C.ar   27  TYR27      -0.0198
     50  CD1       27.5930   41.1520   32.7580 C.ar   27  TYR27      -0.0009
     51  CD2       26.1980   41.6100   34.6350 C.ar   27  TYR27      -0.0009
     52  CE1       28.5830   41.9810   33.2800 C.ar   27  TYR27       0.0417
     53  CE2       27.1810   42.4340   35.1760 C.ar   27  TYR27       0.0417
     54  CZ        28.3640   42.6180   34.4830 C.ar   27  TYR27       0.1957
     55  OH        29.3320   43.4350   34.9890 O.3    27  TYR27      -0.2866
     56  N         25.9080   40.5110   29.8600 N.am   28  VAL28      -0.1977
     57  CA        26.7340   40.9910   28.7460 C.3    28  VAL28       0.1596
     58  C         25.8800   41.7040   27.7100 C.2    28  VAL28       0.2287
     59  O         26.2430   42.7790   27.2240 O.2    28  VAL28      -0.2864
     60  CB        27.5280   39.8330   28.1240 C.3    28  VAL28       0.0276
     61  CG1       28.2020   40.2870   26.8270 C.3    28  VAL28       0.0022
     62  CG2       28.5300   39.3070   29.1120 C.3    28  VAL28       0.0022
     63  N         19.4710   37.8440   22.8340 N.3   102  ASP102     -0.1239
     64  CA        19.8870   37.2410   24.0900 C.3   102  ASP102      0.1674
     65  C         19.0290   36.0030   24.3360 C.2   102  ASP102      0.2266
     66  O         17.9000   36.0980   24.8130 O.2   102  ASP102     -0.2867
     67  CB        19.7430   38.2650   25.2010 C.3   102  ASP102      0.1410
     68  CG        19.9380   37.6720   26.5690 C.2   102  ASP102      0.3668
     69  OD1       20.6860   36.6920   26.6810 O.co2 102  ASP102     -0.2456
     70  OD2       19.3290   38.1890   27.5240 O.co2 102  ASP102     -0.2456
     71  N         29.4370   32.5770   25.8690 N.3   130  SER130     -0.1202
     72  CA        30.0270   32.5950   27.1980 C.3   130  SER130      0.2020
     73  C         30.1290   31.1660   27.7080 C.2   130  SER130      0.2619
     74  O         29.1180   30.4610   27.7970 O.2   130  SER130     -0.2717
     75  CB        29.2000   33.4190   28.1680 C.3   130  SER130      0.2103
     76  OG        29.8760   33.4170   29.4110 O.3   130  SER130     -0.2182
     77  N         31.3450   30.7600   28.0620 N.am  131  VAL131     -0.1965
     78  CA        31.6750   29.4050   28.4830 C.3   131  VAL131      0.1727
     79  C         32.2820   29.4800   29.8670 C.2   131  VAL131      0.2616
     80  O         33.3350   30.1000   30.0520 O.2   131  VAL131     -0.2715
     81  CB        32.6890   28.7550   27.5260 C.3   131  VAL131      0.0290
     82  CG1       32.9670   27.3100   27.9490 C.3   131  VAL131      0.0023
     83  CG2       32.1680   28.7830   26.1130 C.3   131  VAL131      0.0023
     84  N         31.6640   28.8010   30.8250 N.am  132  CYS132     -0.1968
     85  CA        32.2820   28.6870   32.1360 C.3   132  CYS132      0.1712
     86  C         31.8010   27.4030   32.7950 C.2   132  CYS132      0.2296
     87  O         30.5980   27.1600   32.8830 O.2   132  CYS132     -0.2864
     88  CB        31.9750   29.8970   33.0130 C.3   132  CYS132      0.0983
     89  SG        32.7430   29.7540   34.6600 S.3   132  CYS132     -0.0798
     90  N         31.6020   29.6520   40.3160 N.3   137  VAL137     -0.1231
     91  CA        31.0970   30.7940   39.5550 C.3   137  VAL137      0.1692
     92  C         29.6120   30.6240   39.2630 C.2   137  VAL137      0.2591
     93  O         28.8130   31.5460   39.4620 O.2   137  VAL137     -0.2718
     94  CB        31.9120   30.9900   38.2650 C.3   137  VAL137      0.0266
     95  CG1       31.2940   32.0920   37.4050 C.3   137  VAL137      0.0020
     96  CG2       33.3550   31.3290   38.6150 C.3   137  VAL137      0.0020
     97  N         29.2180   29.4380   38.7800 N.am  138  ILE138     -0.1980
     98  CA        27.8170   29.2120   38.4320 C.3   138  ILE138      0.1595
     99  C         26.9220   29.3610   39.6590 C.2   138  ILE138      0.2287
    100  O         25.8500   29.9750   39.5880 O.2   138  ILE138     -0.2864
    101  CB        27.6400   27.8480   37.7550 C.3   138  ILE138      0.0276
    102  CG1       28.5140   27.7480   36.4920 C.3   138  ILE138      0.0022
    103  CG2       26.1680   27.6150   37.4230 C.3   138  ILE138      0.0022
    104  CD1       28.4210   28.9460   35.5130 C.3   138  ILE138      0.0001
    105  N         26.5760   32.9730   40.4170 N.3   141  ASN141     -0.1240
    106  CA        25.6810   33.6100   39.4520 C.3   141  ASN141      0.1653
    107  C         24.2270   33.3050   39.7650 C.2   141  ASN141      0.2266
    108  O         23.3590   34.1860   39.6740 O.2   141  ASN141     -0.2867
    109  CB        25.9980   33.1210   38.0440 C.3   141  ASN141      0.1155
    110  CG        27.3110   33.6470   37.5200 C.2   141  ASN141      0.2627
    111  OD1       27.9500   34.4910   38.1470 O.2   141  ASN141     -0.2716
    112  ND2       27.6940   33.1940   36.3310 N.am  141  ASN141     -0.0877
    113  N         23.1380   35.2600   42.7020 N.3   144  GLU144     -0.1231
    114  CA        23.1190   36.7030   42.4890 C.3   144  GLU144      0.1699
    115  C         21.8750   37.1560   41.7300 C.2   144  GLU144      0.2592
    116  O         21.2720   38.1730   42.0840 O.2   144  GLU144     -0.2718
    117  CB        24.3970   37.1890   41.7850 C.3   144  GLU144      0.0402
    118  CG        24.4730   38.7130   41.7830 C.3   144  GLU144      0.1161
    119  CD        25.7260   39.2790   41.1310 C.2   144  GLU144      0.3649
    120  OE1       26.6430   38.5090   40.7800 O.co2 144  GLU144     -0.2457
    121  OE2       25.7880   40.5150   40.9900 O.co2 144  GLU144     -0.2457
    122  N         21.4800   36.4410   40.6780 N.am  145  VAL145     -0.1966
    123  CA        20.4240   36.9390   39.8010 C.3   145  VAL145      0.1727
    124  C         19.2880   35.9600   39.5660 C.2   145  VAL145      0.2616
    125  O         18.2490   36.3810   39.0250 O.2   145  VAL145     -0.2715
    126  CB        20.9750   37.4230   38.4440 C.3   145  VAL145      0.0290
    127  CG1       22.0420   38.4840   38.6320 C.3   145  VAL145      0.0023
    128  CG2       21.4880   36.2240   37.5940 C.3   145  VAL145      0.0023
    129  N         19.4290   34.6610   39.8420 N.am  146  LYS146     -0.1977
    130  CA        18.3830   33.7090   39.4720 C.3   146  LYS146      0.1596
    131  C         17.4370   33.4110   40.6140 C.2   146  LYS146      0.2287
    132  O         16.2460   33.1900   40.3690 O.2   146  LYS146     -0.2864
    133  CB        18.9730   32.3870   38.9380 C.3   146  LYS146      0.0298
    134  CG        19.9380   32.5570   37.7640 C.3   146  LYS146      0.0038
    135  CD        19.2720   33.2160   36.5440 C.3   146  LYS146      0.0206
    136  CE        20.2290   33.2640   35.3340 C.3   146  LYS146      0.1093
    137  NZ        19.6270   33.7870   34.0730 N.3   146  LYS146     -0.1314
    138  N         33.8990   33.9160   25.1810 N.3   192  VAL192     -0.1245
    139  CA        34.3380   34.5020   26.4430 C.3   192  VAL192      0.1561
    140  C         34.4110   33.3620   27.4500 C.2   192  VAL192      0.2260
    141  O         33.3810   32.8040   27.8360 O.2   192  VAL192     -0.2867
    142  CB        33.3560   35.5850   26.9110 C.3   192  VAL192      0.0252
    143  CG1       33.7560   36.1530   28.3000 C.3   192  VAL192      0.0019
    144  CG2       33.2460   36.6720   25.8550 C.3   192  VAL192      0.0019
    145  N         34.8470   33.6840   32.5710 N.3   195  VAL195     -0.1245
    146  CA        34.5540   35.0320   33.0300 C.3   195  VAL195      0.1561
    147  C         35.6620   35.9880   32.5880 C.2   195  VAL195      0.2260
    148  O         36.1190   36.8370   33.3620 O.2   195  VAL195     -0.2867
    149  CB        34.3550   35.0650   34.5550 C.3   195  VAL195      0.0252
    150  CG1       33.5040   36.2510   34.9330 C.3   195  VAL195      0.0019
    151  CG2       33.7070   33.7610   35.0420 C.3   195  VAL195      0.0019
    152  N         33.9450   41.4890   36.2080 N.3   221  VAL221     -0.1245
    153  CA        32.8200   41.4640   37.1470 C.3   221  VAL221      0.1561
    154  C         33.2630   41.6630   38.5980 C.2   221  VAL221      0.2260
    155  O         32.5020   41.3600   39.5170 O.2   221  VAL221     -0.2867
    156  CB        31.9330   40.2140   36.9930 C.3   221  VAL221      0.0252
    157  CG1       31.3650   40.1450   35.6200 C.3   221  VAL221      0.0019
    158  CG2       32.6980   38.9680   37.3450 C.3   221  VAL221      0.0019
    159  N         23.6310   44.1060   40.1320 N.3   400  ALA400     -0.1231
    160  CA        22.7700   43.2360   39.3190 C.3   400  ALA400      0.1694
    161  C         23.1630   43.4120   37.8590 C.2   400  ALA400      0.2592
    162  O         24.3270   43.1290   37.5210 O.2   400  ALA400     -0.2718
    163  CB        21.2950   43.4880   39.6480 C.3   400  ALA400      0.0304
    164  N         22.2600   43.8660   36.9900 N.am  401  TYR401     -0.1976
    165  CA        22.4750   44.0530   35.5710 C.3   401  TYR401      0.1639
    166  C         22.7730   45.4950   35.2080 C.2   401  TYR401      0.2290
    167  O         22.9690   45.7960   34.0310 O.2   401  TYR401     -0.2864
    168  CB        21.2070   43.6360   34.8100 C.3   401  TYR401      0.0560
    169  CG        20.8820   42.1700   34.9140 C.ar  401  TYR401     -0.0198
    170  CD1       21.6930   41.2230   34.3090 C.ar  401  TYR401     -0.0009
    171  CD2       19.7560   41.7300   35.5940 C.ar  401  TYR401     -0.0009
    172  CE1       21.4040   39.8810   34.3880 C.ar  401  TYR401      0.0417
    173  CE2       19.4530   40.3800   35.6760 C.ar  401  TYR401      0.0417
    174  CZ        20.2750   39.4610   35.0600 C.ar  401  TYR401      0.1957
    175  OH        19.9760   38.1210   35.1520 O.3   401  TYR401     -0.2866
@<TRIPOS>BOND
     1    63    64    1
     2    64    65    1
     3    64    67    1
     4    65    66    2
     5   138   139    1
     6    67    68    1
     7   144   142    1
     8    71    72    1
     9    83    81    1
    10   139   142    1
    11   139   140    1
    12    68    69   ar
    13    68    70   ar
    14    34    35    1
    15    34    33    1
    16    61    60    1
    17   142   143    1
    18    72    73    1
    19    72    75    1
    20    59    58    2
    21   140   141    2
    22    81    82    1
    23    81    78    1
    24    35    36    1
    25    33    32    1
    26    73    74    2
    27    73    77   am
    28    58    57    1
    29    31    30    2
    30    32    29    1
    31    77    78    1
    32    60    57    1
    33    60    62    1
    34    75    76    1
    35    78    79    1
    36    29    30    1
    37    29    28    1
    38    57    56    1
    39    30    37   am
    40    37    38    1
    41    38    39    1
    42    38    41    1
    43    56    46   am
    44    79    80    2
    45    79    84   am
    46    40    39    2
    47    28    26   am
    48    42    41    1
    49    39    44   am
    50    27    26    2
    51    47    46    2
    52     7     1    1
    53     7     6    1
    54    46    45    1
    55     1     2    1
    56    26    25    1
    57    41    43    1
    58    84    85    1
    59    17    18    1
    60    17    14    1
    61    16    15    2
    62    18    19    1
    63     6     5    1
    64    44    45    1
    65     2     5    1
    66     2     3    1
    67    15    14    1
    68    15    24   am
    69    45    48    1
    70    19    20    1
    71    25    24    1
    72    14    13    1
    73    85    86    1
    74    85    88    1
    75    20    21    2
    76   145   146    1
    77    13    10   am
    78   147   146    1
    79   147   148    2
    80     3     4    2
    81     3     8   am
    82    50    52   ar
    83    50    49   ar
    84    86    87    2
    85    48    49    1
    86    88    89    1
    87   146   149    1
    88    21    23    1
    89    21    22    1
    90     8     9    1
    91    52    54   ar
    92    49    51   ar
    93    10     9    1
    94    10    11    2
    95   167   166    2
    96   137   136    1
    97     9    12    1
    98   170   172   ar
    99   170   169   ar
   100   172   174   ar
   101    54    55    1
   102    54    53   ar
   103   149   150    1
   104   149   151    1
   105    51    53   ar
   106   168   169    1
   107   168   165    1
   108   169   171   ar
   109   174   175    1
   110   174   173   ar
   111   166   165    1
   112   136   135    1
   113   104   102    1
   114   165   164    1
   115   171   173   ar
   116   157   156    1
   117   152   153    1
   118   112   110   am
   119   102   101    1
   120   135   134    1
   121   164   161   am
   122   156   153    1
   123   156   158    1
   124   153   154    1
   125    95    94    1
   126   103   101    1
   127   110   109    1
   128   110   111    2
   129   162   161    2
   130   128   126    1
   131   101    98    1
   132   134   133    1
   133   161   160    1
   134   109   106    1
   135    94    96    1
   136    94    91    1
   137    98    97    1
   138    98    99    1
   139   126   127    1
   140   126   123    1
   141   154   155    2
   142    97    92   am
   143   133   130    1
   144   125   124    2
   145    92    93    2
   146    92    91    1
   147   160   163    1
   148   160   159    1
   149   106   107    1
   150   106   105    1
   151   130   129    1
   152   130   131    1
   153    91    90    1
   154   124   123    1
   155   124   129   am
   156   100    99    2
   157   108   107    2
   158   123   122    1
   159   132   131    2
   160   122   115   am
   161   120   119   ar
   162   121   119   ar
   163   119   118    1
   164   115   116    2
   165   115   114    1
   166   118   117    1
   167   117   114    1
   168   114   113    1
