@<TRIPOS>MOLECULE
tmp/5hr7D01.pdb
 102 93 0 0 0
SMALL
GASTEIGER

@<TRIPOS>ATOM
      1  N        -55.8670   67.2660  160.7190 N.3   109  CYS109     -0.1235
      2  CA       -56.3510   68.6150  161.0190 C.3   109  CYS109      0.1677
      3  C        -57.4130   68.9820  160.0060 C.2   109  CYS109      0.2270
      4  O        -57.3750   68.5240  158.8610 O.2   109  CYS109     -0.2867
      5  CB       -55.2220   69.6430  160.9610 C.3   109  CYS109      0.0956
      6  SG       -55.7280   71.3280  161.4300 S.3   109  CYS109     -0.0801
      7  N        -54.6680   74.5310  155.8280 N.3   113  CYS113     -0.1235
      8  CA       -53.5430   75.4010  155.4720 C.3   113  CYS113      0.1677
      9  C        -52.7950   74.7900  154.2760 C.2   113  CYS113      0.2270
     10  O        -52.4480   73.6000  154.2950 O.2   113  CYS113     -0.2867
     11  CB       -52.5970   75.6010  156.6630 C.3   113  CYS113      0.0956
     12  SG       -53.3140   76.4940  158.0760 S.3   113  CYS113     -0.0801
     13  N        -49.0370   73.0590  154.5370 N.3   116  CYS116     -0.1235
     14  CA       -48.8570   72.0830  155.6100 C.3   116  CYS116      0.1677
     15  C        -49.2060   70.6640  155.1360 C.2   116  CYS116      0.2270
     16  O        -50.2690   70.4410  154.5480 O.2   116  CYS116     -0.2867
     17  CB       -49.7440   72.4790  156.7930 C.3   116  CYS116      0.0956
     18  SG       -49.8380   71.2660  158.1250 S.3   116  CYS116     -0.0801
     19  N        -49.8400   68.0600  157.0690 N.3   118  THR118     -0.1218
     20  CA       -50.9270   67.5480  157.9010 C.3   118  THR118      0.1862
     21  C        -52.2990   67.8390  157.2760 C.2   118  THR118      0.2287
     22  O        -53.1850   66.9800  157.2940 O.2   118  THR118     -0.2866
     23  CB       -50.8770   68.1230  159.3360 C.3   118  THR118      0.1770
     24  OG1      -49.5610   67.9640  159.8890 O.3   118  THR118     -0.2211
     25  CG2      -51.8800   67.4100  160.2290 C.3   118  THR118      0.0375
     26  N        -46.9650   72.5380  171.4060 N.3   159  MET159     -0.1230
     27  CA       -48.1500   72.0050  170.7460 C.3   159  MET159      0.1702
     28  C        -48.0520   72.3990  169.2720 C.2   159  MET159      0.2592
     29  O        -48.7330   73.3120  168.8070 O.2   159  MET159     -0.2718
     30  CB       -49.4270   72.5590  171.3850 C.3   159  MET159      0.0401
     31  CG       -49.4590   72.5150  172.9100 C.3   159  MET159      0.0596
     32  SD       -49.1900   70.8780  173.6180 S.3   159  MET159     -0.1393
     33  CE       -50.8100   70.1530  173.3780 C.3   159  MET159      0.0692
     34  N        -47.1610   71.7180  168.5570 N.am  160  MET160     -0.1965
     35  CA       -46.8710   72.0210  167.1530 C.3   160  MET160      0.1736
     36  C        -46.8150   70.7580  166.2970 C.2   160  MET160      0.2617
     37  O        -46.2260   70.7620  165.2240 O.2   160  MET160     -0.2715
     38  CB       -45.5370   72.7590  167.0340 C.3   160  MET160      0.0427
     39  CG       -45.5100   74.1200  167.6990 C.3   160  MET160      0.0599
     40  SD       -43.8970   74.9130  167.5310 S.3   160  MET160     -0.1393
     41  CE       -44.0710   76.2610  168.7010 C.3   160  MET160      0.0692
     42  N        -47.4310   69.6810  166.7680 N.am  161  GLY161     -0.1955
     43  CA       -47.5240   68.4530  165.9970 C.3   161  GLY161      0.1869
     44  C        -48.7200   68.5460  165.0750 C.2   161  GLY161      0.2309
     45  O        -49.0360   69.6200  164.5680 O.2   161  GLY161     -0.2863
     46  N        -52.4700   68.9250  164.0330 N.3   163  GLY163     -0.1210
     47  CA       -53.7780   69.4180  164.4740 C.3   163  GLY163      0.1956
     48  C        -53.7820   70.7850  165.1330 C.2   163  GLY163      0.2612
     49  O        -52.7680   71.2350  165.6410 O.2   163  GLY163     -0.2717
     50  N        -54.9430   71.4350  165.1170 N.am  164  GLU164     -0.1966
     51  CA       -55.1360   72.7510  165.7540 C.3   164  GLU164      0.1718
     52  C        -55.5650   72.5200  167.1980 C.2   164  GLU164      0.2458
     53  O        -56.6460   71.9680  167.4320 O.2   164  GLU164     -0.2730
     54  CB       -56.1850   73.5680  164.9870 C.3   164  GLU164      0.0428
     55  CG       -56.6490   74.8570  165.6600 C.3   164  GLU164      0.1163
     56  CD       -55.5090   75.7780  166.0530 C.2   164  GLU164      0.3649
     57  OE1      -55.4240   76.1360  167.2460 O.co2 164  GLU164     -0.2457
     58  OE2      -54.7040   76.1430  165.1780 O.co2 164  GLU164     -0.2457
     59  N        -54.7130   72.9150  168.1700 N.am  165  PRO165     -0.2727
     60  CA       -55.0080   72.6640  169.5870 C.3   165  PRO165      0.1402
     61  C        -56.2810   73.3310  170.1080 C.2   165  PRO165      0.2269
     62  O        -56.9210   72.7880  171.0010 O.2   165  PRO165     -0.2865
     63  CB       -53.7840   73.2450  170.3170 C.3   165  PRO165      0.0296
     64  CG       -52.6970   73.2650  169.3030 C.3   165  PRO165      0.0237
     65  CD       -53.3790   73.5220  167.9930 C.3   165  PRO165      0.0939
     66  N        -49.2820   76.6430  169.9220 N.3   195  SER195     -0.1202
     67  CA       -49.3210   77.3440  168.6470 C.3   195  SER195      0.2020
     68  C        -50.7240   77.2410  168.0690 C.2   195  SER195      0.2619
     69  O        -51.3360   76.1770  168.1230 O.2   195  SER195     -0.2717
     70  CB       -48.3190   76.7290  167.6790 C.3   195  SER195      0.2103
     71  OG       -48.4180   77.3250  166.3990 O.3   195  SER195     -0.2182
     72  N        -51.2390   78.3490  167.5340 N.am  196  THR196     -0.1938
     73  CA       -52.5720   78.3620  166.9190 C.3   196  THR196      0.2028
     74  C        -52.6450   79.2170  165.6600 C.2   196  THR196      0.2642
     75  O        -51.8960   80.1910  165.4970 O.2   196  THR196     -0.2714
     76  CB       -53.6610   78.8540  167.8920 C.3   196  THR196      0.1808
     77  OG1      -54.9530   78.6100  167.3180 O.3   196  THR196     -0.2208
     78  CG2      -53.5140   80.3460  168.1810 C.3   196  THR196      0.0379
     79  N        -53.5730   78.8310  164.7870 N.am  197  SER197     -0.1949
     80  CA       -53.8550   79.5440  163.5450 C.3   197  SER197      0.1924
     81  C        -54.9560   80.5900  163.7140 C.2   197  SER197      0.2314
     82  O        -55.2140   81.3590  162.7930 O.2   197  SER197     -0.2863
     83  CB       -54.2440   78.5610  162.4380 C.3   197  SER197      0.2116
     84  OG       -53.0890   77.9850  161.8580 O.3   197  SER197     -0.2180
     85  N        -49.6740   81.4560  164.3890 N.3   217  SER217     -0.1217
     86  CA       -49.3510   81.1370  163.0060 C.3   217  SER217      0.1889
     87  C        -49.8430   82.2420  162.0950 C.2   217  SER217      0.2288
     88  O        -50.8750   82.0950  161.4540 O.2   217  SER217     -0.2866
     89  CB       -50.0190   79.8130  162.6080 C.3   217  SER217      0.2089
     90  OG       -49.3680   78.7250  163.2170 O.3   217  SER217     -0.2183
     91  N        -44.6340   71.0650  160.0630 N.3   339  GLY339     -0.1225
     92  CA       -45.4860   70.9580  158.8880 C.3   339  GLY339      0.1811
     93  C        -45.3760   69.6970  158.0420 C.2   339  GLY339      0.2280
     94  O        -46.1500   69.5430  157.1000 O.2   339  GLY339     -0.2866
     95  N        -45.6160   66.4970  159.2600 N.3   341  LEU341     -0.1245
     96  CA       -46.2140   65.3730  159.9700 C.3   341  LEU341      0.1561
     97  C        -47.4820   64.8830  159.2750 C.2   341  LEU341      0.2260
     98  O        -48.5480   65.4910  159.3930 O.2   341  LEU341     -0.2867
     99  CB       -46.5050   65.7560  161.4220 C.3   341  LEU341      0.0270
    100  CG       -45.3180   65.7060  162.3940 C.3   341  LEU341      0.0019
    101  CD1      -44.0050   66.1560  161.7790 C.3   341  LEU341      0.0001
    102  CD2      -45.6250   66.5260  163.6360 C.3   341  LEU341      0.0001
@<TRIPOS>BOND
     1     9    10    2
     2     9     8    1
     3    13    14    1
     4    16    15    2
     5    15    14    1
     6     8     7    1
     7     8    11    1
     8    14    17    1
     9    11    12    1
    10    17    18    1
    11    19    20    1
    12    94    93    2
    13    21    22    2
    14    21    20    1
    15    20    23    1
    16    93    92    1
    17     4     3    2
    18    92    91    1
    19    95    96    1
    20    97    98    2
    21    97    96    1
    22    23    24    1
    23    23    25    1
    24    96    99    1
    25     3     2    1
    26     1     2    1
    27     5     2    1
    28     5     6    1
    29    99   100    1
    30    88    87    2
    31   101   100    1
    32    84    83    1
    33    87    86    1
    34   100   102    1
    35    83    80    1
    36    89    86    1
    37    89    90    1
    38    82    81    2
    39    86    85    1
    40    80    81    1
    41    80    79    1
    42    46    47    1
    43    47    48    1
    44    45    44    2
    45    79    74   am
    46    54    55    1
    47    54    51    1
    48    44    43    1
    49    50    48   am
    50    50    51    1
    51    48    49    2
    52    58    56   ar
    53    37    36    2
    54    75    74    2
    55    55    56    1
    56    74    73    1
    57    51    52    1
    58    43    42    1
    59    56    57   ar
    60    36    42   am
    61    36    35    1
    62    71    70    1
    63    73    72    1
    64    73    76    1
    65    38    35    1
    66    38    39    1
    67    35    34    1
    68    52    53    2
    69    52    59   am
    70    77    76    1
    71    40    39    1
    72    40    41    1
    73    72    68   am
    74    70    67    1
    75    76    78    1
    76    65    59    1
    77    65    64    1
    78    68    69    2
    79    68    67    1
    80    59    60    1
    81    34    28   am
    82    67    66    1
    83    29    28    2
    84    28    27    1
    85    64    63    1
    86    60    61    1
    87    60    63    1
    88    61    62    2
    89    27    30    1
    90    27    26    1
    91    30    31    1
    92    31    32    1
    93    33    32    1
