@<TRIPOS>MOLECULE
tmp/5hr7D00.pdb
 138 131 0 0 0
SMALL
GASTEIGER

@<TRIPOS>ATOM
      1  N        -54.6680   74.5310  155.8280 N.3   113  CYS113     -0.1235
      2  CA       -53.5430   75.4010  155.4720 C.3   113  CYS113      0.1677
      3  C        -52.7950   74.7900  154.2760 C.2   113  CYS113      0.2270
      4  O        -52.4480   73.6000  154.2950 O.2   113  CYS113     -0.2867
      5  CB       -52.5970   75.6010  156.6630 C.3   113  CYS113      0.0956
      6  SG       -53.3140   76.4940  158.0760 S.3   113  CYS113     -0.0801
      7  N        -49.8090   75.1280  152.9220 N.3   115  PHE115     -0.1227
      8  CA       -48.3630   74.8430  152.9990 C.3   115  PHE115      0.1736
      9  C        -48.0200   73.7290  154.0030 C.2   115  PHE115      0.2595
     10  O        -46.8480   73.4810  154.2780 O.2   115  PHE115     -0.2718
     11  CB       -47.6050   76.1180  153.3850 C.3   115  PHE115      0.0547
     12  CG       -48.1490   76.7780  154.6110 C.ar  115  PHE115     -0.0202
     13  CD1      -47.8050   76.3210  155.8670 C.ar  115  PHE115     -0.0042
     14  CD2      -49.0490   77.8310  154.5020 C.ar  115  PHE115     -0.0042
     15  CE1      -48.3290   76.9110  156.9980 C.ar  115  PHE115     -0.0003
     16  CE2      -49.5790   78.4230  155.6290 C.ar  115  PHE115     -0.0003
     17  CZ       -49.2150   77.9620  156.8800 C.ar  115  PHE115     -0.0000
     18  N        -49.0370   73.0590  154.5370 N.am  116  CYS116     -0.1970
     19  CA       -48.8570   72.0830  155.6100 C.3   116  CYS116      0.1712
     20  C        -49.2060   70.6640  155.1360 C.2   116  CYS116      0.2296
     21  O        -50.2690   70.4410  154.5480 O.2   116  CYS116     -0.2864
     22  CB       -49.7440   72.4790  156.7930 C.3   116  CYS116      0.0983
     23  SG       -49.8380   71.2660  158.1250 S.3   116  CYS116     -0.0798
     24  N        -47.1610   71.7180  168.5570 N.3   160  MET160     -0.1245
     25  CA       -46.8710   72.0210  167.1530 C.3   160  MET160      0.1570
     26  C        -46.8150   70.7580  166.2970 C.2   160  MET160      0.2261
     27  O        -46.2260   70.7620  165.2240 O.2   160  MET160     -0.2867
     28  CB       -45.5370   72.7590  167.0340 C.3   160  MET160      0.0387
     29  CG       -45.5100   74.1200  167.6990 C.3   160  MET160      0.0595
     30  SD       -43.8970   74.9130  167.5310 S.3   160  MET160     -0.1393
     31  CE       -44.0710   76.2610  168.7010 C.3   160  MET160      0.0692
     32  N        -49.2820   76.6430  169.9220 N.3   195  SER195     -0.1217
     33  CA       -49.3210   77.3440  168.6470 C.3   195  SER195      0.1889
     34  C        -50.7240   77.2410  168.0690 C.2   195  SER195      0.2288
     35  O        -51.3360   76.1770  168.1230 O.2   195  SER195     -0.2866
     36  CB       -48.3190   76.7290  167.6790 C.3   195  SER195      0.2089
     37  OG       -48.4180   77.3250  166.3990 O.3   195  SER195     -0.2183
     38  N        -53.5730   78.8310  164.7870 N.3   197  SER197     -0.1217
     39  CA       -53.8550   79.5440  163.5450 C.3   197  SER197      0.1889
     40  C        -54.9560   80.5900  163.7140 C.2   197  SER197      0.2288
     41  O        -55.2140   81.3590  162.7930 O.2   197  SER197     -0.2866
     42  CB       -54.2440   78.5610  162.4380 C.3   197  SER197      0.2089
     43  OG       -53.0890   77.9850  161.8580 O.3   197  SER197     -0.2183
     44  N        -49.6740   81.4560  164.3890 N.3   217  SER217     -0.1217
     45  CA       -49.3510   81.1370  163.0060 C.3   217  SER217      0.1889
     46  C        -49.8430   82.2420  162.0950 C.2   217  SER217      0.2288
     47  O        -50.8750   82.0950  161.4540 O.2   217  SER217     -0.2866
     48  CB       -50.0190   79.8130  162.6080 C.3   217  SER217      0.2089
     49  OG       -49.3680   78.7250  163.2170 O.3   217  SER217     -0.2183
     50  N        -48.0100   84.0810  159.3830 N.3   219  HIS219     -0.1241
     51  CA       -47.6250   83.6810  158.0190 C.3   219  HIS219      0.1621
     52  C        -47.8840   84.6970  156.8910 C.2   219  HIS219      0.2264
     53  O        -47.6040   84.4030  155.7300 O.2   219  HIS219     -0.2867
     54  CB       -48.2880   82.3440  157.6370 C.3   219  HIS219      0.0745
     55  CG       -48.0460   81.2390  158.6150 C.ar  219  HIS219      0.0817
     56  ND1      -46.8050   80.9760  159.1530 N.ar  219  HIS219     -0.2268
     57  CD2      -48.8820   80.3100  159.1310 C.ar  219  HIS219      0.1154
     58  CE1      -46.8880   79.9430  159.9690 C.ar  219  HIS219      0.1986
     59  NE2      -48.1380   79.5160  159.9710 N.ar  219  HIS219     -0.2212
     60  N        -45.2390   83.3310  164.4420 N.3   262  GLU262     -0.1245
     61  CA       -44.7360   82.3230  163.5160 C.3   262  GLU262      0.1567
     62  C        -45.0040   82.7690  162.0890 C.2   262  GLU262      0.2260
     63  O        -46.1130   83.2100  161.7590 O.2   262  GLU262     -0.2867
     64  CB       -45.3680   80.9600  163.8060 C.3   262  GLU262      0.0388
     65  CG       -44.9230   80.4120  165.1520 C.3   262  GLU262      0.1160
     66  CD       -45.6530   79.1590  165.5560 C.2   262  GLU262      0.3649
     67  OE1      -44.9840   78.1290  165.7890 O.co2 262  GLU262     -0.2457
     68  OE2      -46.8940   79.2100  165.6390 O.co2 262  GLU262     -0.2457
     69  N        -43.9760   81.5770  158.0960 N.3   264  VAL264     -0.1245
     70  CA       -43.3720   80.5690  157.2430 C.3   264  VAL264      0.1561
     71  C        -42.9270   81.3010  155.9940 C.2   264  VAL264      0.2260
     72  O        -43.6660   82.1280  155.4660 O.2   264  VAL264     -0.2867
     73  CB       -44.3420   79.4020  156.9160 C.3   264  VAL264      0.0252
     74  CG1      -45.5030   79.8480  156.0370 C.3   264  VAL264      0.0019
     75  CG2      -43.5950   78.2630  156.2430 C.3   264  VAL264      0.0019
     76  N        -39.8690   80.8710  159.7720 N.3   293  ILE293     -0.1231
     77  CA       -39.7700   79.4240  159.5560 C.3   293  ILE293      0.1678
     78  C        -39.5230   79.1130  158.0800 C.2   293  ILE293      0.2434
     79  O        -40.4220   79.2570  157.2630 O.2   293  ILE293     -0.2733
     80  CB       -41.0500   78.6920  160.0270 C.3   293  ILE293      0.0265
     81  CG1      -41.4480   79.1630  161.4320 C.3   293  ILE293      0.0019
     82  CG2      -40.8330   77.1870  160.0270 C.3   293  ILE293      0.0020
     83  CD1      -42.7270   78.5530  161.9600 C.3   293  ILE293      0.0001
     84  N        -38.3000   78.6880  157.7300 N.am  294  PRO294     -0.2718
     85  CA       -38.0820   78.2540  156.3520 C.3   294  PRO294      0.1535
     86  C        -39.0190   77.1030  155.9870 C.2   294  PRO294      0.2599
     87  O        -39.1830   76.1700  156.7660 O.2   294  PRO294     -0.2715
     88  CB       -36.6240   77.7980  156.3550 C.3   294  PRO294      0.0310
     89  CG       -35.9950   78.5440  157.4820 C.3   294  PRO294      0.0237
     90  CD       -37.0640   78.6100  158.5270 C.3   294  PRO294      0.0939
     91  N        -39.6540   77.1880  154.8270 N.am  295  TRP295     -0.1960
     92  CA       -40.6880   76.2340  154.4760 C.3   295  TRP295      0.1771
     93  C        -40.1100   74.8310  154.2610 C.2   295  TRP295      0.2619
     94  O        -39.1120   74.6440  153.5580 O.2   295  TRP295     -0.2715
     95  CB       -41.4490   76.6950  153.2380 C.3   295  TRP295      0.0590
     96  CG       -42.5310   75.7550  152.8470 C.ar  295  TRP295      0.0006
     97  CD1      -43.6990   75.5220  153.5110 C.ar  295  TRP295      0.0946
     98  CD2      -42.5410   74.9050  151.7000 C.ar  295  TRP295      0.0152
     99  NE1      -44.4410   74.5790  152.8420 N.ar  295  TRP295     -0.2442
    100  CE2      -43.7510   74.1860  151.7240 C.ar  295  TRP295      0.0810
    101  CE3      -41.6420   74.6840  150.6480 C.ar  295  TRP295      0.0012
    102  CZ2      -44.0900   73.2600  150.7330 C.ar  295  TRP295      0.0191
    103  CZ3      -41.9790   73.7610  149.6590 C.ar  295  TRP295      0.0001
    104  CH2      -43.1920   73.0650  149.7080 C.ar  295  TRP295      0.0015
    105  N        -40.7460   73.8520  154.8920 N.am  296  ASN296     -0.1972
    106  CA       -40.3250   72.4650  154.7780 C.3   296  ASN296      0.1688
    107  C        -41.2430   71.7960  153.7800 C.2   296  ASN296      0.2292
    108  O        -42.4590   71.8230  153.9490 O.2   296  ASN296     -0.2864
    109  CB       -40.3940   71.7810  156.1330 C.3   296  ASN296      0.1181
    110  CG       -39.5460   72.4810  157.1720 C.2   296  ASN296      0.2629
    111  OD1      -38.3640   72.7230  156.9500 O.2   296  ASN296     -0.2716
    112  ND2      -40.1450   72.8100  158.3180 N.am  296  ASN296     -0.0877
    113  N        -43.2650   69.0790  151.1680 N.3   298  PHE298     -0.1241
    114  CA       -44.0150   67.8350  151.2570 C.3   298  PHE298      0.1605
    115  C        -44.5250   67.4970  149.8550 C.2   298  PHE298      0.2264
    116  O        -44.5550   68.3750  148.9900 O.2   298  PHE298     -0.2867
    117  CB       -45.1610   67.9570  152.2710 C.3   298  PHE298      0.0534
    118  CG       -46.2650   68.8880  151.8480 C.ar  298  PHE298     -0.0203
    119  CD1      -47.2960   68.4440  151.0260 C.ar  298  PHE298     -0.0042
    120  CD2      -46.2880   70.2110  152.2850 C.ar  298  PHE298     -0.0042
    121  CE1      -48.3120   69.3000  150.6340 C.ar  298  PHE298     -0.0003
    122  CE2      -47.3100   71.0620  151.9020 C.ar  298  PHE298     -0.0003
    123  CZ       -48.3200   70.6130  151.0750 C.ar  298  PHE298     -0.0000
    124  N        -36.0630   79.9880  162.6880 N.3   328  ARG328     -0.1245
    125  CA       -36.1880   78.6480  163.2600 C.3   328  ARG328      0.1563
    126  C        -35.2950   77.6720  162.4990 C.2   328  ARG328      0.2260
    127  O        -35.5080   77.4190  161.3130 O.2   328  ARG328     -0.2867
    128  CB       -37.6440   78.1630  163.2140 C.3   328  ARG328      0.0307
    129  CG       -37.8890   76.9000  164.0240 C.3   328  ARG328      0.0489
    130  CD       -39.3580   76.5210  164.0510 C.3   328  ARG328      0.2205
    131  NE       -40.1650   77.4220  164.8810 N.pl3 328  ARG328     -0.0865
    132  CZ       -41.4450   77.2160  165.1740 C.cat 328  ARG328      0.5346
    133  NH1      -42.0820   76.1420  164.7050 N.pl3 328  ARG328      0.1354
    134  NH2      -42.0970   78.0850  165.9420 N.pl3 328  ARG328      0.1354
    135  N        -44.6340   71.0650  160.0630 N.3   339  GLY339     -0.1225
    136  CA       -45.4860   70.9580  158.8880 C.3   339  GLY339      0.1811
    137  C        -45.3760   69.6970  158.0420 C.2   339  GLY339      0.2280
    138  O        -46.1500   69.5430  157.1000 O.2   339  GLY339     -0.2866
@<TRIPOS>BOND
     1   116   115    2
     2   103   104   ar
     3   103   101   ar
     4   104   102   ar
     5   115   114    1
     6   121   119   ar
     7   121   123   ar
     8   101    98   ar
     9   102   100   ar
    10   119   118   ar
    11   123   122   ar
    12   113   114    1
    13   114   117    1
    14    98   100   ar
    15    98    96   ar
    16   100    99   ar
    17   118   117    1
    18   118   120   ar
    19   122   120   ar
    20    99    97   ar
    21    96    95    1
    22    96    97   ar
    23     7     8    1
    24     8    11    1
    25     8     9    1
    26    95    92    1
    27    11    12    1
    28    94    93    2
    29   107   108    2
    30   107   106    1
    31     9    10    2
    32     9    18   am
    33    93    92    1
    34    93   105   am
    35     3     4    2
    36     3     2    1
    37    92    91    1
    38    14    12   ar
    39    14    16   ar
    40    18    19    1
    41    21    20    2
    42    12    13   ar
    43   106   105    1
    44   106   109    1
    45    91    86   am
    46    20    19    1
    47    72    71    2
    48     2     1    1
    49     2     5    1
    50    19    22    1
    51    16    17   ar
    52    53    52    2
    53    13    15   ar
    54    86    85    1
    55    86    87    2
    56    71    70    1
    57    74    73    1
    58   109   110    1
    59    75    73    1
    60    85    88    1
    61    85    84    1
    62    88    89    1
    63     5     6    1
    64    22    23    1
    65    17    15   ar
    66    52    51    1
    67    73    70    1
    68   111   110    2
    69   138   137    2
    70   110   112   am
    71    70    69    1
    72    79    78    2
    73    89    90    1
    74    54    51    1
    75    54    55    1
    76    84    78   am
    77    84    90    1
    78    51    50    1
    79   137   136    1
    80    78    77    1
    81    55    57   ar
    82    55    56   ar
    83   136   135    1
    84    57    59   ar
    85    56    58   ar
    86    77    76    1
    87    77    80    1
    88    58    59   ar
    89    82    80    1
    90    80    81    1
    91   127   126    2
    92    81    83    1
    93    47    46    2
    94    63    62    2
    95    43    42    1
    96    62    61    1
    97    46    45    1
    98    42    39    1
    99   126   125    1
   100    48    45    1
   101    48    49    1
   102   124   125    1
   103    41    40    2
   104    45    44    1
   105   128   125    1
   106   128   129    1
   107    61    64    1
   108    61    60    1
   109    39    40    1
   110    39    38    1
   111    64    65    1
   112   129   130    1
   113   130   131    1
   114   133   132    1
   115   131   132    2
   116    65    66    1
   117   132   134    1
   118    27    26    2
   119    66    68   ar
   120    66    67   ar
   121    26    25    1
   122    37    36    1
   123    28    25    1
   124    28    29    1
   125    25    24    1
   126    30    29    1
   127    30    31    1
   128    36    33    1
   129    34    35    2
   130    34    33    1
   131    33    32    1
