@<TRIPOS>MOLECULE
tmp/5hrcA00.pdb
 116 110 0 0 0
SMALL
GASTEIGER

@<TRIPOS>ATOM
      1  N         13.4200   14.5110   22.9960 N.3    10  MET10      -0.1245
      2  CA        13.7710   13.3990   22.0990 C.3    10  MET10       0.1570
      3  C         15.1530   13.5560   21.4550 C.2    10  MET10       0.2261
      4  O         15.2310   13.6890   20.2430 O.2    10  MET10      -0.2867
      5  CB        12.6950   13.2590   20.9900 C.3    10  MET10       0.0387
      6  CG        11.2290   13.1650   21.5130 C.3    10  MET10       0.0595
      7  SD         9.8540   12.9560   20.3770 S.3    10  MET10      -0.1393
      8  CE         8.9380   14.5030   20.7380 C.3    10  MET10       0.0692
      9  N         10.9840   10.0910   26.5710 N.3    45  PHE45      -0.1241
     10  CA        11.6320    9.5010   25.4090 C.3    45  PHE45       0.1605
     11  C         11.6060    7.9780   25.4400 C.2    45  PHE45       0.2264
     12  O         11.7400    7.3450   24.3860 O.2    45  PHE45      -0.2867
     13  CB        13.0780    9.9820   25.3180 C.3    45  PHE45       0.0534
     14  CG        13.7050    9.7750   23.9690 C.ar   45  PHE45      -0.0203
     15  CD1       12.9360    9.7940   22.8240 C.ar   45  PHE45      -0.0042
     16  CD2       15.0630    9.5650   23.8560 C.ar   45  PHE45      -0.0042
     17  CE1       13.5110    9.6260   21.5970 C.ar   45  PHE45      -0.0003
     18  CE2       15.6430    9.4020   22.6230 C.ar   45  PHE45      -0.0003
     19  CZ        14.8650    9.4150   21.4950 C.ar   45  PHE45      -0.0000
     20  N         10.1630    3.1420   18.2360 N.3    52  GLN52      -0.1245
     21  CA        11.1140    3.1140   17.1240 C.3    52  GLN52       0.1566
     22  C         11.6140    1.7000   16.8540 C.2    52  GLN52       0.2260
     23  O         11.5440    1.2100   15.7220 O.2    52  GLN52      -0.2867
     24  CB        12.3060    4.0210   17.4040 C.3    52  GLN52       0.0367
     25  CG        11.9880    5.5140   17.4570 C.3    52  GLN52       0.0905
     26  CD        13.2150    6.3540   17.7490 C.2    52  GLN52       0.2608
     27  OE1       14.3260    5.8350   17.8900 O.2    52  GLN52      -0.2717
     28  NE2       13.0210    7.6690   17.8400 N.am   52  GLN52      -0.0878
     29  N         13.6460   16.7410   16.5780 N.3    83  THR83      -0.1203
     30  CA        14.1920   15.4100   16.3160 C.3    83  THR83       0.1994
     31  C         14.0940   15.0870   14.8350 C.2    83  THR83       0.2618
     32  O         13.0280   15.2590   14.2360 O.2    83  THR83      -0.2717
     33  CB        13.4570   14.3180   17.1030 C.3    83  THR83       0.1784
     34  OG1       13.6430   13.0510   16.4380 O.3    83  THR83      -0.2211
     35  CG2       11.9680   14.6110   17.2000 C.3    83  THR83       0.0376
     36  N         15.1940   14.6280   14.2360 N.am   84  ASN84      -0.1960
     37  CA        15.1590   14.2640   12.8240 C.3    84  ASN84       0.1819
     38  C         14.3930   12.9680   12.6150 C.2    84  ASN84       0.2622
     39  O         13.5540   12.8880   11.7120 O.2    84  ASN84      -0.2715
     40  CB        16.5700   14.1390   12.2580 C.3    84  ASN84       0.1195
     41  CG        17.2500   15.4970   12.0660 C.2    84  ASN84       0.2630
     42  OD1       17.0380   16.1730   11.0600 O.2    84  ASN84      -0.2716
     43  ND2       18.0780   15.8900   13.0270 N.am   84  ASN84      -0.0877
     44  N         14.6440   11.9580   13.4600 N.am   85  THR85      -0.1937
     45  CA        14.0300   10.6420   13.2500 C.3    85  THR85       0.2028
     46  C         12.5150   10.7510   13.2280 C.2    85  THR85       0.2642
     47  O         11.8540   10.1580   12.3680 O.2    85  THR85      -0.2714
     48  CB        14.4680    9.6500   14.3360 C.3    85  THR85       0.1808
     49  OG1       15.8960    9.5450   14.3750 O.3    85  THR85      -0.2208
     50  CG2       13.8840    8.2390   14.0670 C.3    85  THR85       0.0379
     51  N         11.9390   11.5170   14.1540 N.am   86  MET86      -0.1976
     52  CA        10.4860   11.4940   14.2400 C.3    86  MET86       0.1605
     53  C          9.8030   12.2710   13.1290 C.2    86  MET86       0.2287
     54  O          8.5680   12.2750   13.0820 O.2    86  MET86      -0.2864
     55  CB        10.0040   12.0280   15.6090 C.3    86  MET86       0.0413
     56  CG        10.5120   11.1790   16.7740 C.3    86  MET86       0.0598
     57  SD        10.4500    9.3590   16.4800 S.3    86  MET86      -0.1393
     58  CE         8.7480    9.1480   16.0160 C.3    86  MET86       0.0692
     59  N         20.4370    8.7640   13.1470 N.3   125  THR125     -0.1218
     60  CA        20.0730    7.4240   13.5840 C.3   125  THR125      0.1862
     61  C         20.0930    6.4870   12.3870 C.2   125  THR125      0.2287
     62  O         20.1250    6.9160   11.2300 O.2   125  THR125     -0.2866
     63  CB        18.6890    7.4050   14.2240 C.3   125  THR125      0.1770
     64  OG1       17.7140    7.7840   13.2470 O.3   125  THR125     -0.2211
     65  CG2       18.6240    8.3840   15.3990 C.3   125  THR125      0.0375
     66  N         24.6520    7.3510   19.6270 N.3   161  ILE161     -0.1231
     67  CA        23.5110    8.2470   19.8250 C.3   161  ILE161      0.1692
     68  C         22.6300    7.7630   20.9750 C.2   161  ILE161      0.2592
     69  O         22.2340    8.5420   21.8440 O.2   161  ILE161     -0.2718
     70  CB        22.7050    8.3790   18.5210 C.3   161  ILE161      0.0266
     71  CG1       23.4460    9.2870   17.5270 C.3   161  ILE161      0.0019
     72  CG2       21.2830    8.8840   18.7970 C.3   161  ILE161      0.0020
     73  CD1       22.8960    9.1860   16.1140 C.3   161  ILE161      0.0001
     74  N         22.3100    6.4700   21.0070 N.am  162  PHE162     -0.1976
     75  CA        21.3110    6.0360   21.9740 C.3   162  PHE162      0.1639
     76  C         21.9120    5.6000   23.2980 C.2   162  PHE162      0.2290
     77  O         21.2770    5.8050   24.3440 O.2   162  PHE162     -0.2864
     78  CB        20.4490    4.9200   21.3810 C.3   162  PHE162      0.0560
     79  CG        19.4590    5.4160   20.3780 C.ar  162  PHE162     -0.0200
     80  CD1       18.3990    6.2220   20.7750 C.ar  162  PHE162     -0.0042
     81  CD2       19.6040    5.1250   19.0330 C.ar  162  PHE162     -0.0042
     82  CE1       17.4810    6.7140   19.8430 C.ar  162  PHE162     -0.0003
     83  CE2       18.6910    5.6060   18.0990 C.ar  162  PHE162     -0.0003
     84  CZ        17.6320    6.4060   18.5030 C.ar  162  PHE162     -0.0000
     85  N         22.2450   10.4240   24.1190 N.3   166  CYS166     -0.1235
     86  CA        20.9550   10.6400   24.7630 C.3   166  CYS166      0.1677
     87  C         20.9940   10.4220   26.2710 C.2   166  CYS166      0.2270
     88  O         19.9830   10.6720   26.9400 O.2   166  CYS166     -0.2867
     89  CB        19.9040    9.7300   24.1290 C.3   166  CYS166      0.0956
     90  SG        19.4510   10.1960   22.4410 S.3   166  CYS166     -0.0801
     91  N         22.5190   14.9800   11.2150 N.3   196  GLY196     -0.1210
     92  CA        21.1060   14.6750   11.0620 C.3   196  GLY196      0.1956
     93  C         20.5280   13.9260   12.2440 C.2   196  GLY196      0.2612
     94  O         19.4970   13.2590   12.1360 O.2   196  GLY196     -0.2717
     95  N         21.2100   14.0180   13.3760 N.am  197  CYS197     -0.1956
     96  CA        20.6530   13.6860   14.6780 C.3   197  CYS197      0.1843
     97  C         20.8960   14.8840   15.5780 C.2   197  CYS197      0.2626
     98  O         22.0340   15.3500   15.6870 O.2   197  CYS197     -0.2714
     99  CB        21.2970   12.4220   15.2580 C.3   197  CYS197      0.0997
    100  SG        21.1390   12.2360   17.0480 S.3   197  CYS197     -0.0797
    101  N         19.8360   15.3670   16.2360 N.am  198  THR198     -0.1936
    102  CA        19.9050   16.6420   16.9530 C.3   198  THR198      0.2028
    103  C         20.9330   16.6400   18.0800 C.2   198  THR198      0.2642
    104  O         21.3110   17.7210   18.5530 O.2   198  THR198     -0.2714
    105  CB        18.5280   17.0170   17.5180 C.3   198  THR198      0.1808
    106  OG1       17.9750   15.9120   18.2440 O.3   198  THR198     -0.2208
    107  CG2       17.5620   17.4190   16.4080 C.3   198  THR198      0.0379
    108  N         21.3910   15.4620   18.5320 N.am  199  GLU199     -0.1976
    109  CA        22.4120   15.3980   19.5690 C.3   199  GLU199      0.1602
    110  C         23.8400   15.4400   19.0330 C.2   199  GLU199      0.2287
    111  O         24.7640   15.6790   19.8150 O.2   199  GLU199     -0.2864
    112  CB        22.2570   14.1200   20.4060 C.3   199  GLU199      0.0415
    113  CG        21.1480   14.1400   21.4550 C.3   199  GLU199      0.1163
    114  CD        19.7820   13.8200   20.8950 C.2   199  GLU199      0.3649
    115  OE1       19.6980   13.2510   19.7910 O.co2 199  GLU199     -0.2457
    116  OE2       18.7840   14.1200   21.5760 O.co2 199  GLU199     -0.2457
@<TRIPOS>BOND
     1    42    41    2
     2    92    91    1
     3    92    93    1
     4    62    61    2
     5    39    38    2
     6    41    40    1
     7    41    43   am
     8    94    93    2
     9    93    95   am
    10    40    37    1
    11    47    46    2
    12    61    60    1
    13    38    37    1
    14    38    44   am
    15    37    36    1
    16    54    53    2
    17    53    52    1
    18    59    60    1
    19    46    45    1
    20    46    51   am
    21    64    63    1
    22    45    44    1
    23    45    48    1
    24    95    96    1
    25    60    63    1
    26    50    48    1
    27    51    52    1
    28    63    65    1
    29    36    31   am
    30    32    31    2
    31    52    55    1
    32    48    49    1
    33    96    99    1
    34    96    97    1
    35    31    30    1
    36    99   100    1
    37    97    98    2
    38    97   101   am
    39    55    56    1
    40    23    22    2
    41    58    57    1
    42    73    71    1
    43   101   102    1
    44    30    29    1
    45    30    33    1
    46   107   105    1
    47    34    33    1
    48    57    56    1
    49    22    21    1
    50   102   105    1
    51   102   103    1
    52    33    35    1
    53    21    24    1
    54    21    20    1
    55    24    25    1
    56    25    26    1
    57   105   106    1
    58    71    70    1
    59    26    28   am
    60    26    27    2
    61   103   108   am
    62   103   104    2
    63    83    84   ar
    64    83    81   ar
    65    84    82   ar
    66    70    72    1
    67    70    67    1
    68   108   109    1
    69    81    79   ar
    70   110   109    1
    71   110   111    2
    72   109   112    1
    73    66    67    1
    74   115   114   ar
    75    67    68    1
    76    82    80   ar
    77     4     3    2
    78     7     8    1
    79     7     6    1
    80    79    80   ar
    81    79    78    1
    82   112   113    1
    83   114   113    1
    84   114   116   ar
    85    68    74   am
    86    68    69    2
    87     5     6    1
    88     5     2    1
    89    74    75    1
    90    78    75    1
    91     3     2    1
    92    19    17   ar
    93    19    18   ar
    94    17    15   ar
    95    75    76    1
    96     2     1    1
    97    90    89    1
    98    18    16   ar
    99    15    14   ar
   100    76    77    2
   101    16    14   ar
   102    14    13    1
   103    85    86    1
   104    89    86    1
   105    12    11    2
   106    86    87    1
   107    13    10    1
   108    10    11    1
   109    10     9    1
   110    87    88    2
