@<TRIPOS>MOLECULE
tmp/5hrfA00.pdb
 153 148 0 0 0
SMALL
GASTEIGER

@<TRIPOS>ATOM
      1  N         21.4080   23.0870   -0.6600 N.3    42  GLY42      -0.1210
      2  CA        22.8020   23.1270   -1.0930 C.3    42  GLY42       0.1956
      3  C         22.9450   23.5750   -2.5300 C.2    42  GLY42       0.2612
      4  O         22.0710   24.2710   -3.0690 O.2    42  GLY42      -0.2717
      5  N         24.0320   23.1540   -3.1620 N.am   43  SER43      -0.1952
      6  CA        24.3320   23.5750   -4.5340 C.3    43  SER43       0.1924
      7  C         23.3220   23.0430   -5.5510 C.2    43  SER43       0.2314
      8  O         23.1510   23.6390   -6.6030 O.2    43  SER43      -0.2863
      9  CB        25.7610   23.1810   -4.9350 C.3    43  SER43       0.2116
     10  OG        26.0370   21.8360   -4.5950 O.3    43  SER43      -0.2180
     11  N         20.6570   25.5540   -5.7310 N.3    46  ARG46      -0.1245
     12  CA        21.2360   26.7010   -6.4310 C.3    46  ARG46       0.1563
     13  C         21.5590   26.3700   -7.8910 C.2    46  ARG46       0.2260
     14  O         22.0770   27.2150   -8.6240 O.2    46  ARG46      -0.2867
     15  CB        22.5050   27.1910   -5.7240 C.3    46  ARG46       0.0307
     16  CG        22.2650   27.7820   -4.3410 C.3    46  ARG46       0.0489
     17  CD        23.4480   28.6380   -3.9130 C.3    46  ARG46       0.2205
     18  NE        24.7340   27.9850   -4.1760 N.pl3  46  ARG46      -0.0865
     19  CZ        25.2830   27.0320   -3.4250 C.cat  46  ARG46       0.5346
     20  NH1       24.6800   26.5850   -2.3330 N.pl3  46  ARG46       0.1354
     21  NH2       26.4570   26.5190   -3.7710 N.pl3  46  ARG46       0.1354
     22  N         28.0000   21.4970  -11.3570 N.3    50  MET50      -0.1230
     23  CA        28.6290   20.3720  -10.6680 C.3    50  MET50       0.1702
     24  C         28.4230   20.4990   -9.1690 C.2    50  MET50       0.2592
     25  O         28.3600   21.6070   -8.6270 O.2    50  MET50      -0.2718
     26  CB        30.1350   20.2920  -10.9670 C.3    50  MET50       0.0401
     27  CG        30.5000   20.1580  -12.4350 C.3    50  MET50       0.0596
     28  SD        29.8580   18.7220  -13.3170 S.3    50  MET50      -0.1393
     29  CE        30.4130   17.3370  -12.3380 C.3    50  MET50       0.0692
     30  N         28.3310   19.3510   -8.5080 N.am   51  LEU51      -0.1966
     31  CA        28.0630   19.2910   -7.0760 C.3    51  LEU51       0.1728
     32  C         29.0610   18.3490   -6.4010 C.2    51  LEU51       0.2616
     33  O         29.4210   17.3040   -6.9540 O.2    51  LEU51      -0.2715
     34  CB        26.6450   18.7610   -6.8190 C.3    51  LEU51       0.0311
     35  CG        25.5060   19.1460   -7.7690 C.3    51  LEU51       0.0022
     36  CD1       24.3720   18.1400   -7.6320 C.3    51  LEU51       0.0001
     37  CD2       24.9980   20.5570   -7.5180 C.3    51  LEU51       0.0001
     38  N         29.4890   18.7040   -5.2000 N.am   52  ASN52      -0.1958
     39  CA        30.3800   17.8250   -4.4430 C.3    52  ASN52       0.1819
     40  C         29.6290   16.7430   -3.6820 C.2    52  ASN52       0.2621
     41  O         30.2100   15.7240   -3.3180 O.2    52  ASN52      -0.2715
     42  CB        31.2570   18.6580   -3.5110 C.3    52  ASN52       0.1195
     43  CG        32.2110   19.5440   -4.2830 C.2    52  ASN52       0.2630
     44  OD1       32.9530   19.0590   -5.1380 O.2    52  ASN52      -0.2716
     45  ND2       32.1830   20.8490   -4.0100 N.am   52  ASN52      -0.0877
     46  N         28.3380   16.9690   -3.4560 N.am   53  ASP53      -0.1971
     47  CA        27.4870   16.0390   -2.7170 C.3    53  ASP53       0.1709
     48  C         26.0190   16.4240   -2.8780 C.2    53  ASP53       0.2293
     49  O         25.7190   17.4880   -3.4260 O.2    53  ASP53      -0.2864
     50  CB        27.8630   16.0450   -1.2320 C.3    53  ASP53       0.1436
     51  CG        27.9020   17.4370   -0.6410 C.2    53  ASP53       0.3671
     52  OD1       26.9550   18.2060   -0.8500 O.co2  53  ASP53      -0.2456
     53  OD2       28.8820   17.7600    0.0570 O.co2  53  ASP53      -0.2456
     54  N         22.5970   17.3610   -0.8180 N.3    55  ASP55      -0.1239
     55  CA        22.1320   17.8460    0.4870 C.3    55  ASP55       0.1674
     56  C         20.5970   17.8120    0.5180 C.2    55  ASP55       0.2266
     57  O         19.9520   18.4710   -0.3030 O.2    55  ASP55      -0.2867
     58  CB        22.6420   19.2820    0.7270 C.3    55  ASP55       0.1410
     59  CG        24.1790   19.3850    0.7200 C.2    55  ASP55       0.3668
     60  OD1       24.8230   18.6330    1.4570 O.co2  55  ASP55      -0.2456
     61  OD2       24.7610   20.2290    0.0110 O.co2  55  ASP55      -0.2456
     62  N         24.1120   14.2090    2.2990 N.3   104  ASP104     -0.1239
     63  CA        23.9750   14.8900    3.5850 C.3   104  ASP104      0.1674
     64  C         22.5200   15.0780    3.9620 C.2   104  ASP104      0.2266
     65  O         21.7530   15.6930    3.2120 O.2   104  ASP104     -0.2867
     66  CB        24.6550   16.2490    3.5410 C.3   104  ASP104      0.1410
     67  CG        26.1130   16.1550    3.1010 C.2   104  ASP104      0.3668
     68  OD1       26.7930   15.1820    3.4860 O.co2 104  ASP104     -0.2456
     69  OD2       26.5740   17.0560    2.3710 O.co2 104  ASP104     -0.2456
     70  N         19.9040   16.6990    6.7420 N.3   106  PHE106     -0.1241
     71  CA        19.7300   17.6580    7.8130 C.3   106  PHE106      0.1605
     72  C         18.2750   17.6270    8.2600 C.2   106  PHE106      0.2264
     73  O         17.3940   17.2790    7.4710 O.2   106  PHE106     -0.2867
     74  CB        20.1040   19.0560    7.3190 C.3   106  PHE106      0.0534
     75  CG        21.4690   19.1280    6.6840 C.ar  106  PHE106     -0.0203
     76  CD1       22.6080   19.1630    7.4750 C.ar  106  PHE106     -0.0042
     77  CD2       21.6150   19.1640    5.3020 C.ar  106  PHE106     -0.0042
     78  CE1       23.8640   19.2320    6.9050 C.ar  106  PHE106     -0.0003
     79  CE2       22.8760   19.2350    4.7250 C.ar  106  PHE106     -0.0003
     80  CZ        24.0020   19.2580    5.5280 C.ar  106  PHE106     -0.0000
     81  N         19.4200   28.8930    5.3230 N.3   119  HIS119     -0.1226
     82  CA        20.7570   28.4880    5.7660 C.3   119  HIS119      0.1752
     83  C         21.4040   27.4630    4.8310 C.2   119  HIS119      0.2596
     84  O         22.4980   27.6990    4.3120 O.2   119  HIS119     -0.2718
     85  CB        20.6610   27.9380    7.1930 C.3   119  HIS119      0.0759
     86  CG        21.8800   27.2080    7.6610 C.ar  119  HIS119      0.0818
     87  ND1       22.9660   27.8470    8.2150 N.ar  119  HIS119     -0.2268
     88  CD2       22.1660   25.8870    7.6940 C.ar  119  HIS119      0.1154
     89  CE1       23.8740   26.9520    8.5540 C.ar  119  HIS119      0.1986
     90  NE2       23.4100   25.7540    8.2510 N.ar  119  HIS119     -0.2212
     91  N         20.7310   26.3370    4.6120 N.am  120  PHE120     -0.1962
     92  CA        21.3000   25.2420    3.8210 C.3   120  PHE120      0.1771
     93  C         21.3000   25.4860    2.3070 C.2   120  PHE120      0.2620
     94  O         21.8870   24.7050    1.5670 O.2   120  PHE120     -0.2715
     95  CB        20.5990   23.9160    4.1340 C.3   120  PHE120      0.0574
     96  CG        20.9200   23.3670    5.4910 C.ar  120  PHE120     -0.0200
     97  CD1       22.2070   22.9280    5.7920 C.ar  120  PHE120     -0.0042
     98  CD2       19.9410   23.2800    6.4750 C.ar  120  PHE120     -0.0042
     99  CE1       22.5130   22.4170    7.0450 C.ar  120  PHE120     -0.0003
    100  CE2       20.2410   22.7740    7.7310 C.ar  120  PHE120     -0.0003
    101  CZ        21.5300   22.3400    8.0160 C.ar  120  PHE120     -0.0000
    102  N         20.6390   26.5440    1.8370 N.am  121  THR121     -0.1937
    103  CA        20.7010   26.8990    0.4160 C.3   121  THR121      0.2028
    104  C         22.0470   27.5700    0.1190 C.2   121  THR121      0.2643
    105  O         22.6520   27.3420   -0.9300 O.2   121  THR121     -0.2714
    106  CB        19.5330   27.8180   -0.0130 C.3   121  THR121      0.1808
    107  OG1       18.2970   27.0950    0.0600 O.3   121  THR121     -0.2208
    108  CG2       19.7140   28.3130   -1.4370 C.3   121  THR121      0.0379
    109  N         22.5080   28.4080    1.0380 N.am  122  GLY122     -0.1940
    110  CA        23.7670   29.1240    0.8500 C.3   122  GLY122      0.1999
    111  C         23.6780   30.0930   -0.3150 C.2   122  GLY122      0.2481
    112  O         22.5870   30.5840   -0.6240 O.2   122  GLY122     -0.2729
    113  N         24.8210   30.3810   -0.9750 N.am  123  PRO123     -0.2715
    114  CA        26.1490   29.8460   -0.6720 C.3   123  PRO123      0.1536
    115  C         26.7230   30.4890    0.5830 C.2   123  PRO123      0.2598
    116  O         26.1160   31.4120    1.1350 O.2   123  PRO123     -0.2715
    117  CB        26.9730   30.2190   -1.9070 C.3   123  PRO123      0.0310
    118  CG        26.3090   31.4250   -2.4590 C.3   123  PRO123      0.0237
    119  CD        24.8540   31.3470   -2.0860 C.3   123  PRO123      0.0939
    120  N         27.8830   30.0070    1.0170 N.am  124  VAL124     -0.1978
    121  CA        28.4600   30.4430    2.2910 C.3   124  VAL124      0.1596
    122  C         28.7360   31.9400    2.2820 C.2   124  VAL124      0.2287
    123  O         28.3840   32.6360    3.2340 O.2   124  VAL124     -0.2864
    124  CB        29.7460   29.6660    2.6350 C.3   124  VAL124      0.0276
    125  CG1       30.4030   30.2270    3.8880 C.3   124  VAL124      0.0022
    126  CG2       29.4320   28.1960    2.8330 C.3   124  VAL124      0.0022
    127  N         25.6190   34.0750    2.8420 N.3   127  LEU127     -0.1231
    128  CA        25.1460   33.9910    4.2280 C.3   127  LEU127      0.1693
    129  C         26.0090   34.8110    5.1910 C.2   127  LEU127      0.2591
    130  O         25.4930   35.4000    6.1340 O.2   127  LEU127     -0.2718
    131  CB        25.0980   32.5310    4.6970 C.3   127  LEU127      0.0284
    132  CG        24.1180   31.5850    3.9870 C.3   127  LEU127      0.0019
    133  CD1       24.3710   30.1540    4.4300 C.3   127  LEU127      0.0001
    134  CD2       22.6690   31.9680    4.2370 C.3   127  LEU127      0.0001
    135  N         27.3220   34.8370    4.9630 N.am  128  ILE128     -0.1980
    136  CA        28.2290   35.6080    5.8150 C.3   128  ILE128      0.1595
    137  C         27.8790   37.0910    5.7450 C.2   128  ILE128      0.2287
    138  O         27.8580   37.7730    6.7690 O.2   128  ILE128     -0.2864
    139  CB        29.7090   35.3740    5.4310 C.3   128  ILE128      0.0276
    140  CG1       30.1210   33.9430    5.7870 C.3   128  ILE128      0.0022
    141  CG2       30.6360   36.3590    6.1420 C.3   128  ILE128      0.0022
    142  CD1       31.2940   33.4390    4.9820 C.3   128  ILE128      0.0001
    143  N         24.2230   37.7390    7.3890 N.3   131  ARG131     -0.1245
    144  CA        24.3030   37.6300    8.8390 C.3   131  ARG131      0.1563
    145  C         25.0980   38.7570    9.4900 C.2   131  ARG131      0.2260
    146  O         24.7270   39.2400   10.5670 O.2   131  ARG131     -0.2867
    147  CB        24.8980   36.2830    9.2270 C.3   131  ARG131      0.0307
    148  CG        23.9830   35.1260    8.9040 C.3   131  ARG131      0.0489
    149  CD        24.6390   33.7880    9.1490 C.3   131  ARG131      0.2205
    150  NE        23.6750   32.7210    8.9210 N.pl3 131  ARG131     -0.0865
    151  CZ        23.7240   31.5100    9.4720 C.cat 131  ARG131      0.5346
    152  NH1       24.7030   31.1660   10.3050 N.pl3 131  ARG131      0.1354
    153  NH2       22.7720   30.6330    9.1900 N.pl3 131  ARG131      0.1354
@<TRIPOS>BOND
     1    28    27    1
     2    28    29    1
     3    27    26    1
     4    22    23    1
     5    26    23    1
     6    23    24    1
     7    24    25    2
     8    24    30   am
     9    14    13    2
    10    30    31    1
    11    13    12    1
    12    35    36    1
    13    35    37    1
    14    35    34    1
    15    31    34    1
    16    31    32    1
    17    33    32    2
    18     8     7    2
    19    12    11    1
    20    12    15    1
    21    32    38   am
    22    15    16    1
    23     7     6    1
    24    38    39    1
    25    44    43    2
    26     9    10    1
    27     9     6    1
    28     6     5    1
    29    39    40    1
    30    39    42    1
    31    16    17    1
    32    43    45   am
    33    43    42    1
    34    18    17    1
    35    18    19    2
    36    21    19    1
    37    40    46   am
    38    40    41    2
    39    46    47    1
    40    49    48    2
    41    19    20    1
    42     5     3   am
    43     4     3    2
    44    48    47    1
    45    47    50    1
    46     3     2    1
    47   118   119    1
    48   118   117    1
    49   119   113    1
    50   117   114    1
    51   108   106    1
    52    50    51    1
    53     2     1    1
    54   113   114    1
    55   113   111   am
    56   105   104    2
    57    52    51   ar
    58    54    55    1
    59   114   115    1
    60    51    53   ar
    61   112   111    2
    62   111   110    1
    63    57    56    2
    64   106   107    1
    65   106   103    1
    66    61    59   ar
    67   104   103    1
    68   104   109   am
    69   103   102    1
    70    55    56    1
    71    55    58    1
    72   115   120   am
    73   115   116    2
    74    59    58    1
    75    59    60   ar
    76   110   109    1
    77   120   121    1
    78    94    93    2
    79   102    93   am
    80   122   121    1
    81   122   123    2
    82   121   124    1
    83    62    63    1
    84    93    92    1
    85    69    67   ar
    86   124   126    1
    87   124   125    1
    88   127   128    1
    89    67    68   ar
    90    67    66    1
    91    65    64    2
    92    66    63    1
    93    63    64    1
    94    92    95    1
    95    92    91    1
    96   132   134    1
    97   132   133    1
    98   132   131    1
    99    95    96    1
   100   128   131    1
   101   128   129    1
   102    84    83    2
   103    91    83   am
   104    79    77   ar
   105    79    80   ar
   106    83    82    1
   107   135   129   am
   108   135   136    1
   109   142   140    1
   110   129   130    2
   111    77    75   ar
   112    81    82    1
   113   139   140    1
   114   139   136    1
   115   139   141    1
   116    96    97   ar
   117    96    98   ar
   118    80    78   ar
   119   137   136    1
   120   137   138    2
   121    82    85    1
   122    97    99   ar
   123    98   100   ar
   124    75    74    1
   125    75    76   ar
   126    70    71    1
   127    78    76   ar
   128    99   101   ar
   129    85    86    1
   130    74    71    1
   131   143   144    1
   132    73    72    2
   133    86    88   ar
   134    86    87   ar
   135    88    90   ar
   136   100   101   ar
   137    71    72    1
   138    87    89   ar
   139    90    89   ar
   140   144   147    1
   141   144   145    1
   142   148   149    1
   143   148   147    1
   144   150   149    1
   145   150   151    2
   146   153   151    1
   147   151   152    1
   148   145   146    2
