@<TRIPOS>MOLECULE
tmp/5hroE00.pdb
 131 128 0 0 0
SMALL
GASTEIGER

@<TRIPOS>ATOM
      1  N          2.7760  -67.8380  135.5850 N.3    18  VAL18      -0.1245
      2  CA         2.4040  -67.0630  136.7650 C.3    18  VAL18       0.1561
      3  C          2.3830  -65.5900  136.3780 C.2    18  VAL18       0.2260
      4  O          3.4000  -65.0550  135.9200 O.2    18  VAL18      -0.2867
      5  CB         3.3700  -67.3010  137.9420 C.3    18  VAL18       0.0252
      6  CG1        2.8170  -66.6860  139.2140 C.3    18  VAL18       0.0019
      7  CG2        3.6350  -68.7860  138.1400 C.3    18  VAL18       0.0019
      8  N          3.0950  -59.3990  139.1090 N.3    21  TRP21      -0.1241
      9  CA         2.3560  -58.5330  140.0150 C.3    21  TRP21       0.1605
     10  C          2.9010  -57.1090  139.9810 C.2    21  TRP21       0.2264
     11  O          4.0670  -56.8930  139.6340 O.2    21  TRP21      -0.2867
     12  CB         2.4130  -59.0800  141.4470 C.3    21  TRP21       0.0550
     13  CG         3.7990  -59.2770  141.9910 C.ar   21  TRP21       0.0003
     14  CD1        4.7010  -58.3070  142.3230 C.ar   21  TRP21       0.0946
     15  CD2        4.4240  -60.5280  142.3040 C.ar   21  TRP21       0.0152
     16  NE1        5.8540  -58.8770  142.8040 N.ar   21  TRP21      -0.2442
     17  CE2        5.7090  -60.2400  142.8050 C.ar   21  TRP21       0.0810
     18  CE3        4.0230  -61.8640  142.2030 C.ar   21  TRP21       0.0012
     19  CZ2        6.5980  -61.2390  143.2030 C.ar   21  TRP21       0.0191
     20  CZ3        4.9050  -62.8550  142.6020 C.ar   21  TRP21       0.0001
     21  CH2        6.1790  -62.5370  143.0920 C.ar   21  TRP21       0.0015
     22  N          7.1850  -64.5470  137.7820 N.3    56  PRO56      -0.2116
     23  CA         7.2090  -63.1880  138.3300 C.3    56  PRO56       0.1372
     24  C          8.6150  -62.7330  138.6730 C.2    56  PRO56       0.2244
     25  O          9.4850  -63.5250  139.0430 O.2    56  PRO56      -0.2868
     26  CB         6.3470  -63.2960  139.5910 C.3    56  PRO56       0.0268
     27  CG         5.5210  -64.5110  139.3890 C.3    56  PRO56       0.0207
     28  CD         6.3870  -65.4550  138.6230 C.3    56  PRO56       0.0892
     29  N         11.0080  -65.1470  141.1180 N.3    73  ASP73      -0.1239
     30  CA        10.2410  -66.0820  141.9420 C.3    73  ASP73       0.1674
     31  C         10.0820  -67.3860  141.1680 C.2    73  ASP73       0.2266
     32  O          9.0360  -67.6860  140.5900 O.2    73  ASP73      -0.2867
     33  CB         8.8930  -65.4830  142.3250 C.3    73  ASP73       0.1410
     34  CG         8.0700  -66.4160  143.1930 C.2    73  ASP73       0.3668
     35  OD1        8.6690  -67.2740  143.8750 O.co2  73  ASP73      -0.2456
     36  OD2        6.8260  -66.3040  143.1810 O.co2  73  ASP73      -0.2456
     37  N          9.6440  -70.2950  142.1940 N.3    75  ARG75      -0.1231
     38  CA         8.9900  -71.3530  142.9560 C.3    75  ARG75       0.1694
     39  C          8.1920  -72.2920  142.0590 C.2    75  ARG75       0.2591
     40  O          8.2210  -73.5140  142.2520 O.2    75  ARG75      -0.2718
     41  CB         8.1010  -70.7500  144.0430 C.3    75  ARG75       0.0321
     42  CG         8.8690  -70.3250  145.2870 C.3    75  ARG75       0.0489
     43  CD         7.9470  -69.7590  146.3450 C.3    75  ARG75       0.2205
     44  NE         7.3590  -68.4980  145.9140 N.pl3  75  ARG75      -0.0865
     45  CZ         6.5140  -67.7820  146.6460 C.cat  75  ARG75       0.5346
     46  NH1        6.1560  -68.2090  147.8470 N.pl3  75  ARG75       0.1354
     47  NH2        6.0300  -66.6390  146.1780 N.pl3  75  ARG75       0.1354
     48  N          7.4700  -71.7520  141.0760 N.am   76  GLU76      -0.1979
     49  CA         6.6950  -72.6340  140.2080 C.3    76  GLU76       0.1602
     50  C          7.5990  -73.4010  139.2510 C.2    76  GLU76       0.2287
     51  O          7.3280  -74.5630  138.9340 O.2    76  GLU76      -0.2864
     52  CB         5.6320  -71.8510  139.4410 C.3    76  GLU76       0.0415
     53  CG         4.5490  -72.7620  138.8900 C.3    76  GLU76       0.1163
     54  CD         3.8580  -73.5590  139.9890 C.2    76  GLU76       0.3649
     55  OE1        3.6800  -73.0130  141.0980 O.co2  76  GLU76      -0.2457
     56  OE2        3.5230  -74.7420  139.7590 O.co2  76  GLU76      -0.2457
     57  N          9.4580  -76.3660  141.2410 N.3    79  LYS79      -0.1245
     58  CA         8.6470  -77.5510  141.4940 C.3    79  LYS79       0.1561
     59  C          8.4940  -78.4140  140.2500 C.2    79  LYS79       0.2260
     60  O          8.2510  -79.6190  140.3740 O.2    79  LYS79      -0.2867
     61  CB         7.2600  -77.1680  142.0160 C.3    79  LYS79       0.0271
     62  CG         7.2280  -76.6770  143.4530 C.3    79  LYS79       0.0035
     63  CD         5.7980  -76.6470  143.9810 C.3    79  LYS79       0.0206
     64  CE         4.9470  -75.6290  143.2420 C.3    79  LYS79       0.1093
     65  NZ         3.5500  -75.5840  143.7620 N.3    79  LYS79      -0.1314
     66  N         -4.1560  -63.6220  153.5100 N.3   379  LYS379     -0.1245
     67  CA        -3.5000  -63.6980  152.2080 C.3   379  LYS379      0.1561
     68  C         -3.2300  -62.3050  151.6420 C.2   379  LYS379      0.2260
     69  O         -2.0900  -61.9780  151.2900 O.2   379  LYS379     -0.2867
     70  CB        -4.3560  -64.5310  151.2500 C.3   379  LYS379      0.0271
     71  CG        -3.7580  -64.7330  149.8700 C.3   379  LYS379      0.0035
     72  CD        -4.4520  -65.8670  149.1270 C.3   379  LYS379      0.0206
     73  CE        -3.7160  -66.2310  147.8460 C.3   379  LYS379      0.1093
     74  NZ        -3.8270  -65.1750  146.8060 N.3   379  LYS379     -0.1314
     75  N          0.4300  -60.6590  150.8650 N.3   383  GLU383     -0.1245
     76  CA         0.7530  -60.4910  149.4550 C.3   383  GLU383      0.1567
     77  C          0.8780  -59.0300  149.0470 C.2   383  GLU383      0.2260
     78  O          1.4750  -58.7400  148.0040 O.2   383  GLU383     -0.2867
     79  CB        -0.2970  -61.2120  148.6120 C.3   383  GLU383      0.0388
     80  CG        -0.1510  -62.7230  148.6970 C.3   383  GLU383      0.1160
     81  CD        -1.2290  -63.4800  147.9540 C.2   383  GLU383      0.3649
     82  OE1       -2.3300  -62.9250  147.7570 O.co2 383  GLU383     -0.2457
     83  OE2       -0.9800  -64.6470  147.5890 O.co2 383  GLU383     -0.2457
     84  N          4.9200  -58.0950  151.4380 N.3   386  TRP386     -0.1241
     85  CA         6.0830  -58.8740  151.8560 C.3   386  TRP386      0.1605
     86  C          7.3410  -58.5250  151.0650 C.2   386  TRP386      0.2264
     87  O          8.4430  -58.5760  151.6200 O.2   386  TRP386     -0.2867
     88  CB         5.7950  -60.3730  151.7630 C.3   386  TRP386      0.0550
     89  CG         5.7720  -60.9420  150.3790 C.ar  386  TRP386      0.0003
     90  CD1        4.6840  -61.0810  149.5670 C.ar  386  TRP386      0.0946
     91  CD2        6.8880  -61.4660  149.6480 C.ar  386  TRP386      0.0152
     92  NE1        5.0540  -61.6600  148.3760 N.ar  386  TRP386     -0.2442
     93  CE2        6.4020  -61.9060  148.4020 C.ar  386  TRP386      0.0810
     94  CE3        8.2520  -61.6040  149.9280 C.ar  386  TRP386      0.0012
     95  CZ2        7.2310  -62.4700  147.4340 C.ar  386  TRP386      0.0191
     96  CZ3        9.0730  -62.1660  148.9660 C.ar  386  TRP386      0.0001
     97  CH2        8.5600  -62.5910  147.7350 C.ar  386  TRP386      0.0015
     98  N          8.0050  -71.9210  150.0940 N.3   397  GLU397     -0.1231
     99  CA         6.5730  -72.1280  149.9080 C.3   397  GLU397      0.1699
    100  C          5.8300  -71.7720  151.1840 C.2   397  GLU397      0.2592
    101  O          6.3000  -72.0480  152.2920 O.2   397  GLU397     -0.2718
    102  CB         6.2670  -73.5760  149.5180 C.3   397  GLU397      0.0402
    103  CG         6.7050  -73.9740  148.1210 C.3   397  GLU397      0.1161
    104  CD         5.5590  -73.8810  147.1310 C.2   397  GLU397      0.3649
    105  OE1        4.3990  -73.7510  147.5800 O.co2 397  GLU397     -0.2457
    106  OE2        5.8100  -73.9320  145.9090 O.co2 397  GLU397     -0.2457
    107  N          4.6500  -71.1790  151.0300 N.am  398  TRP398     -0.1976
    108  CA         3.8620  -70.8020  152.1900 C.3   398  TRP398      0.1640
    109  C          2.3810  -70.9710  151.8960 C.2   398  TRP398      0.2290
    110  O          1.9390  -70.9600  150.7450 O.2   398  TRP398     -0.2864
    111  CB         4.1430  -69.3550  152.6270 C.3   398  TRP398      0.0576
    112  CG         3.9810  -68.3130  151.5470 C.ar  398  TRP398      0.0006
    113  CD1        2.8680  -68.0760  150.7890 C.ar  398  TRP398      0.0946
    114  CD2        4.9550  -67.3450  151.1370 C.ar  398  TRP398      0.0152
    115  NE1        3.0960  -67.0350  149.9220 N.ar  398  TRP398     -0.2442
    116  CE2        4.3690  -66.5670  150.1180 C.ar  398  TRP398      0.0810
    117  CE3        6.2670  -67.0650  151.5280 C.ar  398  TRP398      0.0012
    118  CZ2        5.0510  -65.5290  149.4850 C.ar  398  TRP398      0.0191
    119  CZ3        6.9420  -66.0360  150.8990 C.ar  398  TRP398      0.0001
    120  CH2        6.3330  -65.2800  149.8890 C.ar  398  TRP398      0.0015
    121  N         -1.5470  -69.9080  154.1800 N.3   400  PHE400     -0.1241
    122  CA        -2.0680  -68.9810  155.1740 C.3   400  PHE400      0.1605
    123  C         -3.0780  -69.6860  156.0680 C.2   400  PHE400      0.2264
    124  O         -3.9630  -70.3950  155.5790 O.2   400  PHE400     -0.2867
    125  CB        -2.6820  -67.7610  154.4890 C.3   400  PHE400      0.0534
    126  CG        -1.7770  -67.1400  153.4630 C.ar  400  PHE400     -0.0203
    127  CD1       -0.7010  -66.3630  153.8530 C.ar  400  PHE400     -0.0042
    128  CD2       -1.9930  -67.3480  152.1130 C.ar  400  PHE400     -0.0042
    129  CE1        0.1400  -65.7940  152.9150 C.ar  400  PHE400     -0.0003
    130  CE2       -1.1580  -66.7820  151.1700 C.ar  400  PHE400     -0.0003
    131  CZ        -0.0900  -66.0030  151.5720 C.ar  400  PHE400     -0.0000
@<TRIPOS>BOND
     1     1     2    1
     2     4     3    2
     3     3     2    1
     4     2     5    1
     5    22    23    1
     6    22    28    1
     7     5     7    1
     8     5     6    1
     9    23    24    1
    10    23    26    1
    11    28    27    1
    12    24    25    2
    13    53    52    1
    14    53    54    1
    15    51    50    2
    16     8     9    1
    17    50    49    1
    18    27    26    1
    19    52    49    1
    20    11    10    2
    21    56    54   ar
    22    10     9    1
    23    54    55   ar
    24     9    12    1
    25    49    48    1
    26    59    60    2
    27    59    58    1
    28    32    31    2
    29    48    39   am
    30    29    30    1
    31    31    30    1
    32    57    58    1
    33    12    13    1
    34    58    61    1
    35    30    33    1
    36    13    15   ar
    37    13    14   ar
    38    61    62    1
    39    39    40    2
    40    39    38    1
    41    37    38    1
    42    18    15   ar
    43    18    20   ar
    44    15    17   ar
    45    14    16   ar
    46    33    34    1
    47    20    21   ar
    48    16    17   ar
    49    17    19   ar
    50    38    41    1
    51    21    19   ar
    52    36    34   ar
    53    34    35   ar
    54    64    65    1
    55    64    63    1
    56    62    63    1
    57    41    42    1
    58    42    43    1
    59   106   104   ar
    60    44    43    1
    61    44    45    2
    62    47    45    1
    63    45    46    1
    64    74    73    1
    65   104   105   ar
    66   104   103    1
    67    95    97   ar
    68    95    93   ar
    69    83    81   ar
    70    97    96   ar
    71    82    81   ar
    72    73    72    1
    73    81    80    1
    74    78    77    2
    75   103   102    1
    76    92    93   ar
    77    92    90   ar
    78    93    91   ar
    79    79    80    1
    80    79    76    1
    81    96    94   ar
    82    77    76    1
    83    72    71    1
    84    76    75    1
    85   118   120   ar
    86   118   116   ar
    87   102    99    1
    88    90    89   ar
    89    91    94   ar
    90    91    89   ar
    91    71    70    1
    92   120   119   ar
    93    99    98    1
    94    99   100    1
    95   115   116   ar
    96   115   113   ar
    97   116   114   ar
    98    89    88    1
    99   110   109    2
   100   113   112   ar
   101   119   117   ar
   102   107   100   am
   103   107   108    1
   104    86    87    2
   105    86    85    1
   106   114   117   ar
   107   114   112   ar
   108   130   131   ar
   109   130   128   ar
   110   100   101    2
   111    70    67    1
   112    69    68    2
   113    84    85    1
   114   112   111    1
   115   131   129   ar
   116    68    67    1
   117    88    85    1
   118   109   108    1
   119   128   126   ar
   120   108   111    1
   121    67    66    1
   122   129   127   ar
   123   126   127   ar
   124   126   125    1
   125   121   122    1
   126   125   122    1
   127   122   123    1
   128   124   123    2
