@<TRIPOS>MOLECULE
tmp/5hrvA00.pdb
 119 114 0 0 0
SMALL
GASTEIGER

@<TRIPOS>ATOM
      1  N         26.3600   24.1260    8.8200 N.3    32  ILE32      -0.1231
      2  CA        25.7470   25.2480    9.5870 C.3    32  ILE32       0.1692
      3  C         24.2280   25.0710    9.7470 C.2    32  ILE32       0.2592
      4  O         23.6480   25.6150   10.6910 O.2    32  ILE32      -0.2718
      5  CB        26.0990   26.6190    8.9460 C.3    32  ILE32       0.0266
      6  CG1       25.8940   27.7850    9.9050 C.3    32  ILE32       0.0019
      7  CG2       25.3160   26.9300    7.6740 C.3    32  ILE32       0.0020
      8  CD1       26.9290   27.8720   10.9960 C.3    32  ILE32       0.0001
      9  N         23.5990   24.2980    8.8610 N.am   33  PHE33      -0.1976
     10  CA        22.1280   24.2150    8.8100 C.3    33  PHE33       0.1639
     11  C         21.5680   23.0930    9.6430 C.2    33  PHE33       0.2290
     12  O         20.3410   22.9500    9.7670 O.2    33  PHE33      -0.2864
     13  CB        21.6720   24.0230    7.3530 C.3    33  PHE33       0.0560
     14  CG        21.9940   25.1980    6.4680 C.ar   33  PHE33      -0.0200
     15  CD1       21.2500   26.3430    6.5580 C.ar   33  PHE33      -0.0042
     16  CD2       23.0680   25.1740    5.6040 C.ar   33  PHE33      -0.0042
     17  CE1       21.5280   27.4290    5.7180 C.ar   33  PHE33      -0.0003
     18  CE2       23.3660   26.2530    4.7880 C.ar   33  PHE33      -0.0003
     19  CZ        22.5760   27.3970    4.8360 C.ar   33  PHE33      -0.0000
     20  N         19.9610   24.9720   14.4950 N.3    36  LEU36      -0.1231
     21  CA        19.9440   26.3410   14.8800 C.3    36  LEU36       0.1678
     22  C         20.5430   26.5290   16.2970 C.2    36  LEU36       0.2434
     23  O         20.2460   25.7210   17.1680 O.2    36  LEU36      -0.2733
     24  CB        18.5180   26.8490   14.9470 C.3    36  LEU36       0.0284
     25  CG        17.9320   27.4240   13.6640 C.3    36  LEU36       0.0019
     26  CD1       16.4110   27.4930   13.8000 C.3    36  LEU36       0.0001
     27  CD2       18.5040   28.7880   13.3570 C.3    36  LEU36       0.0001
     28  N         21.2870   27.5960   16.5050 N.am   37  PRO37      -0.2729
     29  CA        21.6370   28.0370   17.8750 C.3    37  PRO37       0.1401
     30  C         20.3720   28.4660   18.6500 C.2    37  PRO37       0.2269
     31  O         19.2790   28.5660   18.0850 O.2    37  PRO37      -0.2865
     32  CB        22.5230   29.2430   17.6430 C.3    37  PRO37       0.0296
     33  CG        22.9860   29.1110   16.2110 C.3    37  PRO37       0.0237
     34  CD        21.7970   28.5490   15.5180 C.3    37  PRO37       0.0939
     35  N         21.3860   33.5580   19.0660 N.3    42  LEU42      -0.1245
     36  CA        21.0390   34.1410   17.7380 C.3    42  LEU42       0.1561
     37  C         19.7240   34.9290   17.8520 C.2    42  LEU42       0.2260
     38  O         18.7400   34.6930   17.1600 O.2    42  LEU42      -0.2867
     39  CB        20.9630   33.0130   16.6930 C.3    42  LEU42       0.0270
     40  CG        21.2060   33.5220   15.2560 C.3    42  LEU42       0.0019
     41  CD1       22.6690   33.9050   15.0530 C.3    42  LEU42       0.0001
     42  CD2       20.8220   32.4100   14.2750 C.3    42  LEU42       0.0001
     43  N         17.8310   36.4920   14.7430 N.3    45  TYR45      -0.1241
     44  CA        17.1720   35.5170   13.9250 C.3    45  TYR45       0.1605
     45  C         15.7840   35.2720   14.4740 C.2    45  TYR45       0.2264
     46  O         14.7840   35.3750   13.7700 O.2    45  TYR45      -0.2867
     47  CB        17.9990   34.1950   13.8120 C.3    45  TYR45       0.0534
     48  CG        17.2950   33.0580   13.1000 C.ar   45  TYR45      -0.0201
     49  CD1       16.3570   32.3170   13.7500 C.ar   45  TYR45      -0.0009
     50  CD2       17.5780   32.7310   11.7620 C.ar   45  TYR45      -0.0009
     51  CE1       15.6920   31.2750   13.1540 C.ar   45  TYR45       0.0417
     52  CE2       16.9090   31.6760   11.1280 C.ar   45  TYR45       0.0417
     53  CZ        15.9590   30.9570   11.8280 C.ar   45  TYR45       0.1957
     54  OH        15.2480   29.9050   11.2750 O.3    45  TYR45      -0.2866
     55  N         13.5480   27.0870   11.2000 N.3    53  MET53      -0.1230
     56  CA        13.7010   25.7730   10.5680 C.3    53  MET53       0.1702
     57  C         15.1510   25.3970   10.5420 C.2    53  MET53       0.2592
     58  O         15.9990   26.2310   10.2310 O.2    53  MET53      -0.2718
     59  CB        13.1420   25.8150    9.1550 C.3    53  MET53       0.0401
     60  CG        13.0640   24.4820    8.4670 C.3    53  MET53       0.0596
     61  SD        12.0180   23.2650    9.2690 S.3    53  MET53      -0.1393
     62  CE        10.4570   24.0920    9.2640 C.3    53  MET53       0.0692
     63  N         15.4480   24.1340   10.8460 N.am   54  ASP54      -0.1974
     64  CA        16.7880   23.5830   10.6940 C.3    54  ASP54       0.1709
     65  C         16.6740   22.1280   10.2210 C.2    54  ASP54       0.2293
     66  O         15.5680   21.5870   10.1630 O.2    54  ASP54      -0.2864
     67  CB        17.6290   23.7980   11.9770 C.3    54  ASP54       0.1436
     68  CG        17.1090   23.0550   13.2180 C.2    54  ASP54       0.3671
     69  OD1       16.3210   22.0760   13.1260 O.co2  54  ASP54      -0.2456
     70  OD2       17.5620   23.4600   14.3130 O.co2  54  ASP54      -0.2456
     71  N         13.6620   26.9620    5.0590 N.3    80  MET80      -0.1245
     72  CA        14.9510   27.1190    5.6990 C.3    80  MET80       0.1570
     73  C         15.8980   27.9630    4.9080 C.2    80  MET80       0.2261
     74  O         16.5750   28.8690    5.4310 O.2    80  MET80      -0.2867
     75  CB        15.6000   25.7480    5.9560 C.3    80  MET80       0.0387
     76  CG        16.8420   25.7930    6.8080 C.3    80  MET80       0.0595
     77  SD        17.5460   24.1400    7.0440 S.3    80  MET80      -0.1393
     78  CE        18.2440   23.8130    5.3930 C.3    80  MET80       0.0692
     79  N         14.6930   31.5860    4.8320 N.3    83  ASN83      -0.1225
     80  CA        15.0470   32.1730    6.1370 C.3    83  ASN83       0.1785
     81  C         16.4940   32.5750    6.1810 C.2    83  ASN83       0.2597
     82  O         16.8020   33.6950    6.5860 O.2    83  ASN83      -0.2718
     83  CB        14.7980   31.1950    7.3000 C.3    83  ASN83       0.1169
     84  CG        13.3380   30.9410    7.6030 C.2    83  ASN83       0.2627
     85  OD1       12.4050   31.6330    7.1360 O.2    83  ASN83      -0.2716
     86  ND2       13.1250   29.8950    8.3530 N.am   83  ASN83      -0.0877
     87  N         17.4180   31.6950    5.7530 N.am   84  ALA84      -0.1979
     88  CA        18.8320   32.0020    5.7730 C.3    84  ALA84       0.1597
     89  C         19.1580   33.2360    4.9050 C.2    84  ALA84       0.2287
     90  O         19.9730   34.0670    5.2880 O.2    84  ALA84      -0.2864
     91  CB        19.6330   30.8090    5.3110 C.3    84  ALA84       0.0319
     92  N         17.7190   36.5650    6.7300 N.3    87  TYR87      -0.1227
     93  CA        18.4440   36.9990    7.9130 C.3    87  TYR87       0.1736
     94  C         19.8540   37.4430    7.5730 C.2    87  TYR87       0.2595
     95  O         20.3610   38.4210    8.1500 O.2    87  TYR87      -0.2718
     96  CB        18.4310   35.8610    8.9610 C.3    87  TYR87       0.0548
     97  CG        19.2470   36.2350   10.1670 C.ar   87  TYR87      -0.0200
     98  CD1       18.9220   37.3520   10.9160 C.ar   87  TYR87      -0.0009
     99  CD2       20.3520   35.4780   10.5560 C.ar   87  TYR87      -0.0009
    100  CE1       19.7230   37.7140   12.0160 C.ar   87  TYR87       0.0417
    101  CE2       21.1210   35.8290   11.6600 C.ar   87  TYR87       0.0417
    102  CZ        20.8050   36.9430   12.3770 C.ar   87  TYR87       0.1957
    103  OH        21.6140   37.3060   13.4510 O.3    87  TYR87      -0.2866
    104  N         20.5180   36.7470    6.6440 N.am   88  ASN88      -0.1974
    105  CA        21.8800   37.0320    6.2590 C.3    88  ASN88       0.1688
    106  C         21.9470   37.8410    4.9660 C.2    88  ASN88       0.2292
    107  O         21.0470   37.7600    4.1570 O.2    88  ASN88      -0.2864
    108  CB        22.6740   35.7390    6.0950 C.3    88  ASN88       0.1181
    109  CG        22.7170   34.9260    7.3720 C.2    88  ASN88       0.2629
    110  OD1       23.5380   35.2020    8.2430 O.2    88  ASN88      -0.2716
    111  ND2       21.8280   33.9720    7.5100 N.am   88  ASN88      -0.0877
    112  N         26.8880   32.0770    4.3090 N.3    94  ILE94      -0.1245
    113  CA        25.7020   31.2850    4.6170 C.3    94  ILE94       0.1561
    114  C         24.6290   31.5200    3.5500 C.2    94  ILE94       0.2260
    115  O         23.9700   30.5580    3.1360 O.2    94  ILE94      -0.2867
    116  CB        25.0830   31.5560    6.0170 C.3    94  ILE94       0.0252
    117  CG1       26.0190   31.2210    7.1300 C.3    94  ILE94       0.0019
    118  CG2       23.8780   30.6500    6.2320 C.3    94  ILE94       0.0019
    119  CD1       25.5820   31.6930    8.5220 C.3    94  ILE94       0.0001
@<TRIPOS>BOND
     1   115   114    2
     2   114   113    1
     3   107   106    2
     4   112   113    1
     5   113   116    1
     6    18    19   ar
     7    18    16   ar
     8    79    80    1
     9    19    17   ar
    10    89    90    2
    11    89    88    1
    12    73    74    2
    13    73    72    1
    14   106   105    1
    15    71    72    1
    16    91    88    1
    17    78    77    1
    18    16    14   ar
    19    72    75    1
    20    17    15   ar
    21    87    88    1
    22    87    81   am
    23    75    76    1
    24   116   118    1
    25   116   117    1
    26   108   105    1
    27   108   109    1
    28    80    81    1
    29    80    83    1
    30    81    82    2
    31   105   104    1
    32    14    15   ar
    33    14    13    1
    34   104    94   am
    35    92    93    1
    36    76    77    1
    37   117   119    1
    38    85    84    2
    39    83    84    1
    40    13    10    1
    41   109   111   am
    42   109   110    2
    43    94    93    1
    44    94    95    2
    45    84    86   am
    46     7     5    1
    47    93    96    1
    48    60    59    1
    49    60    61    1
    50    10     9    1
    51    10    11    1
    52     1     2    1
    53     9     3   am
    54     5     2    1
    55     5     6    1
    56    96    97    1
    57    59    56    1
    58    62    61    1
    59     2     3    1
    60    11    12    2
    61     3     4    2
    62     6     8    1
    63    66    65    2
    64    97    99   ar
    65    97    98   ar
    66    65    64    1
    67    58    57    2
    68    57    56    1
    69    57    63   am
    70    99   101   ar
    71    56    55    1
    72    64    63    1
    73    64    67    1
    74    98   100   ar
    75    52    50   ar
    76    52    53   ar
    77    54    53    1
    78   101   102   ar
    79    50    48   ar
    80    53    51   ar
    81    67    68    1
    82   100   102   ar
    83   102   103    1
    84    48    49   ar
    85    48    47    1
    86    69    68   ar
    87    51    49   ar
    88    68    70   ar
    89    27    25    1
    90    25    26    1
    91    25    24    1
    92    46    45    2
    93    47    44    1
    94    44    45    1
    95    44    43    1
    96    42    40    1
    97    20    21    1
    98    21    24    1
    99    21    22    1
   100    41    40    1
   101    40    39    1
   102    34    33    1
   103    34    28    1
   104    33    32    1
   105    22    28   am
   106    22    23    2
   107    28    29    1
   108    39    36    1
   109    38    37    2
   110    32    29    1
   111    36    37    1
   112    36    35    1
   113    29    30    1
   114    31    30    2
