@<TRIPOS>MOLECULE
tmp/5hrxB00.pdb
 119 114 0 0 0
SMALL
GASTEIGER

@<TRIPOS>ATOM
      1  N         14.6420    1.8470   -8.8420 N.3    29  ILE29      -0.1231
      2  CA        14.4580    1.8660   -7.3580 C.3    29  ILE29       0.1692
      3  C         14.3450    3.2890   -6.7870 C.2    29  ILE29       0.2592
      4  O         13.6820    3.4600   -5.7690 O.2    29  ILE29      -0.2718
      5  CB        15.4910    0.9920   -6.5990 C.3    29  ILE29       0.0266
      6  CG1       14.9750    0.5390   -5.2160 C.3    29  ILE29       0.0019
      7  CG2       16.8310    1.6640   -6.5460 C.3    29  ILE29       0.0020
      8  CD1       15.6360   -0.7470   -4.6790 C.3    29  ILE29       0.0001
      9  N         14.8540    4.2940   -7.4860 N.am   30  PHE30      -0.1976
     10  CA        14.8840    5.6940   -7.0390 C.3    30  PHE30       0.1639
     11  C         13.6320    6.5010   -7.3750 C.2    30  PHE30       0.2290
     12  O         13.4330    7.6510   -6.9010 O.2    30  PHE30      -0.2864
     13  CB        16.1210    6.4200   -7.6220 C.3    30  PHE30       0.0560
     14  CG        17.4460    5.8030   -7.1580 C.ar   30  PHE30      -0.0200
     15  CD1       17.9550    6.0560   -5.8730 C.ar   30  PHE30      -0.0042
     16  CD2       18.1360    4.9540   -7.9840 C.ar   30  PHE30      -0.0042
     17  CE1       19.1360    5.4360   -5.4310 C.ar   30  PHE30      -0.0003
     18  CE2       19.2960    4.3060   -7.5530 C.ar   30  PHE30      -0.0003
     19  CZ        19.8050    4.5220   -6.2890 C.ar   30  PHE30      -0.0000
     20  N         10.1830    6.6320   -3.1720 N.3    33  LEU33      -0.1231
     21  CA        10.4890    6.0490   -1.8800 C.3    33  LEU33       0.1678
     22  C          9.2940    5.2600   -1.3760 C.2    33  LEU33       0.2434
     23  O          8.1080    5.6780   -1.5830 O.2    33  LEU33      -0.2733
     24  CB        10.8180    7.1420   -0.8550 C.3    33  LEU33       0.0284
     25  CG        12.2410    7.5840   -0.7160 C.3    33  LEU33       0.0019
     26  CD1       12.2100    8.8740    0.1180 C.3    33  LEU33       0.0001
     27  CD2       13.0410    6.4670   -0.0600 C.3    33  LEU33       0.0001
     28  N          9.5510    4.1530   -0.6790 N.am   34  PRO34      -0.2729
     29  CA         8.4370    3.5190    0.0480 C.3    34  PRO34       0.1401
     30  C          8.0630    4.3590    1.2750 C.2    34  PRO34       0.2269
     31  O          8.8580    5.2280    1.7060 O.2    34  PRO34      -0.2865
     32  CB         9.0430    2.1980    0.5510 C.3    34  PRO34       0.0296
     33  CG        10.2310    1.9650   -0.3390 C.3    34  PRO34       0.0237
     34  CD        10.7430    3.3050   -0.7130 C.3    34  PRO34       0.0939
     35  N          9.6570    1.1880    5.1010 N.3    39  LEU39      -0.1245
     36  CA        11.1320    1.3020    5.1190 C.3    39  LEU39       0.1561
     37  C         11.5970    2.1350    6.3340 C.2    39  LEU39       0.2260
     38  O         12.2570    3.1760    6.1810 O.2    39  LEU39      -0.2867
     39  CB        11.6320    1.8450    3.7830 C.3    39  LEU39       0.0270
     40  CG        13.1080    1.6380    3.4190 C.3    39  LEU39       0.0019
     41  CD1       13.3770    0.2100    3.0210 C.3    39  LEU39       0.0001
     42  CD2       13.5830    2.6340    2.3350 C.3    39  LEU39       0.0001
     43  N         15.1790    3.6810    7.0390 N.3    42  TYR42      -0.1241
     44  CA        15.5680    4.8060    6.1530 C.3    42  TYR42       0.1605
     45  C         15.2030    6.1600    6.8100 C.2    42  TYR42       0.2264
     46  O         16.0480    7.0310    6.9600 O.2    42  TYR42      -0.2867
     47  CB        14.9020    4.6920    4.7520 C.3    42  TYR42       0.0534
     48  CG        15.1120    5.8750    3.8590 C.ar   42  TYR42      -0.0201
     49  CD1       14.2740    7.0000    3.9450 C.ar   42  TYR42      -0.0009
     50  CD2       16.1670    5.9030    2.9060 C.ar   42  TYR42      -0.0009
     51  CE1       14.4890    8.1250    3.1550 C.ar   42  TYR42       0.0417
     52  CE2       16.3970    7.0310    2.0960 C.ar   42  TYR42       0.0417
     53  CZ        15.5650    8.1420    2.2320 C.ar   42  TYR42       0.1957
     54  OH        15.7500    9.2370    1.4140 O.3    42  TYR42      -0.2866
     55  N         14.4410   11.9440   -0.1520 N.3    50  MET50      -0.1230
     56  CA        14.4030   12.4340   -1.5330 C.3    50  MET50       0.1702
     57  C         14.1310   11.2770   -2.4690 C.2    50  MET50       0.2592
     58  O         14.7550   10.2210   -2.3100 O.2    50  MET50      -0.2718
     59  CB        15.7130   13.0900   -1.9220 C.3    50  MET50       0.0401
     60  CG        15.6700   13.9060   -3.1980 C.3    50  MET50       0.0596
     61  SD        14.2970   15.0760   -3.4160 S.3    50  MET50      -0.1393
     62  CE        14.5610   16.2040   -2.0610 C.3    50  MET50       0.0692
     63  N         13.1990   11.4700   -3.4270 N.am   51  ASP51      -0.1974
     64  CA        13.0520   10.5580   -4.5440 C.3    51  ASP51       0.1709
     65  C         12.8990   11.2920   -5.8610 C.2    51  ASP51       0.2293
     66  O         12.8560   12.5480   -5.8870 O.2    51  ASP51      -0.2864
     67  CB        11.9380    9.5320   -4.3110 C.3    51  ASP51       0.1436
     68  CG        10.5720   10.1460   -4.1100 C.2    51  ASP51       0.3671
     69  OD1       10.3530   11.2730   -4.5320 O.co2  51  ASP51      -0.2456
     70  OD2        9.7290    9.4690   -3.4970 O.co2  51  ASP51      -0.2456
     71  N         19.8820   12.7970   -2.8640 N.3    77  MET77      -0.1245
     72  CA        19.2350   11.4770   -3.0040 C.3    77  MET77       0.1570
     73  C         20.3030   10.3510   -3.0420 C.2    77  MET77       0.2261
     74  O         20.1260    9.3450   -2.3590 O.2    77  MET77      -0.2867
     75  CB        18.3300   11.4360   -4.2370 C.3    77  MET77       0.0387
     76  CG        17.6200   10.1100   -4.4660 C.3    77  MET77       0.0595
     77  SD        16.5430   10.1880   -5.9350 S.3    77  MET77      -0.1393
     78  CE        17.8070    9.9940   -7.1750 C.3    77  MET77       0.0692
     79  N         22.0120   10.0700    0.3200 N.3    80  ASN80      -0.1225
     80  CA        21.1230    9.3150    1.1910 C.3    80  ASN80       0.1785
     81  C         21.2870    7.8140    0.9650 C.2    80  ASN80       0.2597
     82  O         21.5430    7.0650    1.9340 O.2    80  ASN80      -0.2718
     83  CB        19.6450    9.6970    0.9880 C.3    80  ASN80       0.1169
     84  CG        19.3000   11.1160    1.4670 C.2    80  ASN80       0.2627
     85  OD1       20.0170   11.7230    2.2390 O.2    80  ASN80      -0.2716
     86  ND2       18.1270   11.6130    1.0500 N.am   80  ASN80      -0.0877
     87  N         21.2060    7.3790   -0.3080 N.am   81  ALA81      -0.1979
     88  CA        21.2920    5.9700   -0.6720 C.3    81  ALA81       0.1597
     89  C         22.6000    5.3490   -0.1520 C.2    81  ALA81       0.2287
     90  O         22.5990    4.1900    0.3130 O.2    81  ALA81      -0.2864
     91  CB        21.2170    5.8420   -2.1930 C.3    81  ALA81       0.0319
     92  N         22.4850    5.1870    3.8440 N.3    84  TYR84      -0.1227
     93  CA        21.6150    4.1410    4.3610 C.3    84  TYR84       0.1736
     94  C         22.0970    2.7120    3.9880 C.2    84  TYR84       0.2595
     95  O         21.9670    1.8080    4.7960 O.2    84  TYR84      -0.2718
     96  CB        20.1890    4.3960    3.9080 C.3    84  TYR84       0.0548
     97  CG        19.2000    3.3510    4.3050 C.ar   84  TYR84      -0.0200
     98  CD1       19.1100    2.9230    5.6270 C.ar   84  TYR84      -0.0009
     99  CD2       18.3950    2.7430    3.3720 C.ar   84  TYR84      -0.0009
    100  CE1       18.2210    1.9450    5.9860 C.ar   84  TYR84       0.0417
    101  CE2       17.4760    1.7680    3.7400 C.ar   84  TYR84       0.0417
    102  CZ        17.3980    1.4080    5.0600 C.ar   84  TYR84       0.1957
    103  OH        16.5400    0.4170    5.4700 O.3    84  TYR84      -0.2866
    104  N         22.6720    2.5350    2.8040 N.am   85  ASN85      -0.1974
    105  CA        23.1080    1.2300    2.3310 C.3    85  ASN85       0.1688
    106  C         24.5980    1.0390    2.4530 C.2    85  ASN85       0.2292
    107  O         25.3500    2.0070    2.5240 O.2    85  ASN85      -0.2864
    108  CB        22.6530    1.0170    0.8870 C.3    85  ASN85       0.1181
    109  CG        21.1260    1.0580    0.7410 C.2    85  ASN85       0.2629
    110  OD1       20.4330    0.0740    0.9870 O.2    85  ASN85      -0.2716
    111  ND2       20.5930    2.2060    0.3260 N.am   85  ASN85      -0.0877
    112  N         22.3710   -1.2210   -4.4970 N.3    91  ILE91      -0.1245
    113  CA        21.7760    0.0840   -4.4790 C.3    91  ILE91       0.1561
    114  C         22.8420    1.1890   -4.3640 C.2    91  ILE91       0.2260
    115  O         22.7400    2.2170   -5.0520 O.2    91  ILE91      -0.2867
    116  CB        20.6570    0.1990   -3.4090 C.3    91  ILE91       0.0252
    117  CG1       19.5100   -0.7640   -3.7730 C.3    91  ILE91       0.0019
    118  CG2       20.1280    1.6130   -3.3980 C.3    91  ILE91       0.0019
    119  CD1       18.5080   -1.0140   -2.6500 C.3    91  ILE91       0.0001
@<TRIPOS>BOND
     1     1     2    1
     2    16    18   ar
     3    16    14   ar
     4    13    14    1
     5    13    10    1
     6    18    19   ar
     7     9    10    1
     8     9     3   am
     9    11    10    1
    10    11    12    2
    11     2     3    1
    12     2     5    1
    13    78    77    1
    14    14    15   ar
    15     3     4    2
    16     5     7    1
    17     5     6    1
    18    19    17   ar
    19    77    76    1
    20    66    65    2
    21    15    17   ar
    22    65    64    1
    23     6     8    1
    24   115   114    2
    25    64    67    1
    26    64    63    1
    27    69    68   ar
    28   112   113    1
    29   113   114    1
    30   113   116    1
    31    76    75    1
    32    67    68    1
    33    75    72    1
    34    68    70   ar
    35   117   116    1
    36   117   119    1
    37    63    57   am
    38    61    60    1
    39    61    62    1
    40   116   118    1
    41    60    59    1
    42    20    21    1
    43    73    72    1
    44    73    74    2
    45    72    71    1
    46    57    58    2
    47    57    56    1
    48    91    88    1
    49    59    56    1
    50    21    22    1
    51    21    24    1
    52    23    22    2
    53    56    55    1
    54    22    28   am
    55    24    25    1
    56    25    27    1
    57    25    26    1
    58    34    28    1
    59    34    33    1
    60    28    29    1
    61    88    87    1
    62    88    89    1
    63    33    32    1
    64    87    81   am
    65    89    90    2
    66    29    32    1
    67    29    30    1
    68    79    80    1
    69   111   109   am
    70   109   108    1
    71   109   110    2
    72   108   105    1
    73    81    80    1
    74    81    82    2
    75    83    80    1
    76    83    84    1
    77    86    84   am
    78    30    31    2
    79    54    53    1
    80    84    85    2
    81    52    53   ar
    82    52    50   ar
    83    53    51   ar
    84   105   106    1
    85   105   104    1
    86    42    40    1
    87   106   107    2
    88   104    94   am
    89    50    48   ar
    90    41    40    1
    91    51    49   ar
    92    99   101   ar
    93    99    97   ar
    94    40    39    1
    95   101   102   ar
    96    39    36    1
    97    92    93    1
    98    48    49   ar
    99    48    47    1
   100    96    97    1
   101    96    93    1
   102    94    93    1
   103    94    95    2
   104    97    98   ar
   105    47    44    1
   106   102   103    1
   107   102   100   ar
   108    35    36    1
   109    36    37    1
   110    98   100   ar
   111    44    45    1
   112    44    43    1
   113    38    37    2
   114    45    46    2
