@<TRIPOS>MOLECULE
tmp/5hs1A01.pdb
 159 153 0 0 0
SMALL
GASTEIGER

@<TRIPOS>ATOM
      1  N         95.1230    3.6790   12.8730 N.3   120  TYR120     -0.1241
      2  CA        95.4540    5.0820   12.6640 C.3   120  TYR120      0.1605
      3  C         95.3780    5.5400   11.2080 C.2   120  TYR120      0.2264
      4  O         95.1910    6.7350   10.9670 O.2   120  TYR120     -0.2867
      5  CB        96.8720    5.3620   13.1690 C.3   120  TYR120      0.0534
      6  CG        97.1130    5.2820   14.6710 C.ar  120  TYR120     -0.0201
      7  CD1       96.2540    5.9010   15.5800 C.ar  120  TYR120     -0.0009
      8  CD2       98.2340    4.6200   15.1730 C.ar  120  TYR120     -0.0009
      9  CE1       96.5020    5.8630   16.9490 C.ar  120  TYR120      0.0417
     10  CE2       98.4910    4.5710   16.5490 C.ar  120  TYR120      0.0417
     11  CZ        97.6200    5.1960   17.4270 C.ar  120  TYR120      0.1957
     12  OH        97.8720    5.1490   18.7850 O.3   120  TYR120     -0.2866
     13  N         92.9850    8.2310   10.1320 N.3   123  LEU123     -0.1231
     14  CA        93.2940    9.5600   10.6410 C.3   123  LEU123      0.1693
     15  C         94.3850   10.2210    9.8040 C.2   123  LEU123      0.2592
     16  O         94.2060   11.3330    9.2970 O.2   123  LEU123     -0.2718
     17  CB        93.7100    9.4680   12.1110 C.3   123  LEU123      0.0284
     18  CG        94.1030   10.7480   12.8540 C.3   123  LEU123      0.0019
     19  CD1       92.9510   11.7440   12.9180 C.3   123  LEU123      0.0001
     20  CD2       94.5800   10.4110   14.2520 C.3   123  LEU123      0.0001
     21  N         95.4990    9.5200    9.5880 N.am  124  THR124     -0.1953
     22  CA        96.7400   10.1460    9.1370 C.3   124  THR124      0.1897
     23  C         96.9720   10.0990    7.6250 C.2   124  THR124      0.2313
     24  O         97.5190   11.0570    7.0670 O.2   124  THR124     -0.2863
     25  CB        97.9330    9.4800    9.8300 C.3   124  THR124      0.1794
     26  OG1       97.9940    8.1220    9.3970 O.3   124  THR124     -0.2208
     27  CG2       97.8000    9.5420   11.3830 C.3   124  THR124      0.0378
     28  N         98.7910   13.1850    5.7250 N.3   128  PHE128     -0.1241
     29  CA       100.2160   13.1660    5.4060 C.3   128  PHE128      0.1605
     30  C        100.4800   12.8030    3.9470 C.2   128  PHE128      0.2264
     31  O        101.4350   13.3110    3.3480 O.2   128  PHE128     -0.2867
     32  CB       100.9730   12.1730    6.2970 C.3   128  PHE128      0.0534
     33  CG       100.7640   12.3640    7.7940 C.ar  128  PHE128     -0.0203
     34  CD1      100.3700   13.5880    8.3250 C.ar  128  PHE128     -0.0042
     35  CD2      100.9870   11.3030    8.6650 C.ar  128  PHE128     -0.0042
     36  CE1      100.1870   13.7430    9.6880 C.ar  128  PHE128     -0.0003
     37  CE2      100.8190   11.4490   10.0320 C.ar  128  PHE128     -0.0003
     38  CZ       100.4140   12.6630   10.5490 C.ar  128  PHE128     -0.0000
     39  N        104.4250    6.1300    7.0520 N.3   133  ILE133     -0.1231
     40  CA       103.9070    6.1130    8.4130 C.3   133  ILE133      0.1692
     41  C        102.8980    4.9850    8.5910 C.2   133  ILE133      0.2592
     42  O        103.2950    3.8670    8.9310 O.2   133  ILE133     -0.2718
     43  CB       103.3530    7.4990    8.8050 C.3   133  ILE133      0.0266
     44  CG1      104.4640    8.5240    8.5750 C.3   133  ILE133      0.0019
     45  CG2      102.9310    7.5150   10.2800 C.3   133  ILE133      0.0020
     46  CD1      104.1450    9.9440    8.9750 C.3   133  ILE133      0.0001
     47  N        101.5990    5.2360    8.4000 N.am  134  TYR134     -0.1976
     48  CA       100.6200    4.1610    8.5740 C.3   134  TYR134      0.1639
     49  C        100.0120    3.6670    7.2610 C.2   134  TYR134      0.2290
     50  O         99.1430    2.7920    7.2880 O.2   134  TYR134     -0.2864
     51  CB        99.5170    4.5860    9.5450 C.3   134  TYR134      0.0560
     52  CG       100.0950    4.8890   10.9210 C.ar  134  TYR134     -0.0198
     53  CD1      100.9250    3.9730   11.5590 C.ar  134  TYR134     -0.0009
     54  CD2       99.8630    6.1140   11.5390 C.ar  134  TYR134     -0.0009
     55  CE1      101.4950    4.2530   12.8040 C.ar  134  TYR134      0.0417
     56  CE2      100.4150    6.4070   12.7890 C.ar  134  TYR134      0.0417
     57  CZ       101.2300    5.4760   13.4140 C.ar  134  TYR134      0.1957
     58  OH       101.7830    5.7680   14.6320 O.3   134  TYR134     -0.2866
     59  N         93.6430   17.3890   10.2840 N.3   230  PHE230     -0.1241
     60  CA        94.0670   16.4480   11.3250 C.3   230  PHE230      0.1605
     61  C         93.0540   16.5470   12.4580 C.2   230  PHE230      0.2264
     62  O         93.1510   17.4310   13.3100 O.2   230  PHE230     -0.2867
     63  CB        95.4760   16.7920   11.7990 C.3   230  PHE230      0.0534
     64  CG        96.1780   15.6850   12.5400 C.ar  230  PHE230     -0.0203
     65  CD1       96.1240   14.3840   12.0930 C.ar  230  PHE230     -0.0042
     66  CD2       96.9630   15.9720   13.6460 C.ar  230  PHE230     -0.0042
     67  CE1       96.7980   13.3770   12.7600 C.ar  230  PHE230     -0.0003
     68  CE2       97.6410   14.9660   14.3120 C.ar  230  PHE230     -0.0003
     69  CZ        97.5440   13.6610   13.8610 C.ar  230  PHE230     -0.0000
     70  N        104.2790   14.3400    8.0350 N.3   304  GLY304     -0.1210
     71  CA       103.7690   13.6470    9.2010 C.3   304  GLY304      0.1956
     72  C        104.6380   13.8650   10.4260 C.2   304  GLY304      0.2611
     73  O        104.1280   14.0700   11.5270 O.2   304  GLY304     -0.2717
     74  N        105.9600   13.8220   10.2440 N.am  305  VAL305     -0.1979
     75  CA       106.8980   14.0500   11.3380 C.3   305  VAL305      0.1595
     76  C        106.7960   15.4880   11.8410 C.2   305  VAL305      0.2287
     77  O        106.7720   15.7320   13.0530 O.2   305  VAL305     -0.2864
     78  CB       108.3290   13.6960   10.8780 C.3   305  VAL305      0.0276
     79  CG1      109.3750   14.1910   11.8640 C.3   305  VAL305      0.0022
     80  CG2      108.4580   12.1730   10.6700 C.3   305  VAL305      0.0022
     81  N        103.2290   15.8580   13.5950 N.3   308  GLY308     -0.1210
     82  CA       103.2000   15.2070   14.8920 C.3   308  GLY308      0.1956
     83  C        103.9450   16.0100   15.9440 C.2   308  GLY308      0.2612
     84  O        103.4150   16.2980   17.0150 O.2   308  GLY308     -0.2717
     85  N        105.1850   16.3810   15.6390 N.am  309  GLY309     -0.1956
     86  CA       105.9600   17.2050   16.5390 C.3   309  GLY309      0.1869
     87  C        105.3340   18.5600   16.7810 C.2   309  GLY309      0.2309
     88  O        105.4590   19.1110   17.8790 O.2   309  GLY309     -0.2863
     89  N        102.0730   19.3770   17.0870 N.3   311  HIS311     -0.1226
     90  CA       100.9730   19.3820   18.0480 C.3   311  HIS311      0.1752
     91  C        101.3900   18.9560   19.4560 C.2   311  HIS311      0.2596
     92  O        100.8280   19.4510   20.4320 O.2   311  HIS311     -0.2718
     93  CB        99.8540   18.4830   17.5460 C.3   311  HIS311      0.0759
     94  CG        99.1790   19.0210   16.3250 C.ar  311  HIS311      0.0818
     95  ND1       98.9080   18.2470   15.2180 N.ar  311  HIS311     -0.2268
     96  CD2       98.7390   20.2670   16.0320 C.ar  311  HIS311      0.1154
     97  CE1       98.3150   18.9870   14.3030 C.ar  311  HIS311      0.1986
     98  NE2       98.2070   20.2190   14.7680 N.ar  311  HIS311     -0.2212
     99  N        102.3250   18.0190   19.5960 N.am  312  THR312     -0.1953
    100  CA       102.7610   17.6480   20.9450 C.3   312  THR312      0.1897
    101  C        103.5710   18.7640   21.5860 C.2   312  THR312      0.2313
    102  O        103.3520   19.1000   22.7530 O.2   312  THR312     -0.2863
    103  CB       103.5740   16.3650   20.8920 C.3   312  THR312      0.1794
    104  OG1      104.6140   16.5170   19.9150 O.3   312  THR312     -0.2208
    105  CG2      102.6820   15.1910   20.5170 C.3   312  THR312      0.0378
    106  N         98.8110   13.1760   24.3880 N.3   374  LEU374     -0.1245
    107  CA        97.9400   12.2050   23.7230 C.3   374  LEU374      0.1561
    108  C         97.2760   11.3740   24.8070 C.2   374  LEU374      0.2260
    109  O         97.9410   10.5770   25.4760 O.2   374  LEU374     -0.2867
    110  CB        98.7330   11.3260   22.7540 C.3   374  LEU374      0.0270
    111  CG        99.7980   12.0470   21.9130 C.3   374  LEU374      0.0019
    112  CD1      100.6930   11.0620   21.1590 C.3   374  LEU374      0.0001
    113  CD2       99.1580   13.0580   20.9460 C.3   374  LEU374      0.0001
    114  N         95.0640    9.0100   24.5460 N.3   376  SER376     -0.1202
    115  CA        94.7690    7.6240   24.1810 C.3   376  SER376      0.2020
    116  C         95.6360    7.1800   23.0140 C.2   376  SER376      0.2619
    117  O         95.7270    7.8780   22.0010 O.2   376  SER376     -0.2717
    118  CB        93.2860    7.4470   23.8050 C.3   376  SER376      0.2103
    119  OG        92.4560    7.6920   24.9320 O.3   376  SER376     -0.2182
    120  N         96.2740    6.0260   23.1540 N.am  377  LEU377     -0.1965
    121  CA        96.9420    5.3820   22.0380 C.3   377  LEU377      0.1728
    122  C         96.1690    4.1050   21.7390 C.2   377  LEU377      0.2616
    123  O         95.6380    3.4730   22.6550 O.2   377  LEU377     -0.2715
    124  CB        98.4200    5.0980   22.3420 C.3   377  LEU377      0.0311
    125  CG        99.3950    6.2790   22.6090 C.3   377  LEU377      0.0022
    126  CD1       99.1660    7.4940   21.6820 C.3   377  LEU377      0.0001
    127  CD2       99.4150    6.7210   24.0870 C.3   377  LEU377      0.0001
    128  N         96.0690    3.7540   20.4530 N.am  378  PHE378     -0.1974
    129  CA        95.1650    2.7140   19.9750 C.3   378  PHE378      0.1639
    130  C         95.9130    1.6790   19.1510 C.2   378  PHE378      0.2290
    131  O         96.8920    1.9930   18.4690 O.2   378  PHE378     -0.2864
    132  CB        94.0630    3.2420   19.0480 C.3   378  PHE378      0.0560
    133  CG        93.2720    4.3740   19.5970 C.ar  378  PHE378     -0.0200
    134  CD1       92.3550    4.1690   20.6040 C.ar  378  PHE378     -0.0042
    135  CD2       93.3970    5.6370   19.0510 C.ar  378  PHE378     -0.0042
    136  CE1       91.6020    5.2120   21.0910 C.ar  378  PHE378     -0.0003
    137  CE2       92.6570    6.6890   19.5350 C.ar  378  PHE378     -0.0003
    138  CZ        91.7530    6.4800   20.5540 C.ar  378  PHE378     -0.0000
    139  N        108.0100    6.7830   20.4930 N.3   464  CYS464     -0.1235
    140  CA       108.3860    8.0640   19.9210 C.3   464  CYS464      0.1677
    141  C        109.8790    8.1140   19.6190 C.2   464  CYS464      0.2270
    142  O        110.7030    7.6040   20.3780 O.2   464  CYS464     -0.2867
    143  CB       108.0240    9.1850   20.9070 C.3   464  CYS464      0.0956
    144  SG       108.2590   10.8290   20.2140 S.3   464  CYS464     -0.0801
    145  N         91.8480   15.3060   20.5600 N.3   503  MET503     -0.1230
    146  CA        92.6970   14.1270   20.7890 C.3   503  MET503      0.1702
    147  C         94.0850   14.5260   21.2970 C.2   503  MET503      0.2592
    148  O         94.7780   13.7050   21.9160 O.2   503  MET503     -0.2718
    149  CB        92.8260   13.2430   19.5380 C.3   503  MET503      0.0401
    150  CG        91.8730   12.0540   19.5090 C.3   503  MET503      0.0596
    151  SD        92.2560   10.8840   18.1860 S.3   503  MET503     -0.1393
    152  CE        92.4470   11.9840   16.7820 C.3   503  MET503      0.0692
    153  N         94.4960   15.7760   21.0420 N.am  504  VAL504     -0.1980
    154  CA        95.6310   16.4010   21.7220 C.3   504  VAL504      0.1595
    155  C         95.0940   17.2020   22.9010 C.2   504  VAL504      0.2287
    156  O         94.1850   18.0190   22.7380 O.2   504  VAL504     -0.2864
    157  CB        96.4250   17.2960   20.7580 C.3   504  VAL504      0.0276
    158  CG1       97.6920   17.8190   21.4210 C.3   504  VAL504      0.0022
    159  CG2       96.7550   16.5360   19.4870 C.3   504  VAL504      0.0022
@<TRIPOS>BOND
     1    31    30    2
     2    30    29    1
     3    29    28    1
     4    29    32    1
     5    32    33    1
     6    39    40    1
     7    24    23    2
     8    49    50    2
     9    49    48    1
    10    23    22    1
    11    33    34   ar
    12    33    35   ar
    13    70    71    1
    14    34    36   ar
    15    47    48    1
    16    47    41   am
    17    40    41    1
    18    40    43    1
    19    48    51    1
    20    44    43    1
    21    44    46    1
    22    41    42    2
    23    35    37   ar
    24    43    45    1
    25    22    21    1
    26    22    25    1
    27    71    72    1
    28    16    15    2
    29    26    25    1
    30    51    52    1
    31    21    15   am
    32    36    38   ar
    33    15    14    1
    34    25    27    1
    35    37    38   ar
    36    13    14    1
    37    74    72   am
    38    74    75    1
    39    59    60    1
    40    72    73    2
    41    14    17    1
    42    80    78    1
    43    78    75    1
    44    78    79    1
    45    52    54   ar
    46    52    53   ar
    47     4     3    2
    48     3     2    1
    49    60    63    1
    50    60    61    1
    51    75    76    1
    52    54    56   ar
    53    53    55   ar
    54    63    64    1
    55    76    77    2
    56    65    64   ar
    57    65    67   ar
    58    17    18    1
    59    61    62    2
    60    64    66   ar
    61     2     1    1
    62     2     5    1
    63    67    69   ar
    64    56    57   ar
    65    55    57   ar
    66    18    19    1
    67    18    20    1
    68     5     6    1
    69    57    58    1
    70    81    82    1
    71    66    68   ar
    72    69    68   ar
    73    97    98   ar
    74    97    95   ar
    75     6     8   ar
    76     6     7   ar
    77    98    96   ar
    78    82    83    1
    79     8    10   ar
    80    95    94   ar
    81     7     9   ar
    82    85    83   am
    83    85    86    1
    84    83    84    2
    85    96    94   ar
    86    94    93    1
    87    86    87    1
    88    10    11   ar
    89    87    88    2
    90   152   151    1
    91     9    11   ar
    92    89    90    1
    93    11    12    1
    94    93    90    1
    95    90    91    1
    96   151   150    1
    97   131   130    2
    98   132   133    1
    99   132   129    1
   100   135   137   ar
   101   135   133   ar
   102   130   129    1
   103    91    99   am
   104    91    92    2
   105   159   157    1
   106   150   149    1
   107   137   138   ar
   108   149   146    1
   109    99   100    1
   110   133   134   ar
   111   141   140    1
   112   141   142    2
   113   104   103    1
   114   140   139    1
   115   140   143    1
   116   129   128    1
   117   144   143    1
   118   128   122   am
   119   105   103    1
   120   138   136   ar
   121   145   146    1
   122   134   136   ar
   123   157   158    1
   124   157   154    1
   125   146   147    1
   126   103   100    1
   127   100   101    1
   128   113   111    1
   129   153   147   am
   130   153   154    1
   131   112   111    1
   132   147   148    2
   133   101   102    2
   134   126   125    1
   135   154   155    1
   136   122   121    1
   137   122   123    2
   138   111   110    1
   139   117   116    2
   140   121   124    1
   141   121   120    1
   142   124   125    1
   143   125   127    1
   144   156   155    2
   145   110   107    1
   146   116   120   am
   147   116   115    1
   148   107   106    1
   149   107   108    1
   150   118   115    1
   151   118   119    1
   152   115   114    1
   153   108   109    2
