@<TRIPOS>MOLECULE
tmp/5hs2A00.pdb
 158 152 0 0 0
SMALL
GASTEIGER

@<TRIPOS>ATOM
      1  N         -9.5610    2.7910  -38.2170 N.3     8  PRO8       -0.2102
      2  CA        -9.5930    1.4050  -38.6360 C.3     8  PRO8        0.1504
      3  C        -10.9560    0.7490  -38.4570 C.2     8  PRO8        0.2576
      4  O        -11.4840    0.6770  -37.3560 O.2     8  PRO8       -0.2718
      5  CB        -8.5290    0.7070  -37.7710 C.3     8  PRO8        0.0282
      6  CG        -8.1130    1.6560  -36.7630 C.3     8  PRO8        0.0208
      7  CD        -8.5940    3.0200  -37.1040 C.3     8  PRO8        0.0893
      8  N        -11.5100    0.3020  -39.5810 N.am    9  ALA9       -0.1966
      9  CA       -12.7910   -0.3430  -39.6310 C.3     9  ALA9        0.1728
     10  C        -12.7620   -1.5760  -40.5270 C.2     9  ALA9        0.2616
     11  O        -13.7900   -1.9600  -41.0760 O.2     9  ALA9       -0.2715
     12  CB       -13.8160    0.6240  -40.1560 C.3     9  ALA9        0.0334
     13  N        -11.6080   -2.1760  -40.6810 N.am   10  ALA10      -0.1963
     14  CA       -11.4130   -3.2270  -41.7010 C.3    10  ALA10       0.1728
     15  C        -11.4530   -4.6600  -41.1220 C.2    10  ALA10       0.2617
     16  O        -11.2740   -5.6180  -41.8440 O.2    10  ALA10      -0.2715
     17  CB       -10.1340   -2.9610  -42.4650 C.3    10  ALA10       0.0334
     18  N        -11.7080   -4.7940  -39.8180 N.am   11  GLY11      -0.1940
     19  CA       -11.8590   -6.0910  -39.1630 C.3    11  GLY11       0.2014
     20  C        -13.1550   -6.8130  -39.5290 C.2    11  GLY11       0.2639
     21  O        -14.0460   -6.2480  -40.1670 O.2    11  GLY11      -0.2714
     22  N        -13.2470   -8.0590  -39.0810 N.am   12  GLN12      -0.1963
     23  CA       -14.4090   -8.9210  -39.2580 C.3    12  GLN12       0.1733
     24  C        -15.2690   -9.0250  -38.0280 C.2    12  GLN12       0.2617
     25  O        -16.4100   -9.4680  -38.1380 O.2    12  GLN12      -0.2715
     26  CB       -13.9500  -10.3320  -39.6350 C.3    12  GLN12       0.0408
     27  CG       -13.1930  -10.4010  -40.9560 C.3    12  GLN12       0.0908
     28  CD       -12.7870  -11.8180  -41.3210 C.2    12  GLN12       0.2608
     29  OE1      -11.9110  -12.4080  -40.6900 O.2    12  GLN12      -0.2717
     30  NE2      -13.4250  -12.3720  -42.3520 N.am   12  GLN12      -0.0878
     31  N        -14.7700   -8.6700  -36.8410 N.am   13  GLY13      -0.1940
     32  CA       -15.6200   -8.7630  -35.6740 C.3    13  GLY13       0.2014
     33  C        -15.9260  -10.1760  -35.2270 C.2    13  GLY13       0.2639
     34  O        -17.0260  -10.4490  -34.7420 O.2    13  GLY13      -0.2714
     35  N        -14.9250  -11.0500  -35.2990 N.am   14  LYS14      -0.1963
     36  CA       -15.1030  -12.4750  -34.9470 C.3    14  LYS14       0.1728
     37  C        -15.5930  -12.6870  -33.5460 C.2    14  LYS14       0.2616
     38  O        -16.4610  -13.5080  -33.3270 O.2    14  LYS14      -0.2715
     39  CB       -13.8280  -13.2870  -35.1620 C.3    14  LYS14       0.0311
     40  CG       -13.3850  -13.3040  -36.6210 C.3    14  LYS14       0.0038
     41  CD       -12.2030  -14.2380  -36.8500 C.3    14  LYS14       0.0206
     42  CE       -11.7390  -14.1120  -38.2970 C.3    14  LYS14       0.1093
     43  NZ       -10.8560  -15.2280  -38.7530 N.3    14  LYS14      -0.1314
     44  N        -15.1030  -11.9280  -32.5700 N.am   15  ARG15      -0.1963
     45  CA       -15.5480  -12.1650  -31.2060 C.3    15  ARG15       0.1729
     46  C        -16.9560  -11.6460  -30.9600 C.2    15  ARG15       0.2616
     47  O        -17.5870  -11.9450  -29.9330 O.2    15  ARG15      -0.2715
     48  CB       -14.5800  -11.5630  -30.1850 C.3    15  ARG15       0.0348
     49  CG       -13.2650  -12.3230  -30.1020 C.3    15  ARG15       0.0492
     50  CD       -12.2210  -11.5440  -29.2780 C.3    15  ARG15       0.2205
     51  NE       -11.8290  -10.3230  -29.9960 N.pl3  15  ARG15      -0.0865
     52  CZ       -11.0800   -9.3460  -29.5060 C.cat  15  ARG15       0.5346
     53  NH1      -10.6160   -9.4020  -28.2480 N.pl3  15  ARG15       0.1354
     54  NH2      -10.7870   -8.2990  -30.2760 N.pl3  15  ARG15       0.1354
     55  N        -17.4580  -10.7890  -31.8380 N.am   16  MET16      -0.1977
     56  CA       -18.7980  -10.2660  -31.6650 C.3    16  MET16       0.1605
     57  C        -19.8550  -11.2730  -32.2110 C.2    16  MET16       0.2287
     58  O        -21.0050  -11.2730  -31.7710 O.2    16  MET16      -0.2864
     59  CB       -18.9180   -8.8990  -32.3390 C.3    16  MET16       0.0413
     60  CG       -20.2730   -8.2330  -32.2020 C.3    16  MET16       0.0598
     61  SD       -20.7000   -7.9100  -30.5010 S.3    16  MET16      -0.1393
     62  CE       -19.7770   -6.3870  -30.2570 C.3    16  MET16       0.0692
     63  N        -19.4400   -7.7900  -40.4090 N.3    21  ASN21      -0.1225
     64  CA       -18.6820   -6.7510  -39.6850 C.3    21  ASN21       0.1785
     65  C        -19.5150   -6.1700  -38.5540 C.2    21  ASN21       0.2597
     66  O        -20.5930   -5.6360  -38.7710 O.2    21  ASN21      -0.2718
     67  CB       -18.2260   -5.6410  -40.6090 C.3    21  ASN21       0.1169
     68  CG       -17.1080   -4.7820  -40.0140 C.2    21  ASN21       0.2627
     69  OD1      -16.8670   -4.7470  -38.7870 O.2    21  ASN21      -0.2716
     70  ND2      -16.4190   -4.0830  -40.8910 N.am   21  ASN21      -0.0877
     71  N        -18.9760   -6.2470  -37.3480 N.am   22  LYS22      -0.1966
     72  CA       -19.6460   -5.7480  -36.1600 C.3    22  LYS22       0.1728
     73  C        -19.9900   -4.3030  -36.2760 C.2    22  LYS22       0.2616
     74  O        -20.8630   -3.8120  -35.5970 O.2    22  LYS22      -0.2715
     75  CB       -18.7740   -5.9810  -34.8880 C.3    22  LYS22       0.0311
     76  CG       -17.4330   -5.2930  -34.8570 C.3    22  LYS22       0.0038
     77  CD       -16.7580   -5.5640  -33.4970 C.3    22  LYS22       0.0206
     78  CE       -15.3210   -5.1840  -33.4850 C.3    22  LYS22       0.1093
     79  NZ       -14.6010   -5.3970  -32.1520 N.3    22  LYS22      -0.1314
     80  N        -19.2600   -3.5960  -37.1110 N.am   23  LEU23      -0.1977
     81  CA       -19.4200   -2.1660  -37.2310 C.3    23  LEU23       0.1596
     82  C        -20.6990   -1.8160  -37.9840 C.2    23  LEU23       0.2287
     83  O        -21.0550   -0.6440  -37.9940 O.2    23  LEU23      -0.2864
     84  CB       -18.2070   -1.5540  -37.9370 C.3    23  LEU23       0.0297
     85  CG       -16.8540   -1.7110  -37.1440 C.3    23  LEU23       0.0022
     86  CD1      -15.7390   -1.0780  -37.9050 C.3    23  LEU23       0.0001
     87  CD2      -16.8380   -1.1240  -35.7310 C.3    23  LEU23       0.0001
     88  N         -5.6990   -3.9880  -44.1790 N.3    80  GLY80      -0.1210
     89  CA        -4.8990   -5.2050  -44.2370 C.3    80  GLY80       0.1956
     90  C         -5.3720   -6.2580  -43.2720 C.2    80  GLY80       0.2612
     91  O         -6.4570   -6.1630  -42.7200 O.2    80  GLY80      -0.2717
     92  N         -4.5480   -7.2870  -43.1140 N.am   81  ASP81      -0.1959
     93  CA        -4.8700   -8.4820  -42.3500 C.3    81  ASP81       0.1840
     94  C         -4.8570   -8.2350  -40.8520 C.2    81  ASP81       0.2622
     95  O         -5.4750   -8.9600  -40.1200 O.2    81  ASP81      -0.2715
     96  CB        -3.8090   -9.5720  -42.5690 C.3    81  ASP81       0.1450
     97  CG        -3.7870  -10.1080  -43.9520 C.2    81  ASP81       0.3671
     98  OD1       -4.6470   -9.7390  -44.7840 O.co2  81  ASP81      -0.2456
     99  OD2       -2.8900  -10.9350  -44.1910 O.co2  81  ASP81      -0.2456
    100  N         -4.1070   -7.2590  -40.3910 N.am   82  GLU82      -0.1963
    101  CA        -4.1000   -6.9110  -38.9620 C.3    82  GLU82       0.1733
    102  C         -4.3670   -5.4010  -38.8120 C.2    82  GLU82       0.2616
    103  O         -4.0630   -4.6400  -39.7100 O.2    82  GLU82      -0.2715
    104  CB        -2.7420   -7.2260  -38.3810 C.3    82  GLU82       0.0429
    105  CG        -2.3260   -8.6850  -38.5130 C.3    82  GLU82       0.1163
    106  CD        -3.0120   -9.6040  -37.5230 C.2    82  GLU82       0.3649
    107  OE1       -3.9520   -9.2040  -36.7990 O.co2  82  GLU82      -0.2457
    108  OE2       -2.6060  -10.7700  -37.4660 O.co2  82  GLU82      -0.2457
    109  N         -4.9220   -4.9900  -37.6650 N.am   83  ARG83      -0.1977
    110  CA        -5.2310   -3.5790  -37.3730 C.3    83  ARG83       0.1597
    111  C         -4.0310   -2.6560  -37.6780 C.2    83  ARG83       0.2287
    112  O         -4.1740   -1.5970  -38.2960 O.2    83  ARG83      -0.2864
    113  CB        -5.6290   -3.4230  -35.8860 C.3    83  ARG83       0.0334
    114  CG        -6.1810   -2.0360  -35.5840 C.3    83  ARG83       0.0492
    115  CD        -6.4550   -1.6570  -34.1310 C.3    83  ARG83       0.2205
    116  NE        -5.3280   -0.9010  -33.7160 N.pl3  83  ARG83      -0.0865
    117  CZ        -5.1890    0.4230  -33.5830 C.cat  83  ARG83       0.5346
    118  NH1       -6.1760    1.3170  -33.5910 N.pl3  83  ARG83       0.1354
    119  NH2       -3.9760    0.8150  -33.3050 N.pl3  83  ARG83       0.1354
    120  N         -3.6940   -2.0880  -41.2530 N.3    86  SER86      -0.1217
    121  CA        -4.7810   -1.1950  -41.6950 C.3    86  SER86       0.1889
    122  C         -4.4630    0.2550  -41.3450 C.2    86  SER86       0.2288
    123  O         -4.6150    1.1460  -42.1740 O.2    86  SER86      -0.2866
    124  CB        -6.1230   -1.6550  -41.1230 C.3    86  SER86       0.2089
    125  OG        -6.5000   -2.9050  -41.6450 O.3    86  SER86      -0.2183
    126  N        -10.2460    3.6510  -33.1430 N.3   104  ASP104     -0.1225
    127  CA       -11.0050    2.4120  -33.5130 C.3   104  ASP104      0.1805
    128  C        -12.4610    2.7050  -33.9290 C.2   104  ASP104      0.2598
    129  O        -13.1980    3.3820  -33.2010 O.2   104  ASP104     -0.2718
    130  CB       -11.0460    1.4370  -32.3370 C.3   104  ASP104      0.1424
    131  CG        -9.7020    0.6690  -32.1140 C.2   104  ASP104      0.3668
    132  OD1       -8.8120    0.6270  -32.9690 O.co2 104  ASP104     -0.2456
    133  OD2       -9.5450    0.0660  -31.0520 O.co2 104  ASP104     -0.2456
    134  N        -12.9010    2.1190  -35.0490 N.am  105  GLY105     -0.1942
    135  CA       -14.2640    2.2290  -35.4580 C.3   105  GLY105      0.2014
    136  C        -15.2090    1.6840  -34.4100 C.2   105  GLY105      0.2638
    137  O        -16.3260    2.1470  -34.2710 O.2   105  GLY105     -0.2714
    138  N        -14.7310    0.7120  -33.6570 N.am  106  ALA106     -0.1977
    139  CA       -15.4880    0.0150  -32.6170 C.3   106  ALA106      0.1597
    140  C        -15.6060    0.7580  -31.2870 C.2   106  ALA106      0.2287
    141  O        -16.1850    0.2090  -30.3300 O.2   106  ALA106     -0.2864
    142  CB       -14.8440   -1.3850  -32.4030 C.3   106  ALA106      0.0319
    143  N        -15.0390   -0.2220  -25.9180 N.3   209  LYS209     -0.1245
    144  CA       -14.8810   -0.8520  -27.2290 C.3   209  LYS209      0.1561
    145  C        -15.9320   -1.9560  -27.3910 C.2   209  LYS209      0.2260
    146  O        -16.1390   -2.7180  -26.4760 O.2   209  LYS209     -0.2867
    147  CB       -13.4910   -1.4460  -27.4220 C.3   209  LYS209      0.0271
    148  CG       -13.2650   -1.9300  -28.8530 C.3   209  LYS209      0.0035
    149  CD       -11.7940   -2.0120  -29.2730 C.3   209  LYS209      0.0206
    150  CE       -11.0410   -3.1390  -28.5730 C.3   209  LYS209      0.1093
    151  NZ       -11.4780   -4.5170  -29.0360 N.3   209  LYS209     -0.1314
    152  N        -16.7400   -5.3430  -28.5730 N.3   211  THR211     -0.1218
    153  CA       -15.9200   -6.5090  -28.8910 C.3   211  THR211      0.1862
    154  C        -16.6960   -7.8060  -28.8100 C.2   211  THR211      0.2287
    155  O        -16.6110   -8.6150  -29.7140 O.2   211  THR211     -0.2866
    156  CB       -14.7090   -6.6030  -27.9120 C.3   211  THR211      0.1770
    157  OG1      -13.9830   -5.3610  -27.9390 O.3   211  THR211     -0.2211
    158  CG2      -13.7970   -7.7510  -28.2780 C.3   211  THR211      0.0375
@<TRIPOS>BOND
     1    98    97   ar
     2    89    88    1
     3    89    90    1
     4    99    97   ar
     5    97    96    1
     6    90    92   am
     7    90    91    2
     8    92    93    1
     9    96    93    1
    10    17    14    1
    11    30    28   am
    12    93    94    1
    13   123   122    2
    14    16    15    2
    15    14    15    1
    16    14    13    1
    17   121   122    1
    18   121   120    1
    19   121   124    1
    20   125   124    1
    21    28    27    1
    22    28    29    2
    23    15    18   am
    24    11    10    2
    25    27    26    1
    26    70    68   am
    27    94   100   am
    28    94    95    2
    29    13    10   am
    30    67    68    1
    31    67    64    1
    32    10     9    1
    33    63    64    1
    34   100   101    1
    35    21    20    2
    36    12     9    1
    37    68    69    2
    38    18    19    1
    39   103   102    2
    40    64    65    1
    41    26    23    1
    42     9     8    1
    43     8     3   am
    44    20    19    1
    45    20    22   am
    46    23    22    1
    47    23    24    1
    48   101   102    1
    49   101   104    1
    50   102   109   am
    51    66    65    2
    52    43    42    1
    53     2     3    1
    54     2     1    1
    55     2     5    1
    56    65    71   am
    57   105   104    1
    58   105   106    1
    59     3     4    2
    60    42    41    1
    61   112   111    2
    62     1     7    1
    63    25    24    2
    64    24    31   am
    65    83    82    2
    66    82    81    1
    67    84    81    1
    68    84    85    1
    69    86    85    1
    70     5     6    1
    71   111   110    1
    72   109   110    1
    73   106   108   ar
    74   106   107   ar
    75   110   113    1
    76    71    72    1
    77    81    80    1
    78    85    87    1
    79    80    73   am
    80     7     6    1
    81    41    40    1
    82    31    32    1
    83    40    39    1
    84    73    72    1
    85    73    74    2
    86    72    75    1
    87   113   114    1
    88    32    33    1
    89   114   115    1
    90   135   134    1
    91   135   136    1
    92    35    33   am
    93    35    36    1
    94    33    34    2
    95    39    36    1
    96   134   128   am
    97    36    37    1
    98    75    76    1
    99    76    77    1
   100   136   137    2
   101   136   138   am
   102   115   116    1
   103   128   127    1
   104   128   129    2
   105   116   117    2
   106   138   139    1
   107   118   117    1
   108   117   119    1
   109    37    38    2
   110    37    44   am
   111   127   126    1
   112   127   130    1
   113    77    78    1
   114    78    79    1
   115   132   131   ar
   116   139   142    1
   117   139   140    1
   118    44    45    1
   119    59    60    1
   120    59    56    1
   121   130   131    1
   122    57    58    2
   123    57    56    1
   124    60    61    1
   125   131   133   ar
   126    55    56    1
   127    55    46   am
   128   140   141    2
   129    45    46    1
   130    45    48    1
   131    46    47    2
   132    61    62    1
   133    54    52    1
   134    48    49    1
   135    49    50    1
   136    51    52    2
   137    51    50    1
   138   155   154    2
   139    52    53    1
   140   149   148    1
   141   149   150    1
   142   151   150    1
   143   153   154    1
   144   153   152    1
   145   153   156    1
   146   148   147    1
   147   158   156    1
   148   157   156    1
   149   147   144    1
   150   145   144    1
   151   145   146    2
   152   144   143    1
