@<TRIPOS>MOLECULE
tmp/5hs3E01.pdb
 137 132 0 0 0
SMALL
GASTEIGER

@<TRIPOS>ATOM
      1  N         48.0680   30.2800   77.3310 N.3    26  ARG26      -0.1231
      2  CA        48.7820   30.9080   76.2280 C.3    26  ARG26       0.1694
      3  C         49.8310   31.8620   76.7740 C.2    26  ARG26       0.2592
      4  O         50.9430   31.4570   77.1140 O.2    26  ARG26      -0.2718
      5  CB        47.8420   31.6880   75.3040 C.3    26  ARG26       0.0321
      6  CG        46.6380   30.9490   74.8220 C.3    26  ARG26       0.0489
      7  CD        46.1260   31.5250   73.5030 C.3    26  ARG26       0.2205
      8  NE        46.1990   32.9840   73.4150 N.pl3  26  ARG26      -0.0865
      9  CZ        45.7170   33.8290   74.3240 C.cat  26  ARG26       0.5346
     10  NH1       45.8270   35.1410   74.1470 N.pl3  26  ARG26       0.1354
     11  NH2       45.1350   33.3650   75.4180 N.pl3  26  ARG26       0.1354
     12  N         49.4460   33.1360   76.8400 N.am   27  THR27      -0.1953
     13  CA        50.3030   34.2080   77.3190 C.3    27  THR27       0.1897
     14  C         51.0660   33.7660   78.5530 C.2    27  THR27       0.2313
     15  O         50.7040   34.1110   79.6730 O.2    27  THR27      -0.2863
     16  CB        49.4860   35.4710   77.6360 C.3    27  THR27       0.1794
     17  OG1       48.1670   35.0910   78.0350 O.3    27  THR27      -0.2208
     18  CG2       49.3840   36.3610   76.4090 C.3    27  THR27       0.0378
     19  N         30.4530   49.5050   73.2860 N.3    63  GLU63      -0.1245
     20  CA        30.8380   48.2520   72.6490 C.3    63  GLU63       0.1567
     21  C         29.6550   47.3290   72.4370 C.2    63  GLU63       0.2260
     22  O         29.7150   46.4040   71.6520 O.2    63  GLU63      -0.2867
     23  CB        31.8970   47.5350   73.4790 C.3    63  GLU63       0.0388
     24  CG        32.4730   46.2900   72.8340 C.3    63  GLU63       0.1160
     25  CD        32.2230   45.0400   73.6420 C.2    63  GLU63       0.3649
     26  OE1       31.2250   44.9940   74.3850 O.co2  63  GLU63      -0.2457
     27  OE2       33.0250   44.1010   73.5380 O.co2  63  GLU63      -0.2457
     28  N         39.5600   48.4580   73.4580 N.3    84  ILE84      -0.1231
     29  CA        39.6520   47.1230   74.0270 C.3    84  ILE84       0.1692
     30  C         39.8840   46.0510   72.9860 C.2    84  ILE84       0.2592
     31  O         40.6250   45.1070   73.2160 O.2    84  ILE84      -0.2718
     32  CB        38.4020   46.7890   74.8090 C.3    84  ILE84       0.0266
     33  CG1       37.1680   47.2080   74.0210 C.3    84  ILE84       0.0019
     34  CG2       38.4030   47.5400   76.1120 C.3    84  ILE84       0.0020
     35  CD1       35.8950   47.1040   74.8050 C.3    84  ILE84       0.0001
     36  N         39.2630   46.1920   71.8310 N.am   85  TRP85      -0.1976
     37  CA        39.4680   45.2050   70.7880 C.3    85  TRP85       0.1640
     38  C         40.5950   45.6270   69.8690 C.2    85  TRP85       0.2290
     39  O         40.9980   44.8790   68.9900 O.2    85  TRP85      -0.2864
     40  CB        38.1900   44.9840   69.9900 C.3    85  TRP85       0.0576
     41  CG        37.1610   44.1860   70.7110 C.ar   85  TRP85       0.0006
     42  CD1       36.0700   44.6610   71.3540 C.ar   85  TRP85       0.0946
     43  CD2       37.1280   42.7680   70.8630 C.ar   85  TRP85       0.0152
     44  NE1       35.3560   43.6310   71.8990 N.ar   85  TRP85      -0.2442
     45  CE2       35.9880   42.4550   71.6080 C.ar   85  TRP85       0.0810
     46  CE3       37.9530   41.7310   70.4360 C.ar   85  TRP85       0.0012
     47  CZ2       35.6490   41.1560   71.9360 C.ar   85  TRP85       0.0191
     48  CZ3       37.6140   40.4420   70.7630 C.ar   85  TRP85       0.0001
     49  CH2       36.4760   40.1640   71.5060 C.ar   85  TRP85       0.0015
     50  N         43.7440   43.2480   69.3340 N.3    88  ASN88      -0.1240
     51  CA        43.6180   42.1080   68.4310 C.3    88  ASN88       0.1653
     52  C         43.2780   42.4910   67.0060 C.2    88  ASN88       0.2266
     53  O         43.1030   41.6340   66.1610 O.2    88  ASN88      -0.2867
     54  CB        42.5590   41.1570   68.9480 C.3    88  ASN88       0.1155
     55  CG        42.6330   40.9750   70.4340 C.2    88  ASN88       0.2627
     56  OD1       42.5420   41.9410   71.1910 O.2    88  ASN88      -0.2716
     57  ND2       42.7870   39.7320   70.8710 N.am   88  ASN88      -0.0877
     58  N         49.1650   41.4420   64.9680 N.3    93  PHE93      -0.1241
     59  CA        48.3970   40.3860   65.6110 C.3    93  PHE93       0.1605
     60  C         47.6420   39.6160   64.5580 C.2    93  PHE93       0.2264
     61  O         47.5830   38.3980   64.6090 O.2    93  PHE93      -0.2867
     62  CB        47.4200   40.9200   66.6510 C.3    93  PHE93       0.0534
     63  CG        46.7450   39.8370   67.4590 C.ar   93  PHE93      -0.0203
     64  CD1       45.7760   39.0310   66.8960 C.ar   93  PHE93      -0.0042
     65  CD2       47.0750   39.6380   68.7890 C.ar   93  PHE93      -0.0042
     66  CE1       45.1580   38.0470   67.6340 C.ar   93  PHE93      -0.0003
     67  CE2       46.4550   38.6500   69.5370 C.ar   93  PHE93      -0.0003
     68  CZ        45.4960   37.8530   68.9570 C.ar   93  PHE93      -0.0000
     69  N         39.8830   36.0240   67.3320 N.3   168  LEU168     -0.1245
     70  CA        39.8100   35.5200   68.6850 C.3   168  LEU168      0.1561
     71  C         38.5140   34.7800   68.8810 C.2   168  LEU168      0.2260
     72  O         37.4460   35.3660   68.7980 O.2   168  LEU168     -0.2867
     73  CB        39.9190   36.6590   69.6870 C.3   168  LEU168      0.0270
     74  CG        39.7270   36.2280   71.1330 C.3   168  LEU168      0.0019
     75  CD1       41.0170   35.6550   71.6920 C.3   168  LEU168      0.0001
     76  CD2       39.2270   37.3870   71.9700 C.3   168  LEU168      0.0001
     77  N         32.0740   34.5380   74.8640 N.3   172  HIS172     -0.1241
     78  CA        30.6830   34.3760   75.1970 C.3   172  HIS172      0.1621
     79  C         30.0480   33.5070   74.1510 C.2   172  HIS172      0.2264
     80  O         29.6020   33.9890   73.1290 O.2   172  HIS172     -0.2867
     81  CB        30.0340   35.7280   75.2680 C.3   172  HIS172      0.0745
     82  CG        30.8310   36.7010   76.0660 C.ar  172  HIS172      0.0817
     83  ND1       31.2590   37.9070   75.5590 N.ar  172  HIS172     -0.2268
     84  CD2       31.3110   36.6280   77.3290 C.ar  172  HIS172      0.1154
     85  CE1       31.9550   38.5430   76.4830 C.ar  172  HIS172      0.1986
     86  NE2       31.9990   37.7900   77.5670 N.ar  172  HIS172     -0.2212
     87  N         38.7400   35.8820   83.0560 N.3   194  ASP194     -0.1239
     88  CA        39.5330   36.1850   84.2320 C.3   194  ASP194      0.1674
     89  C         38.7980   37.2160   85.0640 C.2   194  ASP194      0.2266
     90  O         38.3800   38.2630   84.5750 O.2   194  ASP194     -0.2867
     91  CB        40.9220   36.6780   83.8610 C.3   194  ASP194      0.1410
     92  CG        40.8860   37.9410   83.0660 C.2   194  ASP194      0.3668
     93  OD1       39.8870   38.1490   82.3480 O.co2 194  ASP194     -0.2456
     94  OD2       41.8530   38.7240   83.1570 O.co2 194  ASP194     -0.2456
     95  N         40.0010   41.3100   85.3700 N.3   197  LEU197     -0.1231
     96  CA        39.8430   42.3900   84.4220 C.3   197  LEU197      0.1693
     97  C         38.5740   42.2360   83.6040 C.2   197  LEU197      0.2592
     98  O         37.7700   43.1540   83.5160 O.2   197  LEU197     -0.2718
     99  CB        41.0710   42.4630   83.5040 C.3   197  LEU197      0.0284
    100  CG        41.3680   43.7730   82.7580 C.3   197  LEU197      0.0019
    101  CD1       42.0570   44.7800   83.6680 C.3   197  LEU197      0.0001
    102  CD2       42.1970   43.5280   81.4950 C.3   197  LEU197      0.0001
    103  N         38.3860   41.0650   83.0150 N.am  198  GLY198     -0.1957
    104  CA        37.3400   40.8850   82.0270 C.3   198  GLY198      0.1869
    105  C         35.9340   40.6310   82.5260 C.2   198  GLY198      0.2309
    106  O         34.9770   41.1740   81.9840 O.2   198  GLY198     -0.2863
    107  N         33.2850   43.2950   83.4030 N.3   201  PHE201     -0.1227
    108  CA        32.9170   44.0360   82.2190 C.3   201  PHE201      0.1736
    109  C         31.8490   43.2780   81.4900 C.2   201  PHE201      0.2595
    110  O         30.9140   43.8550   80.9570 O.2   201  PHE201     -0.2718
    111  CB        34.1280   44.2350   81.3280 C.3   201  PHE201      0.0547
    112  CG        33.8740   45.0950   80.1520 C.ar  201  PHE201     -0.0202
    113  CD1       34.0480   46.4480   80.2320 C.ar  201  PHE201     -0.0042
    114  CD2       33.4750   44.5520   78.9700 C.ar  201  PHE201     -0.0042
    115  CE1       33.8290   47.2310   79.1590 C.ar  201  PHE201     -0.0003
    116  CE2       33.2490   45.3280   77.8920 C.ar  201  PHE201     -0.0003
    117  CZ        33.4260   46.6680   77.9790 C.ar  201  PHE201     -0.0000
    118  N         32.0020   41.9620   81.4870 N.am  202  ASN202     -0.1974
    119  CA        31.0930   41.0650   80.8020 C.3   202  ASN202      0.1688
    120  C         29.7320   40.9860   81.4840 C.2   202  ASN202      0.2292
    121  O         28.7010   40.8210   80.8410 O.2   202  ASN202     -0.2864
    122  CB        31.7340   39.6850   80.6990 C.3   202  ASN202      0.1181
    123  CG        33.0080   39.7030   79.8780 C.2   202  ASN202      0.2629
    124  OD1       34.0160   39.1280   80.2560 O.2   202  ASN202     -0.2716
    125  ND2       32.9620   40.3770   78.7500 N.am  202  ASN202     -0.0877
    126  N         44.7500   35.8050   86.9590 N.3   234  TYR234     -0.1241
    127  CA        46.1180   35.9150   86.4750 C.3   234  TYR234      0.1605
    128  C         47.1120   36.2470   87.5810 C.2   234  TYR234      0.2264
    129  O         47.0710   37.3250   88.1590 O.2   234  TYR234     -0.2867
    130  CB        46.1800   36.9550   85.3700 C.3   234  TYR234      0.0534
    131  CG        45.7740   36.3860   84.0480 C.ar  234  TYR234     -0.0201
    132  CD1       46.4870   35.3480   83.4870 C.ar  234  TYR234     -0.0009
    133  CD2       44.6820   36.8770   83.3660 C.ar  234  TYR234     -0.0009
    134  CE1       46.1330   34.8180   82.2870 C.ar  234  TYR234      0.0417
    135  CE2       44.3130   36.3500   82.1620 C.ar  234  TYR234      0.0417
    136  CZ        45.0450   35.3200   81.6210 C.ar  234  TYR234      0.1957
    137  OH        44.6930   34.7810   80.4060 O.3   234  TYR234     -0.2866
@<TRIPOS>BOND
     1    60    61    2
     2    60    59    1
     3    58    59    1
     4    59    62    1
     5    53    52    2
     6    62    63    1
     7    64    63   ar
     8    64    66   ar
     9    52    51    1
    10    69    70    1
    11    63    65   ar
    12    66    68   ar
    13    51    54    1
    14    51    50    1
    15    70    71    1
    16    70    73    1
    17    65    67   ar
    18    72    71    2
    19    54    55    1
    20    68    67   ar
    21    39    38    2
    22    73    74    1
    23    38    37    1
    24    40    41    1
    25    40    37    1
    26    55    57   am
    27    55    56    2
    28    46    48   ar
    29    46    43   ar
    30    41    43   ar
    31    41    42   ar
    32    48    49   ar
    33    37    36    1
    34    43    45   ar
    35    74    75    1
    36    74    76    1
    37    42    44   ar
    38    49    47   ar
    39    45    44   ar
    40    45    47   ar
    41    22    21    2
    42    36    30   am
    43    21    20    1
    44    20    19    1
    45    20    23    1
    46    24    23    1
    47    24    25    1
    48    30    31    2
    49    30    29    1
    50    80    79    2
    51     8     7    1
    52     8     9    2
    53    28    29    1
    54     7     6    1
    55    27    25   ar
    56    25    26   ar
    57    33    35    1
    58    33    32    1
    59    29    32    1
    60    10     9    1
    61    79    78    1
    62     9    11    1
    63    32    34    1
    64     6     5    1
    65    77    78    1
    66    78    81    1
    67    81    82    1
    68     5     2    1
    69    83    82   ar
    70    83    85   ar
    71    82    84   ar
    72     2     3    1
    73     2     1    1
    74    18    16    1
    75    85    86   ar
    76     3    12   am
    77     3     4    2
    78    12    13    1
    79    13    16    1
    80    13    14    1
    81    84    86   ar
    82    16    17    1
    83   116   117   ar
    84   116   114   ar
    85   117   115   ar
    86    14    15    2
    87   125   123   am
    88   114   112   ar
    89   115   113   ar
    90   123   124    2
    91   123   122    1
    92   112   113   ar
    93   112   111    1
    94   137   136    1
    95   122   119    1
    96   119   120    1
    97   119   118    1
    98   121   120    2
    99   110   109    2
   100   111   108    1
   101   118   109   am
   102   109   108    1
   103   102   100    1
   104   136   135   ar
   105   136   134   ar
   106   106   105    2
   107   104   105    1
   108   104   103    1
   109   135   133   ar
   110   108   107    1
   111   134   132   ar
   112    93    92   ar
   113   100    99    1
   114   100   101    1
   115   103    97   am
   116    87    88    1
   117    92    94   ar
   118    92    91    1
   119   133   131   ar
   120   132   131   ar
   121    99    96    1
   122    98    97    2
   123    97    96    1
   124    91    88    1
   125   131   130    1
   126    88    89    1
   127    96    95    1
   128    90    89    2
   129   130   127    1
   130   127   126    1
   131   127   128    1
   132   128   129    2
