@<TRIPOS>MOLECULE
tmp/5hs6A01.pdb
 120 113 0 0 0
SMALL
GASTEIGER

@<TRIPOS>ATOM
      1  N         33.5820    8.3220  -19.3530 N.3    90  HIS90      -0.1241
      2  CA        32.9680    7.1420  -18.7480 C.3    90  HIS90       0.1621
      3  C         31.8420    6.6790  -19.6540 C.2    90  HIS90       0.2264
      4  O         30.8030    7.3510  -19.7320 O.2    90  HIS90      -0.2867
      5  CB        32.4350    7.4270  -17.3400 C.3    90  HIS90       0.0745
      6  CG        31.9690    6.2010  -16.6080 C.ar   90  HIS90       0.0817
      7  ND1       30.8380    5.4970  -16.9690 N.ar   90  HIS90      -0.2268
      8  CD2       32.4800    5.5560  -15.5300 C.ar   90  HIS90       0.1154
      9  CE1       30.6750    4.4720  -16.1490 C.ar   90  HIS90       0.1986
     10  NE2       31.6570    4.4850  -15.2670 N.ar   90  HIS90      -0.2212
     11  N         26.8680    2.3390  -18.8660 N.3    93  PRO93      -0.2116
     12  CA        27.1100    1.0190  -18.2650 C.3    93  PRO93       0.1372
     13  C         27.0130   -0.0970  -19.2940 C.2    93  PRO93       0.2244
     14  O         26.1170   -0.1110  -20.1390 O.2    93  PRO93      -0.2868
     15  CB        25.9980    0.9000  -17.2130 C.3    93  PRO93       0.0268
     16  CG        25.6140    2.3210  -16.9010 C.3    93  PRO93       0.0207
     17  CD        25.7900    3.0790  -18.1830 C.3    93  PRO93       0.0892
     18  N         40.1650    7.8860  -10.7800 N.3   138  SER138     -0.1217
     19  CA        38.8080    7.6340  -10.3390 C.3   138  SER138      0.1889
     20  C         38.8660    6.6870   -9.1540 C.2   138  SER138      0.2288
     21  O         39.7000    5.7820   -9.1260 O.2   138  SER138     -0.2866
     22  CB        37.9670    7.0250  -11.4660 C.3   138  SER138      0.2089
     23  OG        36.6040    7.0320  -11.1140 O.3   138  SER138     -0.2183
     24  N         36.8970    4.3690   -8.6590 N.3   140  VAL140     -0.1245
     25  CA        36.5760    3.0160   -9.1040 C.3   140  VAL140      0.1561
     26  C         37.7900    2.2840   -9.6550 C.2   140  VAL140      0.2260
     27  O         37.7610    1.0560   -9.7450 O.2   140  VAL140     -0.2867
     28  CB        35.4120    3.0230  -10.1250 C.3   140  VAL140      0.0252
     29  CG1       34.2310    3.7110   -9.5300 C.3   140  VAL140      0.0019
     30  CG2       35.7990    3.6800  -11.4330 C.3   140  VAL140      0.0019
     31  N         33.9230   -1.2590   -9.9440 N.3   145  GLN145     -0.1245
     32  CA        32.5520   -0.8210  -10.1760 C.3   145  GLN145      0.1566
     33  C         31.9020   -1.8360  -11.1040 C.2   145  GLN145      0.2260
     34  O         32.5830   -2.4640  -11.9190 O.2   145  GLN145     -0.2867
     35  CB        32.5090    0.5800  -10.8040 C.3   145  GLN145      0.0367
     36  CG        31.1230    1.1140  -11.1100 C.3   145  GLN145      0.0905
     37  CD        31.1350    2.0720  -12.2880 C.2   145  GLN145      0.2608
     38  OE1       32.1780    2.6230  -12.6480 O.2   145  GLN145     -0.2717
     39  NE2       29.9750    2.2670  -12.9040 N.am  145  GLN145     -0.0878
     40  N         36.3810    1.0130  -18.3130 N.3   151  TYR151     -0.1241
     41  CA        36.6380    2.2580  -17.5980 C.3   151  TYR151      0.1605
     42  C         37.4830    2.0140  -16.3550 C.2   151  TYR151      0.2264
     43  O         38.4970    2.6870  -16.1440 O.2   151  TYR151     -0.2867
     44  CB        35.3190    2.9350  -17.2320 C.3   151  TYR151      0.0534
     45  CG        35.5010    4.2330  -16.4630 C.ar  151  TYR151     -0.0201
     46  CD1       35.7330    5.4320  -17.1310 C.ar  151  TYR151     -0.0009
     47  CD2       35.4450    4.2560  -15.0700 C.ar  151  TYR151     -0.0009
     48  CE1       35.8930    6.6300  -16.4290 C.ar  151  TYR151      0.0417
     49  CE2       35.6100    5.4410  -14.3650 C.ar  151  TYR151      0.0417
     50  CZ        35.8320    6.6240  -15.0500 C.ar  151  TYR151      0.1957
     51  OH        35.9880    7.7950  -14.3420 O.3   151  TYR151     -0.2866
     52  N         35.2680   10.4990   -6.4760 N.3   182  GLY182     -0.1210
     53  CA        34.1240    9.5980   -6.5130 C.3   182  GLY182      0.1956
     54  C         33.0260   10.2300   -7.3440 C.2   182  GLY182      0.2611
     55  O         33.2900   10.7270   -8.4400 O.2   182  GLY182     -0.2717
     56  N         31.8080   10.2730   -6.8220 N.am  183  ASN183     -0.1974
     57  CA        30.6870   10.8970   -7.5270 C.3   183  ASN183      0.1688
     58  C         30.7900   12.4120   -7.4230 C.2   183  ASN183      0.2292
     59  O         30.5890   12.9830   -6.3460 O.2   183  ASN183     -0.2864
     60  CB        29.3620   10.4100   -6.9540 C.3   183  ASN183      0.1181
     61  CG        29.1310    8.9550   -7.2410 C.2   183  ASN183      0.2629
     62  OD1       29.3630    8.4900   -8.3670 O.2   183  ASN183     -0.2716
     63  ND2       28.7230    8.2090   -6.2230 N.am  183  ASN183     -0.0877
     64  N         28.4830   16.5580  -12.4230 N.3   186  THR186     -0.1218
     65  CA        29.0300   17.1420  -13.6530 C.3   186  THR186      0.1862
     66  C         28.0670   16.8880  -14.8020 C.2   186  THR186      0.2287
     67  O         27.0930   16.1370  -14.6330 O.2   186  THR186     -0.2866
     68  CB        30.3910   16.5350  -14.0200 C.3   186  THR186      0.1770
     69  OG1       30.2190   15.1440  -14.3370 O.3   186  THR186     -0.2211
     70  CG2       31.4070   16.7060  -12.9040 C.3   186  THR186      0.0375
     71  N         28.7030   15.0480  -17.3350 N.3   188  LEU188     -0.1231
     72  CA        28.8040   13.6280  -17.6450 C.3   188  LEU188      0.1693
     73  C         27.9050   12.8150  -16.7200 C.2   188  LEU188      0.2592
     74  O         27.1610   11.9440  -17.1770 O.2   188  LEU188     -0.2718
     75  CB        30.2550   13.1600  -17.5550 C.3   188  LEU188      0.0284
     76  CG        30.5470   11.6590  -17.7560 C.3   188  LEU188      0.0019
     77  CD1       30.1210   11.1530  -19.1400 C.3   188  LEU188      0.0001
     78  CD2       32.0330   11.3730  -17.5210 C.3   188  LEU188      0.0001
     79  N         27.9490   13.0960  -15.4130 N.am  189  TRP189     -0.1976
     80  CA        27.0680   12.3930  -14.4800 C.3   189  TRP189      0.1640
     81  C         25.6100   12.5620  -14.8870 C.2   189  TRP189      0.2290
     82  O         24.8470   11.5880  -14.9420 O.2   189  TRP189     -0.2864
     83  CB        27.2860   12.8930  -13.0460 C.3   189  TRP189      0.0576
     84  CG        27.3440   11.7970  -12.0220 C.ar  189  TRP189      0.0006
     85  CD1       28.4520   11.3560  -11.3550 C.ar  189  TRP189      0.0946
     86  CD2       26.2510   10.9950  -11.5600 C.ar  189  TRP189      0.0152
     87  NE1       28.1170   10.3270  -10.5010 N.ar  189  TRP189     -0.2442
     88  CE2       26.7710   10.0880  -10.6060 C.ar  189  TRP189      0.0810
     89  CE3       24.8760   10.9600  -11.8500 C.ar  189  TRP189      0.0012
     90  CZ2       25.9660    9.1500   -9.9460 C.ar  189  TRP189      0.0191
     91  CZ3       24.0780   10.0280  -11.1940 C.ar  189  TRP189      0.0001
     92  CH2       24.6260    9.1350  -10.2490 C.ar  189  TRP189      0.0015
     93  N         24.7120   10.5630  -18.0470 N.3   192  LEU192     -0.1231
     94  CA        24.6380    9.1300  -17.7760 C.3   192  LEU192      0.1693
     95  C         23.3580    8.7780  -17.0290 C.2   192  LEU192      0.2591
     96  O         22.6740    7.8050  -17.3770 O.2   192  LEU192     -0.2718
     97  CB        25.8700    8.6760  -16.9920 C.3   192  LEU192      0.0284
     98  CG        27.1790    8.5770  -17.7980 C.3   192  LEU192      0.0019
     99  CD1       28.3920    8.4180  -16.8780 C.3   192  LEU192      0.0001
    100  CD2       27.1250    7.4360  -18.8080 C.3   192  LEU192      0.0001
    101  N         23.0020    9.5700  -16.0150 N.am  193  ALA193     -0.1980
    102  CA        21.7500    9.3280  -15.3040 C.3   193  ALA193      0.1597
    103  C         20.5480    9.4260  -16.2410 C.2   193  ALA193      0.2287
    104  O         19.5780    8.6750  -16.0930 O.2   193  ALA193     -0.2864
    105  CB        21.6080   10.3040  -14.1360 C.3   193  ALA193      0.0319
    106  N         19.1290    6.3400  -17.7940 N.3   196  MET196     -0.1245
    107  CA        18.5760    5.3280  -16.9090 C.3   196  MET196      0.1570
    108  C         17.0550    5.3710  -16.9170 C.2   196  MET196      0.2261
    109  O         16.4540    6.4060  -17.2170 O.2   196  MET196     -0.2867
    110  CB        19.0920    5.5390  -15.4890 C.3   196  MET196      0.0387
    111  CG        20.5960    5.4960  -15.3750 C.3   196  MET196      0.0595
    112  SD        21.2790    3.9030  -15.8540 S.3   196  MET196     -0.1393
    113  CE        22.9440    4.0920  -15.2290 C.3   196  MET196      0.0692
    114  N         18.3660    7.3090   -9.9870 N.3   202  THR202     -0.1218
    115  CA        19.7960    7.0870  -10.1610 C.3   202  THR202      0.1862
    116  C         20.6000    8.2040   -9.5110 C.2   202  THR202      0.2287
    117  O         21.6170    7.9430   -8.8560 O.2   202  THR202     -0.2866
    118  CB        20.1210    6.9600  -11.6490 C.3   202  THR202      0.1770
    119  OG1       19.3490    5.8860  -12.2090 O.3   202  THR202     -0.2211
    120  CG2       21.5840    6.6770  -11.8690 C.3   202  THR202      0.0375
@<TRIPOS>BOND
     1    14    13    2
     2     4     3    2
     3     3     2    1
     4     1     2    1
     5    13    12    1
     6    77    76    1
     7    11    12    1
     8    11    17    1
     9   100    98    1
    10     2     5    1
    11    40    41    1
    12    12    15    1
    13    17    16    1
    14    93    94    1
    15    98    97    1
    16    98    99    1
    17   106   107    1
    18    94    95    1
    19    94    97    1
    20    76    75    1
    21    76    78    1
    22    72    75    1
    23    72    71    1
    24    72    73    1
    25    41    44    1
    26    41    42    1
    27    96    95    2
    28     5     6    1
    29    44    45    1
    30   109   108    2
    31    15    16    1
    32    74    73    2
    33    46    45   ar
    34    46    48   ar
    35    95   101   am
    36     7     6   ar
    37     7     9   ar
    38   108   107    1
    39   107   110    1
    40    73    79   am
    41     6     8   ar
    42    45    47   ar
    43    48    50   ar
    44    42    43    2
    45   103   104    2
    46   103   102    1
    47     9    10   ar
    48   101   102    1
    49   112   111    1
    50   112   113    1
    51     8    10   ar
    52   110   111    1
    53    79    80    1
    54   102   105    1
    55    47    49   ar
    56    50    49   ar
    57    50    51    1
    58    82    81    2
    59    81    80    1
    60    66    67    2
    61    66    65    1
    62    80    83    1
    63    69    68    1
    64    68    65    1
    65    68    70    1
    66    65    64    1
    67    83    84    1
    68    39    37   am
    69    38    37    2
    70    37    36    1
    71   119   118    1
    72    84    86   ar
    73    84    85   ar
    74    34    33    2
    75   120   118    1
    76    89    86   ar
    77    89    91   ar
    78   118   115    1
    79    86    88   ar
    80    22    23    1
    81    22    19    1
    82    30    28    1
    83    85    87   ar
    84    91    92   ar
    85    36    35    1
    86    33    32    1
    87    35    32    1
    88    18    19    1
    89    88    87   ar
    90    88    90   ar
    91    19    20    1
    92    92    90   ar
    93    32    31    1
    94   115   114    1
    95   115   116    1
    96    28    29    1
    97    28    25    1
    98    27    26    2
    99    26    25    1
   100   116   117    2
   101    20    21    2
   102    25    24    1
   103    55    54    2
   104    62    61    2
   105    57    58    1
   106    57    60    1
   107    57    56    1
   108    58    59    2
   109    54    56   am
   110    54    53    1
   111    61    60    1
   112    61    63   am
   113    53    52    1
