@<TRIPOS>MOLECULE
tmp/5hsaH00.pdb
 94 92 0 0 0
SMALL
GASTEIGER

@<TRIPOS>ATOM
      1  N         33.4190  -74.0910  209.5670 N.3   406  LYS406     -0.1245
      2  CA        32.8230  -75.2240  210.2780 C.3   406  LYS406      0.1561
      3  C         32.7810  -75.0120  211.7940 C.2   406  LYS406      0.2260
      4  O         32.5910  -75.9610  212.5560 O.2   406  LYS406     -0.2867
      5  CB        33.5930  -76.5130  209.9720 C.3   406  LYS406      0.0271
      6  CG        33.8830  -76.7650  208.4950 C.3   406  LYS406      0.0035
      7  CD        32.6100  -76.9360  207.6790 C.3   406  LYS406      0.0206
      8  CE        32.9000  -77.6080  206.3380 C.3   406  LYS406      0.1093
      9  NZ        33.9160  -76.8770  205.5350 N.3   406  LYS406     -0.1314
     10  N         31.4340  -71.9500  214.9280 N.3   408  PRO408     -0.2116
     11  CA        30.5930  -70.7480  215.0330 C.3   408  PRO408      0.1372
     12  C         31.3930  -69.4520  214.9460 C.2   408  PRO408      0.2244
     13  O         32.6140  -69.4820  215.0960 O.2   408  PRO408     -0.2868
     14  CB        29.9480  -70.8940  216.4170 C.3   408  PRO408      0.0268
     15  CG        29.9770  -72.3600  216.6940 C.3   408  PRO408      0.0207
     16  CD        31.2510  -72.8460  216.0840 C.3   408  PRO408      0.0892
     17  N         34.0760  -75.2080  223.1250 N.3   476  VAL476     -0.1231
     18  CA        33.3130  -75.4320  221.8980 C.3   476  VAL476      0.1692
     19  C         32.9520  -76.9060  221.7720 C.2   476  VAL476      0.2593
     20  O         33.7800  -77.7570  221.4410 O.2   476  VAL476     -0.2718
     21  CB        34.0650  -74.9090  220.6390 C.3   476  VAL476      0.0266
     22  CG1       35.4960  -74.9640  220.8280 C.3   476  VAL476      0.0020
     23  CG2       33.6010  -75.6010  219.3540 C.3   476  VAL476      0.0020
     24  N         31.6840  -77.1860  222.0490 N.am  477  THR477     -0.1939
     25  CA        31.2130  -78.5510  222.2390 C.3   477  THR477      0.2028
     26  C         31.4400  -79.4320  221.0120 C.2   477  THR477      0.2643
     27  O         31.8120  -80.5940  221.1480 O.2   477  THR477     -0.2714
     28  CB        29.7150  -78.5710  222.6120 C.3   477  THR477      0.1808
     29  OG1       28.9170  -78.6740  221.4320 O.3   477  THR477     -0.2208
     30  CG2       29.3480  -77.3080  223.3350 C.3   477  THR477      0.0379
     31  N         31.2360  -78.8730  219.8220 N.am  478  SER478     -0.1935
     32  CA        31.3710  -79.6340  218.5840 C.3   478  SER478      0.2055
     33  C         32.8020  -80.0910  218.3250 C.2   478  SER478      0.2643
     34  O         33.0270  -81.0180  217.5520 O.2   478  SER478     -0.2714
     35  CB        30.8850  -78.8030  217.3980 C.3   478  SER478      0.2130
     36  OG        31.6710  -77.6320  217.2560 O.3   478  SER478     -0.2179
     37  N         33.7660  -79.4310  218.9570 N.am  479  HIS479     -0.1973
     38  CA        35.1760  -79.7180  218.7130 C.3   479  HIS479      0.1656
     39  C         35.8490  -80.2850  219.9550 C.2   479  HIS479      0.2291
     40  O         37.0740  -80.2430  220.0800 O.2   479  HIS479     -0.2864
     41  CB        35.9130  -78.4560  218.2550 C.3   479  HIS479      0.0771
     42  CG        35.5550  -78.0010  216.8730 C.ar  479  HIS479      0.0820
     43  ND1       34.2730  -77.6450  216.5110 N.ar  479  HIS479     -0.2267
     44  CD2       36.3180  -77.8210  215.7660 C.ar  479  HIS479      0.1154
     45  CE1       34.2590  -77.2740  215.2420 C.ar  479  HIS479      0.1986
     46  NE2       35.4890  -77.3720  214.7670 N.ar  479  HIS479     -0.2212
     47  N         33.0560  -86.2480  222.7560 N.3   482  LEU482     -0.1245
     48  CA        31.6170  -86.4380  222.8340 C.3   482  LEU482      0.1561
     49  C         31.2220  -87.0970  224.1540 C.2   482  LEU482      0.2260
     50  O         30.7910  -88.2500  224.1830 O.2   482  LEU482     -0.2867
     51  CB        31.1370  -87.2720  221.6450 C.3   482  LEU482      0.0270
     52  CG        31.6450  -86.7650  220.2890 C.3   482  LEU482      0.0019
     53  CD1       31.2420  -87.6950  219.1560 C.3   482  LEU482      0.0001
     54  CD2       31.1560  -85.3460  220.0110 C.3   482  LEU482      0.0001
     55  N         29.5470  -74.3990  227.0140 N.3   493  GLU493     -0.1245
     56  CA        29.6930  -73.2470  226.1250 C.3   493  GLU493      0.1567
     57  C         29.6650  -71.9220  226.8790 C.2   493  GLU493      0.2260
     58  O         29.4380  -71.8890  228.0850 O.2   493  GLU493     -0.2867
     59  CB        28.5880  -73.2480  225.0630 C.3   493  GLU493      0.0388
     60  CG        28.9990  -73.8270  223.7210 C.3   493  GLU493      0.1160
     61  CD        29.7900  -72.8500  222.8570 C.2   493  GLU493      0.3649
     62  OE1       30.0290  -73.1770  221.6750 O.co2 493  GLU493     -0.2457
     63  OE2       30.1670  -71.7590  223.3450 O.co2 493  GLU493     -0.2457
     64  N         21.2980  -77.9570  221.9660 N.3   517  TRP517     -0.1227
     65  CA        22.5380  -78.2600  221.2640 C.3   517  TRP517      0.1737
     66  C         23.7560  -78.0510  222.1530 C.2   517  TRP517      0.2596
     67  O         24.7670  -78.7330  221.9920 O.2   517  TRP517     -0.2718
     68  CB        22.6390  -77.4070  219.9950 C.3   517  TRP517      0.0564
     69  CG        21.4730  -77.6260  219.0930 C.ar  517  TRP517      0.0003
     70  CD1       20.5240  -76.7140  218.7420 C.ar  517  TRP517      0.0946
     71  CD2       21.1000  -78.8570  218.4620 C.ar  517  TRP517      0.0152
     72  NE1       19.5930  -77.2940  217.9120 N.ar  517  TRP517     -0.2442
     73  CE2       19.9250  -78.6140  217.7270 C.ar  517  TRP517      0.0810
     74  CE3       21.6550  -80.1420  218.4370 C.ar  517  TRP517      0.0012
     75  CZ2       19.2930  -79.6000  216.9760 C.ar  517  TRP517      0.0191
     76  CZ3       21.0270  -81.1230  217.6950 C.ar  517  TRP517      0.0001
     77  CH2       19.8580  -80.8470  216.9730 C.ar  517  TRP517      0.0015
     78  N         23.6550  -77.1110  223.0900 N.am  518  THR518     -0.1953
     79  CA        24.7520  -76.8170  224.0080 C.3   518  THR518      0.1897
     80  C         24.2420  -76.6360  225.4340 C.2   518  THR518      0.2313
     81  O         23.0400  -76.4580  225.6600 O.2   518  THR518     -0.2863
     82  CB        25.5300  -75.5330  223.6030 C.3   518  THR518      0.1794
     83  OG1       24.6990  -74.3820  223.7970 O.3   518  THR518     -0.2208
     84  CG2       25.9910  -75.5890  222.1460 C.3   518  THR518      0.0378
     85  N         40.4460  -87.5260  215.7690 N.3   560  HIS560     -0.1241
     86  CA        40.9350  -86.1900  215.4330 C.3   560  HIS560      0.1621
     87  C         42.4470  -86.0210  215.5970 C.2   560  HIS560      0.2264
     88  O         42.9600  -84.8990  215.5090 O.2   560  HIS560     -0.2867
     89  CB        40.1870  -85.1420  216.2670 C.3   560  HIS560      0.0745
     90  CG        38.7000  -85.2200  216.1210 C.ar  560  HIS560      0.0817
     91  ND1       38.0450  -84.8530  214.9640 N.ar  560  HIS560     -0.2268
     92  CD2       37.7410  -85.6540  216.9740 C.ar  560  HIS560      0.1154
     93  CE1       36.7470  -85.0480  215.1140 C.ar  560  HIS560      0.1986
     94  NE2       36.5350  -85.5300  216.3260 N.ar  560  HIS560     -0.2212
@<TRIPOS>BOND
     1     9     8    1
     2     8     7    1
     3     7     6    1
     4     6     5    1
     5     1     2    1
     6     5     2    1
     7     2     3    1
     8     3     4    2
     9    46    45   ar
    10    46    44   ar
    11    10    11    1
    12    10    16    1
    13    12    11    1
    14    12    13    2
    15    91    93   ar
    16    91    90   ar
    17    11    14    1
    18    93    94   ar
    19    45    43   ar
    20    86    87    1
    21    86    85    1
    22    86    89    1
    23    88    87    2
    24    44    42   ar
    25    16    15    1
    26    90    89    1
    27    90    92   ar
    28    94    92   ar
    29    14    15    1
    30    43    42   ar
    31    42    41    1
    32    77    75   ar
    33    77    76   ar
    34    75    73   ar
    35    36    35    1
    36    35    32    1
    37    34    33    2
    38    76    74   ar
    39    73    72   ar
    40    73    71   ar
    41    72    70   ar
    42    41    38    1
    43    33    32    1
    44    33    37   am
    45    74    71   ar
    46    71    69   ar
    47    32    31    1
    48    38    37    1
    49    38    39    1
    50    70    69   ar
    51    69    68    1
    52    53    52    1
    53    23    21    1
    54    31    26   am
    55    39    40    2
    56    68    65    1
    57    54    52    1
    58    52    51    1
    59    21    22    1
    60    21    18    1
    61    26    27    2
    62    26    25    1
    63    65    64    1
    64    65    66    1
    65    29    28    1
    66    20    19    2
    67    51    48    1
    68    62    61   ar
    69    19    18    1
    70    19    24   am
    71    18    17    1
    72    67    66    2
    73    24    25    1
    74    84    82    1
    75    66    78   am
    76    25    28    1
    77    28    30    1
    78    47    48    1
    79    48    49    1
    80    61    63   ar
    81    61    60    1
    82    78    79    1
    83    82    83    1
    84    82    79    1
    85    60    59    1
    86    79    80    1
    87    49    50    2
    88    59    56    1
    89    80    81    2
    90    56    57    1
    91    56    55    1
    92    57    58    2
