@<TRIPOS>MOLECULE
tmp/5hsaA03.pdb
 95 90 0 0 0
SMALL
GASTEIGER

@<TRIPOS>ATOM
      1  N         -3.1310  -41.2210  161.8880 N.3     2  ILE2       -0.1245
      2  CA        -3.5100  -39.8200  162.0140 C.3     2  ILE2        0.1561
      3  C         -4.1890  -39.3400  160.7320 C.2     2  ILE2        0.2260
      4  O         -3.5940  -39.3900  159.6580 O.2     2  ILE2       -0.2867
      5  CB        -2.2900  -38.9240  162.3020 C.3     2  ILE2        0.0252
      6  CG1       -1.5040  -39.4450  163.5110 C.3     2  ILE2        0.0019
      7  CG2       -2.7250  -37.4760  162.4920 C.3     2  ILE2        0.0019
      8  CD1       -2.2380  -39.3130  164.8360 C.3     2  ILE2        0.0001
      9  N          8.2670  -32.1150  172.0860 N.3    40  GLU40      -0.1231
     10  CA         7.9220  -33.4930  172.4300 C.3    40  GLU40       0.1699
     11  C          6.6240  -33.5840  173.2260 C.2    40  GLU40       0.2592
     12  O          6.1950  -32.6150  173.8600 O.2    40  GLU40      -0.2718
     13  CB         9.0470  -34.1490  173.2290 C.3    40  GLU40       0.0402
     14  CG        10.2760  -34.5110  172.4060 C.3    40  GLU40       0.1161
     15  CD        11.3360  -35.2550  173.2150 C.2    40  GLU40       0.3649
     16  OE1       11.2760  -35.2310  174.4620 O.co2  40  GLU40      -0.2457
     17  OE2       12.2400  -35.8620  172.6050 O.co2  40  GLU40      -0.2457
     18  N          6.0030  -34.7590  173.1830 N.am   41  ASN41      -0.1960
     19  CA         4.8920  -35.0750  174.0700 C.3    41  ASN41       0.1819
     20  C          5.3910  -35.0250  175.5200 C.2    41  ASN41       0.2621
     21  O          6.5350  -35.3750  175.7850 O.2    41  ASN41      -0.2715
     22  CB         4.3200  -36.4500  173.7300 C.3    41  ASN41       0.1195
     23  CG         2.9870  -36.7190  174.3970 C.2    41  ASN41       0.2630
     24  OD1        2.5320  -35.9550  175.2500 O.2    41  ASN41      -0.2716
     25  ND2        2.3540  -37.8250  174.0130 N.am   41  ASN41      -0.0877
     26  N          4.5490  -34.5740  176.4500 N.am   42  ASN42      -0.1958
     27  CA         4.9750  -34.4240  177.8440 C.3    42  ASN42       0.1819
     28  C          4.2490  -35.3730  178.7860 C.2    42  ASN42       0.2621
     29  O          4.4150  -35.2860  180.0040 O.2    42  ASN42      -0.2715
     30  CB         4.7730  -32.9800  178.3230 C.3    42  ASN42       0.1195
     31  CG         3.3100  -32.6360  178.5530 C.2    42  ASN42       0.2630
     32  OD1        2.4140  -33.2600  177.9910 O.2    42  ASN42      -0.2716
     33  ND2        3.0630  -31.6330  179.3840 N.am   42  ASN42      -0.0877
     34  N          3.4440  -36.2680  178.2140 N.am   43  LEU43      -0.1977
     35  CA         2.6190  -37.2050  178.9770 C.3    43  LEU43       0.1596
     36  C          3.4200  -37.9700  180.0240 C.2    43  LEU43       0.2287
     37  O          4.3520  -38.7020  179.6850 O.2    43  LEU43      -0.2864
     38  CB         1.9320  -38.1960  178.0320 C.3    43  LEU43       0.0297
     39  CG         1.0140  -39.2320  178.6880 C.3    43  LEU43       0.0022
     40  CD1       -0.0880  -38.5430  179.4730 C.3    43  LEU43       0.0001
     41  CD2        0.4180  -40.1830  177.6530 C.3    43  LEU43       0.0001
     42  N          5.7370  -37.2500  181.9430 N.3    45  ASN45      -0.1240
     43  CA         7.1670  -36.9760  182.0150 C.3    45  ASN45       0.1653
     44  C          7.5260  -36.3130  183.3480 C.2    45  ASN45       0.2266
     45  O          7.0700  -35.2050  183.6370 O.2    45  ASN45      -0.2867
     46  CB         7.5880  -36.0950  180.8390 C.3    45  ASN45       0.1155
     47  CG         9.0810  -35.8510  180.7880 C.2    45  ASN45       0.2627
     48  OD1        9.8440  -36.3720  181.6050 O.2    45  ASN45      -0.2716
     49  ND2        9.5120  -35.0600  179.8080 N.am   45  ASN45      -0.0877
     50  N         16.3920  -29.3510  176.1290 N.3    63  LYS63      -0.1245
     51  CA        15.5530  -29.8550  175.0450 C.3    63  LYS63       0.1561
     52  C         14.1550  -29.2480  175.0770 C.2    63  LYS63       0.2260
     53  O         13.3930  -29.3800  174.1170 O.2    63  LYS63      -0.2867
     54  CB        15.4040  -31.3730  175.1200 C.3    63  LYS63       0.0271
     55  CG        16.6670  -32.2040  175.1410 C.3    63  LYS63       0.0035
     56  CD        16.3500  -33.6070  175.6930 C.3    63  LYS63       0.0206
     57  CE        15.0640  -34.1900  175.0770 C.3    63  LYS63       0.1093
     58  NZ        14.6760  -35.5120  175.6680 N.3    63  LYS63      -0.1314
     59  N         -3.3220  -36.1270  168.6960 N.3   220  LEU220     -0.1231
     60  CA        -2.1080  -35.4360  169.1210 C.3   220  LEU220      0.1693
     61  C         -0.9580  -35.6500  168.1340 C.2   220  LEU220      0.2592
     62  O         -0.5790  -36.7840  167.8470 O.2   220  LEU220     -0.2718
     63  CB        -1.7020  -35.9020  170.5240 C.3   220  LEU220      0.0284
     64  CG        -0.5180  -35.1850  171.1820 C.3   220  LEU220      0.0019
     65  CD1       -0.7520  -33.6790  171.2260 C.3   220  LEU220      0.0001
     66  CD2       -0.2840  -35.7290  172.5840 C.3   220  LEU220      0.0001
     67  N         -0.4140  -34.5500  167.6200 N.am  221  ILE221     -0.1966
     68  CA         0.6540  -34.5910  166.6230 C.3   221  ILE221      0.1727
     69  C          1.8660  -33.7690  167.0600 C.2   221  ILE221      0.2616
     70  O          1.9520  -32.5780  166.7700 O.2   221  ILE221     -0.2715
     71  CB         0.1610  -34.0670  165.2650 C.3   221  ILE221      0.0290
     72  CG1       -1.1760  -34.7150  164.8940 C.3   221  ILE221      0.0022
     73  CG2        1.2180  -34.2960  164.1780 C.3   221  ILE221      0.0023
     74  CD1       -1.8330  -34.1080  163.6970 C.3   221  ILE221      0.0001
     75  N          2.7950  -34.4120  167.7610 N.am  222  CYS222     -0.1954
     76  CA         3.9760  -33.7390  168.2960 C.3   222  CYS222      0.1843
     77  C          5.1860  -33.8590  167.3690 C.2   222  CYS222      0.2625
     78  O          5.1160  -34.5180  166.3300 O.2   222  CYS222     -0.2714
     79  CB         4.3320  -34.2970  169.6790 C.3   222  CYS222      0.0997
     80  SG         3.1650  -33.8650  170.9820 S.3   222  CYS222     -0.0797
     81  N          6.2850  -33.2120  167.7620 N.am  223  ASN223     -0.1958
     82  CA         7.5390  -33.2070  167.0050 C.3   223  ASN223      0.1819
     83  C          7.3350  -32.7250  165.5820 C.2   223  ASN223      0.2621
     84  O          8.0480  -33.1330  164.6610 O.2   223  ASN223     -0.2715
     85  CB         8.1710  -34.5960  167.0080 C.3   223  ASN223      0.1195
     86  CG         8.4480  -35.1040  168.4130 C.2   223  ASN223      0.2630
     87  OD1        9.4090  -34.6840  169.0580 O.2   223  ASN223     -0.2716
     88  ND2        7.6050  -36.0110  168.8950 N.am  223  ASN223     -0.0877
     89  N          6.3580  -31.8400  165.4150 N.am  224  THR224     -0.1951
     90  CA         5.9400  -31.3890  164.1000 C.3   224  THR224      0.1897
     91  C          5.8420  -29.8630  164.0560 C.2   224  THR224      0.2313
     92  O          5.0380  -29.2640  164.7790 O.2   224  THR224     -0.2863
     93  CB         4.5910  -32.0180  163.7250 C.3   224  THR224      0.1794
     94  OG1        4.7260  -33.4440  163.6960 O.3   224  THR224     -0.2208
     95  CG2        4.1300  -31.5300  162.3700 C.3   224  THR224      0.0378
@<TRIPOS>BOND
     1     4     3    2
     2     3     2    1
     3     1     2    1
     4     2     5    1
     5     5     7    1
     6     5     6    1
     7    95    93    1
     8     6     8    1
     9    94    93    1
    10    74    72    1
    11    93    90    1
    12    91    90    1
    13    91    92    2
    14    90    89    1
    15    73    71    1
    16    84    83    2
    17    72    71    1
    18    71    68    1
    19    89    83   am
    20    83    82    1
    21    78    77    2
    22    68    69    1
    23    68    67    1
    24    70    69    2
    25    82    85    1
    26    82    81    1
    27    85    86    1
    28    69    75   am
    29    77    81   am
    30    77    76    1
    31    67    61   am
    32    75    76    1
    33    62    61    2
    34    61    60    1
    35    76    79    1
    36    86    88   am
    37    86    87    2
    38    59    60    1
    39    60    63    1
    40    79    80    1
    41    63    64    1
    42    64    65    1
    43    64    66    1
    44     9    10    1
    45    14    15    1
    46    14    13    1
    47    10    11    1
    48    10    13    1
    49    17    15   ar
    50    18    11   am
    51    18    19    1
    52    15    16   ar
    53    11    12    2
    54    22    19    1
    55    22    23    1
    56    25    23   am
    57    19    20    1
    58    53    52    2
    59    23    24    2
    60    51    52    1
    61    51    54    1
    62    51    50    1
    63    57    58    1
    64    57    56    1
    65    54    55    1
    66    55    56    1
    67    20    21    2
    68    20    26   am
    69    26    27    1
    70    41    39    1
    71    27    30    1
    72    27    28    1
    73    32    31    2
    74    38    39    1
    75    38    35    1
    76    34    28   am
    77    34    35    1
    78    30    31    1
    79    31    33   am
    80    39    40    1
    81    28    29    2
    82    35    36    1
    83    37    36    2
    84    49    47   am
    85    47    46    1
    86    47    48    2
    87    46    43    1
    88    42    43    1
    89    43    44    1
    90    44    45    2
