@<TRIPOS>MOLECULE
tmp/5hsjA00.pdb
 124 116 0 0 0
SMALL
GASTEIGER

@<TRIPOS>ATOM
      1  N         36.3620  -13.5920   96.6900 N.3   151  ASP151     -0.1225
      2  CA        36.5780  -13.8140   98.0870 C.3   151  ASP151      0.1805
      3  C         37.6450  -14.8430   98.3260 C.2   151  ASP151      0.2598
      4  O         38.2000  -15.4240   97.3720 O.2   151  ASP151     -0.2718
      5  CB        35.2680  -14.2290   98.7880 C.3   151  ASP151      0.1424
      6  CG        34.6550  -15.4520   98.1590 C.2   151  ASP151      0.3668
      7  OD1       35.4240  -16.3600   97.7860 O.co2 151  ASP151     -0.2456
      8  OD2       33.3890  -15.5130   98.0030 O.co2 151  ASP151     -0.2456
      9  N         37.9980  -15.0700   99.5810 N.am  152  GLY152     -0.1942
     10  CA        39.1400  -16.0020   99.8510 C.3   152  GLY152      0.2014
     11  C         38.7480  -17.4570   99.5760 C.2   152  GLY152      0.2639
     12  O         39.6140  -18.2650   99.2990 O.2   152  GLY152     -0.2714
     13  N         37.4480  -17.8390   99.6870 N.am  153  SER153     -0.1949
     14  CA        37.1080  -19.2470   99.2530 C.3   153  SER153      0.1924
     15  C         37.4580  -19.4900   97.7850 C.2   153  SER153      0.2314
     16  O         37.9370  -20.5760   97.3990 O.2   153  SER153     -0.2863
     17  CB        35.5550  -19.5240   99.4600 C.3   153  SER153      0.2116
     18  OG        35.4230  -19.3070  100.8480 O.3   153  SER153     -0.2180
     19  N         41.1340  -19.8970   97.2550 N.3   156  ASN156     -0.1240
     20  CA        41.6080  -21.2700   97.5800 C.3   156  ASN156      0.1653
     21  C         41.3040  -22.2270   96.4390 C.2   156  ASN156      0.2266
     22  O         42.1680  -23.0680   96.0800 O.2   156  ASN156     -0.2867
     23  CB        40.9970  -21.7950   98.9130 C.3   156  ASN156      0.1155
     24  CG        41.6220  -21.1530  100.1540 C.2   156  ASN156      0.2627
     25  OD1       42.7620  -20.6240  100.1380 O.2   156  ASN156     -0.2716
     26  ND2       40.8790  -21.2110  101.2760 N.am  156  ASN156     -0.0877
     27  N         39.4050  -24.8270  106.8070 N.3   235  HIS235     -0.1241
     28  CA        38.1950  -24.0580  106.4030 C.3   235  HIS235      0.1621
     29  C         37.3330  -24.8470  105.3290 C.2   235  HIS235      0.2264
     30  O         37.8550  -25.4540  104.4200 O.2   235  HIS235     -0.2867
     31  CB        38.5690  -22.6430  105.9320 C.3   235  HIS235      0.0745
     32  CG        37.3670  -21.7740  105.6740 C.ar  235  HIS235      0.0817
     33  ND1       36.7200  -21.7390  104.4480 N.ar  235  HIS235     -0.2268
     34  CD2       36.6910  -20.9070  106.4820 C.ar  235  HIS235      0.1154
     35  CE1       35.7130  -20.8800  104.5060 C.ar  235  HIS235      0.1986
     36  NE2       35.6720  -20.3610  105.7300 N.ar  235  HIS235     -0.2212
     37  N         35.7880  -24.1920  102.7250 N.3   237  SER237     -0.1217
     38  CA        36.1240  -23.8320  101.3100 C.3   237  SER237      0.1889
     39  C         37.0230  -24.9110  100.6270 C.2   237  SER237      0.2288
     40  O         36.9230  -25.0440   99.3980 O.2   237  SER237     -0.2866
     41  CB        36.7110  -22.3940  101.1300 C.3   237  SER237      0.2089
     42  OG        37.9860  -22.1810  101.7400 O.3   237  SER237     -0.2183
     43  N         48.1110  -23.4830  107.0010 N.3   288  VAL288     -0.1245
     44  CA        47.2460  -22.3530  107.3730 C.3   288  VAL288      0.1561
     45  C         48.0290  -21.2950  108.1850 C.2   288  VAL288      0.2260
     46  O         48.7000  -21.6110  109.1990 O.2   288  VAL288     -0.2867
     47  CB        46.0050  -22.8750  108.1620 C.3   288  VAL288      0.0252
     48  CG1       45.1380  -21.6660  108.5980 C.3   288  VAL288      0.0019
     49  CG2       45.2210  -23.8220  107.2470 C.3   288  VAL288      0.0019
     50  N         46.9980  -18.5710  110.4150 N.3   290  GLY290     -0.1225
     51  CA        45.8440  -17.9260  111.0540 C.3   290  GLY290      0.1811
     52  C         44.6010  -18.7580  110.8960 C.2   290  GLY290      0.2280
     53  O         43.7400  -18.4770  110.0690 O.2   290  GLY290     -0.2866
     54  N         40.9220  -20.4760  111.7170 N.3   292  THR292     -0.1218
     55  CA        39.6800  -19.7760  111.8110 C.3   292  THR292      0.1862
     56  C         39.2680  -19.6110  113.2670 C.2   292  THR292      0.2287
     57  O         38.7420  -18.5610  113.6510 O.2   292  THR292     -0.2866
     58  CB        38.6250  -20.5580  111.0160 C.3   292  THR292      0.1770
     59  OG1       38.8680  -20.3470  109.6200 O.3   292  THR292     -0.2211
     60  CG2       37.1770  -20.0480  111.3590 C.3   292  THR292      0.0375
     61  N         47.2320  -20.9490  103.1030 N.3   322  ASP322     -0.1239
     62  CA        46.0120  -20.2120  103.2980 C.3   322  ASP322      0.1674
     63  C         46.2320  -19.1280  104.3690 C.2   322  ASP322      0.2266
     64  O         46.1530  -19.3910  105.5790 O.2   322  ASP322     -0.2867
     65  CB        44.8990  -21.1890  103.7370 C.3   322  ASP322      0.1410
     66  CG        43.5480  -20.5010  103.8820 C.2   322  ASP322      0.3668
     67  OD1       43.4550  -19.2510  103.8020 O.co2 322  ASP322     -0.2456
     68  OD2       42.5470  -21.2120  104.0220 O.co2 322  ASP322     -0.2456
     69  N         44.3960  -16.3540  104.3870 N.3   324  ALA324     -0.1231
     70  CA        43.1720  -15.5000  104.3290 C.3   324  ALA324      0.1694
     71  C         43.1080  -14.5460  105.4970 C.2   324  ALA324      0.2592
     72  O         42.9030  -13.3250  105.2980 O.2   324  ALA324     -0.2718
     73  CB        41.8740  -16.3130  104.2270 C.3   324  ALA324      0.0304
     74  N         43.3460  -15.0680  106.6900 N.am  325  TYR325     -0.1976
     75  CA        43.3060  -14.3070  107.8720 C.3   325  TYR325      0.1639
     76  C         44.6280  -13.6750  108.2550 C.2   325  TYR325      0.2290
     77  O         44.6230  -12.5190  108.6160 O.2   325  TYR325     -0.2864
     78  CB        42.7360  -15.1670  109.0230 C.3   325  TYR325      0.0560
     79  CG        42.3860  -14.3360  110.2160 C.ar  325  TYR325     -0.0198
     80  CD1       41.2290  -13.5100  110.2370 C.ar  325  TYR325     -0.0009
     81  CD2       43.2260  -14.3290  111.3360 C.ar  325  TYR325     -0.0009
     82  CE1       40.9330  -12.7090  111.3490 C.ar  325  TYR325      0.0417
     83  CE2       42.9440  -13.5240  112.4440 C.ar  325  TYR325      0.0417
     84  CZ        41.8160  -12.7240  112.4530 C.ar  325  TYR325      0.1957
     85  OH        41.5600  -11.9630  113.5740 O.3   325  TYR325     -0.2866
     86  N         43.1940  -12.2370  102.2330 N.3   383  ASP383     -0.1239
     87  CA        41.9190  -11.5150  102.0560 C.3   383  ASP383      0.1674
     88  C         41.9920  -10.0560  102.4930 C.2   383  ASP383      0.2266
     89  O         41.9550   -9.7810  103.7240 O.2   383  ASP383     -0.2867
     90  CB        40.8830  -12.0970  103.0010 C.3   383  ASP383      0.1410
     91  CG        40.0630  -13.1790  102.3680 C.2   383  ASP383      0.3668
     92  OD1       40.4050  -13.4960  101.1970 O.co2 383  ASP383     -0.2456
     93  OD2       39.1360  -13.7220  103.0710 O.co2 383  ASP383     -0.2456
     94  N         39.6330   -8.0860  102.6760 N.3   385  HIS385     -0.1226
     95  CA        38.4390   -7.8600  103.5850 C.3   385  HIS385      0.1752
     96  C         38.4740   -8.5700  104.9030 C.2   385  HIS385      0.2595
     97  O         37.4950   -8.4970  105.6930 O.2   385  HIS385     -0.2718
     98  CB        37.1190   -8.1380  102.7930 C.3   385  HIS385      0.0759
     99  CG        36.8990   -9.5880  102.3920 C.ar  385  HIS385      0.0818
    100  ND1       36.1640   -9.9450  101.2860 N.ar  385  HIS385     -0.2268
    101  CD2       37.2550  -10.7640  102.9530 C.ar  385  HIS385      0.1154
    102  CE1       36.0980  -11.2620  101.1650 C.ar  385  HIS385      0.1986
    103  NE2       36.7260  -11.7910  102.1760 N.ar  385  HIS385     -0.2212
    104  N         39.5180   -9.3280  105.2060 N.am  386  LYS386     -0.1980
    105  CA        39.6980   -9.6010  106.6270 C.3   386  LYS386      0.1596
    106  C         40.6820   -8.6370  107.2370 C.2   386  LYS386      0.2287
    107  O         40.3220   -7.5000  107.5130 O.2   386  LYS386     -0.2864
    108  CB        40.0920  -11.0390  106.9140 C.3   386  LYS386      0.0298
    109  CG        38.9830  -11.9560  106.4820 C.3   386  LYS386      0.0038
    110  CD        39.3370  -13.3780  106.7720 C.3   386  LYS386      0.0206
    111  CE        38.0790  -14.2020  106.6630 C.3   386  LYS386      0.1093
    112  NZ        38.4790  -15.6240  106.5970 N.3   386  LYS386     -0.1314
    113  N         34.1460   -5.6870  102.3240 N.3   392  TYR392     -0.1241
    114  CA        33.6870   -6.8070  101.4650 C.3   392  TYR392      0.1605
    115  C         33.2170   -6.2600  100.1200 C.2   392  TYR392      0.2264
    116  O         32.5770   -5.1690  100.0870 O.2   392  TYR392     -0.2867
    117  CB        32.5000   -7.5390  102.1930 C.3   392  TYR392      0.0534
    118  CG        32.9990   -8.3810  103.3440 C.ar  392  TYR392     -0.0201
    119  CD1       33.5150   -9.6700  103.1200 C.ar  392  TYR392     -0.0009
    120  CD2       33.0150   -7.8750  104.6450 C.ar  392  TYR392     -0.0009
    121  CE1       34.0150  -10.4190  104.1680 C.ar  392  TYR392      0.0417
    122  CE2       33.5160   -8.6340  105.7190 C.ar  392  TYR392      0.0417
    123  CZ        33.9890   -9.8950  105.4750 C.ar  392  TYR392      0.1957
    124  OH        34.4940  -10.6330  106.4880 O.3   392  TYR392     -0.2866
@<TRIPOS>BOND
     1    22    21    2
     2    21    20    1
     3     1     2    1
     4    19    20    1
     5     4     3    2
     6    16    15    2
     7    20    23    1
     8    15    14    1
     9     7     6   ar
    10     8     6   ar
    11     2     3    1
    12     2     5    1
    13     6     5    1
    14     3     9   am
    15    23    24    1
    16    14    17    1
    17    14    13    1
    18    12    11    2
    19    40    39    2
    20    17    18    1
    21    11    13   am
    22    11    10    1
    23     9    10    1
    24   116   115    2
    25   115   114    1
    26    25    24    2
    27    24    26   am
    28    39    38    1
    29    41    38    1
    30    41    42    1
    31   102   100   ar
    32   102   103   ar
    33    92    91   ar
    34   100    99   ar
    35    38    37    1
    36   114   117    1
    37   114   113    1
    38    87    86    1
    39    87    88    1
    40    87    90    1
    41   103   101   ar
    42   117   118    1
    43    91    90    1
    44    91    93   ar
    45    99    98    1
    46    99   101   ar
    47    88    89    2
    48    94    95    1
    49    98    95    1
    50    61    62    1
    51   119   118   ar
    52   119   121   ar
    53    62    65    1
    54    62    63    1
    55   118   120   ar
    56    95    96    1
    57    65    66    1
    58    67    66   ar
    59    66    68   ar
    60   121   123   ar
    61    73    70    1
    62    70    69    1
    63    70    71    1
    64    63    64    2
    65    30    29    2
    66    33    35   ar
    67    33    32   ar
    68    35    36   ar
    69   120   122   ar
    70    96   104   am
    71    96    97    2
    72   104   105    1
    73    72    71    2
    74    29    28    1
    75   123   122   ar
    76   123   124    1
    77    71    74   am
    78    32    31    1
    79    32    34   ar
    80    36    34   ar
    81    31    28    1
    82    28    27    1
    83   109   110    1
    84   109   108    1
    85   112   111    1
    86   105   108    1
    87   105   106    1
    88   111   110    1
    89    74    75    1
    90    43    44    1
    91   106   107    2
    92    49    47    1
    93    44    47    1
    94    44    45    1
    95    75    76    1
    96    75    78    1
    97    47    48    1
    98    45    46    2
    99    76    77    2
   100    78    79    1
   101    59    58    1
   102    53    52    2
   103    79    80   ar
   104    79    81   ar
   105    80    82   ar
   106    50    51    1
   107    52    51    1
   108    58    60    1
   109    58    55    1
   110    81    83   ar
   111    82    84   ar
   112    54    55    1
   113    55    56    1
   114    83    84   ar
   115    84    85    1
   116    56    57    2
