@<TRIPOS>MOLECULE
tmp/5hsrA01.pdb
 141 135 0 0 0
SMALL
GASTEIGER

@<TRIPOS>ATOM
      1  N         -0.4380   25.3020   -1.6660 N.3     7  ILE7       -0.1231
      2  CA        -0.8860   24.2970   -2.6170 C.3     7  ILE7        0.1692
      3  C         -2.1290   23.6160   -2.0520 C.2     7  ILE7        0.2592
      4  O         -2.1700   23.3020   -0.8490 O.2     7  ILE7       -0.2718
      5  CB         0.2680   23.2910   -2.9730 C.3     7  ILE7        0.0266
      6  CG1       -0.1760   22.2970   -4.0130 C.3     7  ILE7        0.0019
      7  CG2        0.7920   22.5680   -1.7160 C.3     7  ILE7        0.0020
      8  CD1        0.9550   21.6000   -4.7400 C.3     7  ILE7        0.0001
      9  N         -3.1400   23.4660   -2.9260 N.am    8  VAL8       -0.1966
     10  CA        -4.4390   22.9080   -2.5000 C.3     8  VAL8        0.1727
     11  C         -5.0590   22.2190   -3.7010 C.2     8  VAL8        0.2616
     12  O         -4.7580   22.5790   -4.8550 O.2     8  VAL8       -0.2715
     13  CB        -5.3520   24.0470   -1.9980 C.3     8  VAL8        0.0290
     14  CG1       -5.8090   24.9680   -3.1740 C.3     8  VAL8        0.0023
     15  CG2       -6.5120   23.5380   -1.2240 C.3     8  VAL8        0.0023
     16  N         -5.9540   21.2940   -3.3950 N.am    9  ALA9       -0.1977
     17  CA        -6.9180   20.7480   -4.3850 C.3     9  ALA9        0.1597
     18  C         -8.3060   21.1220   -3.8760 C.2     9  ALA9        0.2287
     19  O         -8.6140   20.9230   -2.6830 O.2     9  ALA9       -0.2864
     20  CB        -6.7550   19.2390   -4.5860 C.3     9  ALA9        0.0319
     21  N        -10.2290   13.7410    2.1340 N.3    22  LEU22      -0.1245
     22  CA       -10.6260   14.5290    0.9670 C.3    22  LEU22       0.1561
     23  C        -12.0910   14.2860    0.6090 C.2    22  LEU22       0.2260
     24  O        -12.6270   13.1880    0.8720 O.2    22  LEU22      -0.2867
     25  CB        -9.7510   14.2220   -0.2260 C.3    22  LEU22       0.0270
     26  CG        -8.2020   14.2630   -0.0570 C.3    22  LEU22       0.0019
     27  CD1       -7.5490   13.6370   -1.3260 C.3    22  LEU22       0.0001
     28  CD2       -7.8420   15.7120    0.1980 C.3    22  LEU22       0.0001
     29  N         -3.0240   13.0820   -8.7580 N.3    30  GLU30      -0.1231
     30  CA        -3.0980   14.3810   -8.0690 C.3    30  GLU30       0.1699
     31  C         -2.1830   14.3540   -6.8630 C.2    30  GLU30       0.2592
     32  O         -1.4300   15.3190   -6.6030 O.2    30  GLU30      -0.2718
     33  CB        -4.5350   14.7120   -7.7180 C.3    30  GLU30       0.0402
     34  CG        -4.7970   16.2060   -7.6480 C.3    30  GLU30       0.1161
     35  CD        -4.2150   16.9820   -6.4700 C.2    30  GLU30       0.3649
     36  OE1       -3.6790   18.0880   -6.7520 O.co2  30  GLU30      -0.2457
     37  OE2       -4.2540   16.5020   -5.3230 O.co2  30  GLU30      -0.2457
     38  N         -2.2150   13.3030   -6.0740 N.am   31  PHE31      -0.1976
     39  CA        -1.2930   13.2400   -4.9350 C.3    31  PHE31       0.1639
     40  C          0.1670   13.1670   -5.4550 C.2    31  PHE31       0.2290
     41  O          1.0640   13.7640   -4.8730 O.2    31  PHE31      -0.2864
     42  CB        -1.6070   12.0230   -4.1130 C.3    31  PHE31       0.0560
     43  CG        -0.7060   11.8840   -2.9240 C.ar   31  PHE31      -0.0200
     44  CD1       -0.7040   12.8600   -1.9060 C.ar   31  PHE31      -0.0042
     45  CD2        0.1460   10.7810   -2.7860 C.ar   31  PHE31      -0.0042
     46  CE1        0.1090   12.7350   -0.7930 C.ar   31  PHE31      -0.0003
     47  CE2        0.9470   10.6370   -1.6760 C.ar   31  PHE31      -0.0003
     48  CZ         0.9040   11.5900   -0.6630 C.ar   31  PHE31      -0.0000
     49  N          1.3210   14.6600   -8.0450 N.3    33  TYR33      -0.1227
     50  CA         1.5920   16.0630   -8.3940 C.3    33  TYR33       0.1736
     51  C          1.9450   16.8580   -7.1110 C.2    33  TYR33       0.2595
     52  O          2.9750   17.5660   -7.0490 O.2    33  TYR33      -0.2718
     53  CB         0.4110   16.6650   -9.0770 C.3    33  TYR33       0.0548
     54  CG         0.4940   18.1610   -9.2800 C.ar   33  TYR33      -0.0200
     55  CD1        1.2990   18.7080  -10.2800 C.ar   33  TYR33      -0.0009
     56  CD2       -0.1800   19.0450   -8.4530 C.ar   33  TYR33      -0.0009
     57  CE1        1.3770   20.1020  -10.5600 C.ar   33  TYR33       0.0417
     58  CE2       -0.0660   20.4650   -8.7110 C.ar   33  TYR33       0.0417
     59  CZ         0.6910   20.9080   -9.7680 C.ar   33  TYR33       0.1957
     60  OH         0.7580   22.2960   -9.9760 O.3    33  TYR33      -0.2866
     61  N          1.1410   16.7050   -6.0840 N.am   34  PHE34      -0.1976
     62  CA         1.4160   17.3630   -4.7850 C.3    34  PHE34       0.1639
     63  C          2.7950   16.9890   -4.2710 C.2    34  PHE34       0.2290
     64  O          3.5600   17.8610   -3.8430 O.2    34  PHE34      -0.2864
     65  CB         0.3080   16.9510   -3.8010 C.3    34  PHE34       0.0560
     66  CG         0.6440   17.2780   -2.3590 C.ar   34  PHE34      -0.0200
     67  CD1        0.4960   18.5690   -1.8800 C.ar   34  PHE34      -0.0042
     68  CD2        1.2270   16.3330   -1.5020 C.ar   34  PHE34      -0.0042
     69  CE1        0.8830   18.8940   -0.5830 C.ar   34  PHE34      -0.0003
     70  CE2        1.5990   16.6820   -0.2220 C.ar   34  PHE34      -0.0003
     71  CZ         1.4210   17.9240    0.2460 C.ar   34  PHE34      -0.0000
     72  N         -4.5110   18.7320    9.3820 N.3    56  THR56      -0.1218
     73  CA        -3.9260   18.2830    8.0940 C.3    56  THR56       0.1862
     74  C         -2.8320   17.2420    8.2910 C.2    56  THR56       0.2287
     75  O         -2.8120   16.2110    7.6420 O.2    56  THR56      -0.2866
     76  CB        -3.3520   19.4860    7.3040 C.3    56  THR56       0.1770
     77  OG1       -4.4890   20.2970    6.9110 O.3    56  THR56      -0.2211
     78  CG2       -2.6610   19.1140    6.0560 C.3    56  THR56       0.0375
     79  N         -4.3690   13.9760    8.9320 N.3    59  SER59      -0.1202
     80  CA        -5.1360   13.5250    7.7630 C.3    59  SER59       0.2020
     81  C         -4.2660   12.8890    6.6700 C.2    59  SER59       0.2619
     82  O         -4.7860   12.1770    5.7530 O.2    59  SER59      -0.2717
     83  CB        -5.9070   14.7000    7.1720 C.3    59  SER59       0.2103
     84  OG        -4.9930   15.4310    6.3720 O.3    59  SER59      -0.2182
     85  N         -2.9250   12.9830    6.8340 N.am   60  ILE60      -0.1966
     86  CA        -1.9910   12.3250    5.8750 C.3    60  ILE60       0.1712
     87  C         -1.8190   10.9120    6.2880 C.2    60  ILE60       0.2458
     88  O         -1.6530   10.6790    7.4210 O.2    60  ILE60      -0.2730
     89  CB        -0.5880   12.9820    5.8920 C.3    60  ILE60       0.0289
     90  CG1       -0.8050   14.3870    5.4060 C.3    60  ILE60       0.0022
     91  CG2        0.3720   12.2550    4.8980 C.3    60  ILE60       0.0023
     92  CD1        0.4190   15.3510    5.6030 C.3    60  ILE60       0.0001
     93  N         -1.9730    9.9550    5.2720 N.am   61  PRO61      -0.2727
     94  CA        -1.8050    8.5740    5.6070 C.3    61  PRO61       0.1402
     95  C         -0.4570    8.4270    6.2790 C.2    61  PRO61       0.2269
     96  O          0.5170    9.0040    5.7760 O.2    61  PRO61      -0.2865
     97  CB        -1.8480    7.8720    4.2090 C.3    61  PRO61       0.0296
     98  CG        -2.7190    8.7290    3.3430 C.3    61  PRO61       0.0237
     99  CD        -2.3880   10.1200    3.8440 C.3    61  PRO61       0.0939
    100  N          2.8530    8.0270    4.5640 N.3    64  ASN64      -0.1240
    101  CA         3.4100    9.1490    3.8700 C.3    64  ASN64       0.1653
    102  C          3.9250   10.1640    4.9180 C.2    64  ASN64       0.2266
    103  O          4.3270   11.2050    4.4650 O.2    64  ASN64      -0.2867
    104  CB         2.3870    9.7660    2.8690 C.3    64  ASN64       0.1155
    105  CG         1.8330    8.7520    1.8250 C.2    64  ASN64       0.2627
    106  OD1        2.6020    8.1340    1.0390 O.2    64  ASN64      -0.2716
    107  ND2        0.5290    8.6260    1.7710 N.am   64  ASN64      -0.0877
    108  N          6.1080   13.8140    5.4330 N.3    67  LEU67      -0.1245
    109  CA         6.2530   13.8780    3.9950 C.3    67  LEU67       0.1561
    110  C          7.7500   13.7790    3.6260 C.2    67  LEU67       0.2260
    111  O          8.5140   14.6810    4.0390 O.2    67  LEU67      -0.2867
    112  CB         5.6110   15.1430    3.4750 C.3    67  LEU67       0.0270
    113  CG         4.0740   15.2080    3.6660 C.3    67  LEU67       0.0019
    114  CD1        3.5560   16.5670    3.2960 C.3    67  LEU67       0.0001
    115  CD2        3.3640   14.1970    2.8500 C.3    67  LEU67       0.0001
    116  N          0.4840   23.6830    3.1180 N.3   115  VAL115     -0.1245
    117  CA        -0.2560   22.5590    2.5100 C.3   115  VAL115      0.1561
    118  C         -1.6160   22.3260    3.1780 C.2   115  VAL115      0.2260
    119  O         -2.2670   21.3360    2.8470 O.2   115  VAL115     -0.2867
    120  CB         0.5940   21.2730    2.4630 C.3   115  VAL115      0.0252
    121  CG1        1.8910   21.5330    1.7400 C.3   115  VAL115      0.0019
    122  CG2        0.8760   20.6600    3.8530 C.3   115  VAL115      0.0019
    123  N         -4.2760   28.7890    5.2280 N.3   121  TYR121     -0.1241
    124  CA        -4.4140   29.3640    3.8430 C.3   121  TYR121      0.1605
    125  C         -4.9280   30.8170    3.9430 C.2   121  TYR121      0.2264
    126  O         -4.3960   31.7100    3.2940 O.2   121  TYR121     -0.2867
    127  CB        -5.3510   28.5280    3.0380 C.3   121  TYR121      0.0534
    128  CG        -4.9390   27.1510    2.6050 C.ar  121  TYR121     -0.0201
    129  CD1       -3.6740   26.9240    2.0470 C.ar  121  TYR121     -0.0009
    130  CD2       -5.8730   26.1200    2.6630 C.ar  121  TYR121     -0.0009
    131  CE1       -3.3530   25.7120    1.5570 C.ar  121  TYR121      0.0417
    132  CE2       -5.5690   24.8680    2.1640 C.ar  121  TYR121      0.0417
    133  CZ        -4.2950   24.6590    1.5850 C.ar  121  TYR121      0.1957
    134  OH        -4.0260   23.4110    1.1310 O.3   121  TYR121     -0.2866
    135  N         -5.3690   22.9620   -7.6000 N.3   136  THR136     -0.1218
    136  CA        -5.9130   21.9370   -8.4740 C.3   136  THR136      0.1862
    137  C         -7.4200   22.1040   -8.4350 C.2   136  THR136      0.2287
    138  O         -8.0450   21.9890   -7.3550 O.2   136  THR136     -0.2866
    139  CB        -5.5650   20.5390   -8.0560 C.3   136  THR136      0.1770
    140  OG1       -4.1400   20.4260   -8.0470 O.3   136  THR136     -0.2211
    141  CG2       -6.1410   19.5100   -9.0330 C.3   136  THR136      0.0375
@<TRIPOS>BOND
     1    57    55   ar
     2    57    59   ar
     3    55    54   ar
     4    60    59    1
     5    59    58   ar
     6    54    53    1
     7    54    56   ar
     8    53    50    1
     9   141   139    1
    10    29    30    1
    11    58    56   ar
    12   136   137    1
    13   136   139    1
    14   136   135    1
    15   137   138    2
    16    50    49    1
    17    50    51    1
    18    30    33    1
    19    30    31    1
    20   139   140    1
    21    33    34    1
    22    34    35    1
    23    51    52    2
    24    51    61   am
    25    31    32    2
    26    31    38   am
    27    36    35   ar
    28    35    37   ar
    29    61    62    1
    30    38    39    1
    31    40    39    1
    32    40    41    2
    33    39    42    1
    34    12    11    2
    35    62    63    1
    36    62    65    1
    37     8     6    1
    38    20    17    1
    39    17    18    1
    40    17    16    1
    41    63    64    2
    42    42    43    1
    43     6     5    1
    44    18    19    2
    45    65    66    1
    46    11    16   am
    47    11    10    1
    48    14    13    1
    49     5     2    1
    50     5     7    1
    51     9    10    1
    52     9     3   am
    53    43    45   ar
    54    43    44   ar
    55    45    47   ar
    56     2     3    1
    57     2     1    1
    58    10    13    1
    59    66    67   ar
    60    66    68   ar
    61     3     4    2
    62    13    15    1
    63    44    46   ar
    64    67    69   ar
    65    47    48   ar
    66    68    70   ar
    67    27    26    1
    68    46    48   ar
    69    69    71   ar
    70    25    26    1
    71    25    22    1
    72    70    71   ar
    73    26    28    1
    74    23    24    2
    75    23    22    1
    76    22    21    1
    77   106   105    2
    78   134   133    1
    79   131   133   ar
    80   131   129   ar
    81   133   132   ar
    82   121   120    1
    83   107   105   am
    84   105   104    1
    85   129   128   ar
    86   132   130   ar
    87   120   117    1
    88   120   122    1
    89   117   116    1
    90   117   118    1
    91   128   130   ar
    92   128   127    1
    93   119   118    2
    94   115   113    1
    95   104   101    1
    96   127   124    1
    97   126   125    2
    98   114   113    1
    99    98    99    1
   100    98    97    1
   101   112   113    1
   102   112   109    1
   103   110   109    1
   104   110   111    2
   105   124   125    1
   106   124   123    1
   107    99    93    1
   108   101   100    1
   109   101   102    1
   110   109   108    1
   111    97    94    1
   112   103   102    2
   113    91    89    1
   114    93    94    1
   115    93    87   am
   116    90    92    1
   117    90    89    1
   118    94    95    1
   119    82    81    2
   120    96    95    2
   121    86    89    1
   122    86    87    1
   123    86    85    1
   124    78    76    1
   125    87    88    2
   126    84    83    1
   127    81    85   am
   128    81    80    1
   129    77    76    1
   130    83    80    1
   131    76    73    1
   132    75    74    2
   133    80    79    1
   134    73    74    1
   135    73    72    1
