@<TRIPOS>MOLECULE
tmp/5hssA01.pdb
 147 141 0 0 0
SMALL
GASTEIGER

@<TRIPOS>ATOM
      1  N         71.7060   81.6640   85.4980 N.3    62  VAL62      -0.1245
      2  CA        72.4320   82.9080   85.7440 C.3    62  VAL62       0.1561
      3  C         72.1440   83.9780   84.6980 C.2    62  VAL62       0.2260
      4  O         72.4530   85.1660   84.9270 O.2    62  VAL62      -0.2867
      5  CB        73.9450   82.5990   85.8230 C.3    62  VAL62       0.0252
      6  CG1       74.7890   83.8740   85.8380 C.3    62  VAL62       0.0019
      7  CG2       74.2210   81.7100   87.0390 C.3    62  VAL62       0.0019
      8  N         70.4140   87.1020   85.9250 N.3    65  TYR65      -0.1241
      9  CA        71.2450   88.0760   86.6480 C.3    65  TYR65       0.1605
     10  C         72.2080   88.7870   85.7030 C.2    65  TYR65       0.2264
     11  O         72.4580   89.9880   85.8540 O.2    65  TYR65      -0.2867
     12  CB        72.0120   87.4060   87.7860 C.3    65  TYR65       0.0534
     13  CG        71.1220   86.5880   88.6730 C.ar   65  TYR65      -0.0201
     14  CD1       70.1720   87.1940   89.4990 C.ar   65  TYR65      -0.0009
     15  CD2       71.1890   85.1980   88.6590 C.ar   65  TYR65      -0.0009
     16  CE1       69.3250   86.4300   90.3090 C.ar   65  TYR65       0.0417
     17  CE2       70.3410   84.4250   89.4630 C.ar   65  TYR65       0.0417
     18  CZ        69.4140   85.0450   90.2810 C.ar   65  TYR65       0.1957
     19  OH        68.5870   84.2820   91.0750 O.3    65  TYR65      -0.2866
     20  N         72.1090   92.8490   85.5330 N.3    69  PHE69      -0.1241
     21  CA        73.2700   93.6660   85.8810 C.3    69  PHE69       0.1605
     22  C         73.7300   94.4960   84.6900 C.2    69  PHE69       0.2264
     23  O         74.1470   95.6520   84.8500 O.2    69  PHE69      -0.2867
     24  CB        74.4140   92.7850   86.3950 C.3    69  PHE69       0.0534
     25  CG        74.1230   92.1190   87.6980 C.ar   69  PHE69      -0.0203
     26  CD1       73.3060   92.7320   88.6360 C.ar   69  PHE69      -0.0042
     27  CD2       74.6490   90.8840   87.9910 C.ar   69  PHE69      -0.0042
     28  CE1       73.0140   92.1200   89.8560 C.ar   69  PHE69      -0.0003
     29  CE2       74.3690   90.2610   89.2060 C.ar   69  PHE69      -0.0003
     30  CZ        73.5490   90.8900   90.1420 C.ar   69  PHE69      -0.0000
     31  N         63.4270   86.4570   93.3410 N.3   124  MET124     -0.1245
     32  CA        64.7570   86.4930   92.7360 C.3   124  MET124      0.1570
     33  C         64.6830   86.8350   91.2580 C.2   124  MET124      0.2261
     34  O         65.6170   87.4220   90.7100 O.2   124  MET124     -0.2867
     35  CB        65.4590   85.1480   92.9090 C.3   124  MET124      0.0387
     36  CG        64.5870   83.9820   92.4570 C.3   124  MET124      0.0595
     37  SD        65.2530   82.3340   92.8020 S.3   124  MET124     -0.1393
     38  CE        66.6710   82.3460   91.7050 C.3   124  MET124      0.0692
     39  N         61.7480   83.5590   97.8810 N.3   170  CYS170     -0.1221
     40  CA        62.0580   83.1100   96.5230 C.3   170  CYS170      0.1808
     41  C         61.3420   81.8140   96.2030 C.2   170  CYS170      0.2601
     42  O         60.6610   81.7070   95.1800 O.2   170  CYS170     -0.2717
     43  CB        63.5610   82.9030   96.3240 C.3   170  CYS170      0.0970
     44  SG        64.5820   84.3680   96.2300 S.3   170  CYS170     -0.0800
     45  N         61.5340   80.8140   97.0440 N.am  171  GLU171     -0.1979
     46  CA        60.8490   79.5390   96.9820 C.3   171  GLU171      0.1602
     47  C         60.1170   79.3910   98.3100 C.2   171  GLU171      0.2287
     48  O         60.3990   80.1380   99.2540 O.2   171  GLU171     -0.2864
     49  CB        61.8440   78.3920   96.7420 C.3   171  GLU171      0.0415
     50  CG        62.7250   78.5390   95.4730 C.3   171  GLU171      0.1163
     51  CD        64.1000   79.2040   95.7180 C.2   171  GLU171      0.3649
     52  OE1       64.3570   79.7050   96.8340 O.co2 171  GLU171     -0.2457
     53  OE2       64.9340   79.2240   94.7830 O.co2 171  GLU171     -0.2457
     54  N         65.6250   85.4560  100.8930 N.3   176  PHE176     -0.1241
     55  CA        66.9440   86.0100  100.6090 C.3   176  PHE176      0.1605
     56  C         66.8600   87.5280  100.6910 C.2   176  PHE176      0.2264
     57  O         66.0500   88.1590   99.9980 O.2   176  PHE176     -0.2867
     58  CB        67.4940   85.5490   99.2520 C.3   176  PHE176      0.0534
     59  CG        67.8460   84.0880   99.2050 C.ar  176  PHE176     -0.0203
     60  CD1       69.1100   83.6550   99.6020 C.ar  176  PHE176     -0.0042
     61  CD2       66.9260   83.1450   98.7740 C.ar  176  PHE176     -0.0042
     62  CE1       69.4560   82.3170   99.5680 C.ar  176  PHE176     -0.0003
     63  CE2       67.2630   81.7880   98.7360 C.ar  176  PHE176     -0.0003
     64  CZ        68.5280   81.3730   99.1380 C.ar  176  PHE176     -0.0000
     65  N         69.1220   89.7880   99.8500 N.3   178  GLN178     -0.1231
     66  CA        69.6030   90.5100   98.6680 C.3   178  GLN178      0.1698
     67  C         68.5360   90.5690   97.5820 C.2   178  GLN178      0.2592
     68  O         68.4450   91.5640   96.8600 O.2   178  GLN178     -0.2718
     69  CB        70.9010   89.8950   98.1230 C.3   178  GLN178      0.0381
     70  CG        70.8060   88.4810   97.5260 C.3   178  GLN178      0.0905
     71  CD        71.0070   87.4210   98.5860 C.2   178  GLN178      0.2608
     72  OE1       70.5430   87.5700   99.7200 O.2   178  GLN178     -0.2717
     73  NE2       71.7210   86.3650   98.2420 N.am  178  GLN178     -0.0878
     74  N         67.7300   89.5170   97.4450 N.am  179  CYS179     -0.1970
     75  CA        66.6540   89.5410   96.4620 C.3   179  CYS179      0.1712
     76  C         65.5300   90.4800   96.8790 C.2   179  CYS179      0.2296
     77  O         64.9080   91.1210   96.0260 O.2   179  CYS179     -0.2864
     78  CB        66.1270   88.1230   96.2440 C.3   179  CYS179      0.0983
     79  SG        67.3800   86.9980   95.6040 S.3   179  CYS179     -0.0798
     80  N         79.0820   88.1640   99.6570 N.3   239  TYR239     -0.1241
     81  CA        78.3650   88.6200   98.4680 C.3   239  TYR239      0.1605
     82  C         76.9230   88.9590   98.8050 C.2   239  TYR239      0.2264
     83  O         76.3640   89.9110   98.2520 O.2   239  TYR239     -0.2867
     84  CB        78.4500   87.5930   97.3360 C.3   239  TYR239      0.0534
     85  CG        77.2270   86.7200   97.1440 C.ar  239  TYR239     -0.0201
     86  CD1       77.0640   85.5540   97.8800 C.ar  239  TYR239     -0.0009
     87  CD2       76.2490   87.0500   96.2120 C.ar  239  TYR239     -0.0009
     88  CE1       75.9510   84.7550   97.7190 C.ar  239  TYR239      0.0417
     89  CE2       75.1180   86.2510   96.0300 C.ar  239  TYR239      0.0417
     90  CZ        74.9800   85.0980   96.7850 C.ar  239  TYR239      0.1957
     91  OH        73.8800   84.2740   96.6090 O.3   239  TYR239     -0.2866
     92  N         76.0540   93.0830   98.2100 N.3   243  TRP243     -0.1241
     93  CA        74.8950   93.3920   97.3890 C.3   243  TRP243      0.1605
     94  C         73.8250   94.1180   98.2020 C.2   243  TRP243      0.2264
     95  O         73.3890   95.2140   97.8320 O.2   243  TRP243     -0.2867
     96  CB        74.3960   92.0820   96.7790 C.3   243  TRP243      0.0550
     97  CG        73.1930   92.1060   95.9070 C.ar  243  TRP243      0.0003
     98  CD1       72.2950   93.1170   95.7520 C.ar  243  TRP243      0.0946
     99  CD2       72.7560   91.0370   95.0450 C.ar  243  TRP243      0.0152
    100  NE1       71.3190   92.7470   94.8530 N.ar  243  TRP243     -0.2442
    101  CE2       71.5760   91.4720   94.4090 C.ar  243  TRP243      0.0810
    102  CE3       73.2420   89.7460   94.7620 C.ar  243  TRP243      0.0012
    103  CZ2       70.8750   90.6600   93.4930 C.ar  243  TRP243      0.0191
    104  CZ3       72.5410   88.9440   93.8590 C.ar  243  TRP243      0.0001
    105  CH2       71.3780   89.4040   93.2340 C.ar  243  TRP243      0.0015
    106  N         79.5540   81.0000   95.6860 N.3   292  VAL292     -0.1245
    107  CA        79.2750   81.2560   94.2810 C.3   292  VAL292      0.1561
    108  C         80.4150   82.0010   93.5910 C.2   292  VAL292      0.2260
    109  O         80.3630   82.1940   92.3750 O.2   292  VAL292     -0.2867
    110  CB        77.9610   82.0440   94.1430 C.3   292  VAL292      0.0252
    111  CG1       76.7790   81.2320   94.6650 C.3   292  VAL292      0.0019
    112  CG2       78.0830   83.3830   94.8710 C.3   292  VAL292      0.0019
    113  N         81.5560   85.2860   94.0200 N.3   294  LEU294     -0.1245
    114  CA        81.3130   86.6600   93.6050 C.3   294  LEU294      0.1561
    115  C         81.5640   87.6800   94.7070 C.2   294  LEU294      0.2260
    116  O         81.2260   88.8610   94.5340 O.2   294  LEU294     -0.2867
    117  CB        79.8880   86.7930   93.0680 C.3   294  LEU294      0.0270
    118  CG        79.6650   85.8130   91.9200 C.3   294  LEU294      0.0019
    119  CD1       78.2090   85.8990   91.4190 C.3   294  LEU294      0.0001
    120  CD2       80.6920   86.0980   90.8140 C.3   294  LEU294      0.0001
    121  N         81.0720   91.6850   93.9580 N.3   298  PHE298     -0.1241
    122  CA        80.0210   92.4640   94.6130 C.3   298  PHE298      0.1605
    123  C         80.5910   93.4830   95.5960 C.2   298  PHE298      0.2264
    124  O         79.9870   94.5450   95.8060 O.2   298  PHE298     -0.2867
    125  CB        79.0340   91.5250   95.3110 C.3   298  PHE298      0.0534
    126  CG        78.0500   90.8720   94.3660 C.ar  298  PHE298     -0.0203
    127  CD1       76.9790   91.5810   93.8480 C.ar  298  PHE298     -0.0042
    128  CD2       78.2110   89.5590   93.9850 C.ar  298  PHE298     -0.0042
    129  CE1       76.0850   90.9810   92.9830 C.ar  298  PHE298     -0.0003
    130  CE2       77.3120   88.9590   93.1140 C.ar  298  PHE298     -0.0003
    131  CZ        76.2510   89.6720   92.6170 C.ar  298  PHE298     -0.0000
    132  N         81.7560   83.7170   87.3670 N.3   340  LEU340     -0.1231
    133  CA        80.5180   83.9730   86.6610 C.3   340  LEU340      0.1693
    134  C         80.2710   85.4730   86.6210 C.2   340  LEU340      0.2591
    135  O         80.7760   86.2320   87.4550 O.2   340  LEU340     -0.2718
    136  CB        79.3600   83.2870   87.3770 C.3   340  LEU340      0.0284
    137  CG        79.4330   81.7790   87.5040 C.3   340  LEU340      0.0019
    138  CD1       78.3910   81.3270   88.5030 C.3   340  LEU340      0.0001
    139  CD2       79.2120   81.1400   86.1550 C.3   340  LEU340      0.0001
    140  N         79.4950   85.9050   85.6320 N.am  341  LEU341     -0.1980
    141  CA        79.0180   87.2830   85.5710 C.3   341  LEU341      0.1596
    142  C         80.1540   88.3000   85.5950 C.2   341  LEU341      0.2287
    143  O         79.9870   89.4300   86.0720 O.2   341  LEU341     -0.2864
    144  CB        78.0520   87.5550   86.7220 C.3   341  LEU341      0.0297
    145  CG        76.8510   86.6260   86.7970 C.3   341  LEU341      0.0022
    146  CD1       76.1230   86.9600   88.0810 C.3   341  LEU341      0.0001
    147  CD2       75.9550   86.8440   85.6040 C.3   341  LEU341      0.0001
@<TRIPOS>BOND
     1    22    23    2
     2    22    21    1
     3     3     4    2
     4     3     2    1
     5     1     2    1
     6    20    21    1
     7   141   142    1
     8   141   140    1
     9   141   144    1
    10   142   143    2
    11   147   145    1
    12   140   134   am
    13    10    11    2
    14    10     9    1
    15     2     5    1
    16     5     6    1
    17     5     7    1
    18    21    24    1
    19     8     9    1
    20   139   137    1
    21    24    25    1
    22   134   133    1
    23   134   135    2
    24     9    12    1
    25   133   132    1
    26   133   136    1
    27   144   145    1
    28   145   146    1
    29   136   137    1
    30   137   138    1
    31    25    27   ar
    32    25    26   ar
    33    12    13    1
    34    27    29   ar
    35    26    28   ar
    36    15    13   ar
    37    15    17   ar
    38    13    14   ar
    39    29    30   ar
    40    17    18   ar
    41    14    16   ar
    42    28    30   ar
    43    18    16   ar
    44    18    19    1
    45    34    33    2
    46   120   118    1
    47    33    32    1
    48   119   118    1
    49    38    37    1
    50   118   117    1
    51   109   108    2
    52    36    37    1
    53    36    35    1
    54   131   129   ar
    55   131   130   ar
    56    32    35    1
    57    32    31    1
    58   129   127   ar
    59   117   114    1
    60   130   128   ar
    61   105   103   ar
    62   105   104   ar
    63   103   101   ar
    64   108   107    1
    65   114   113    1
    66   114   115    1
    67   127   126   ar
    68   104   102   ar
    69   121   122    1
    70   128   126   ar
    71   110   107    1
    72   110   111    1
    73   110   112    1
    74   107   106    1
    75   126   125    1
    76   101   100   ar
    77   101    99   ar
    78   116   115    2
    79   122   125    1
    80   122   123    1
    81   102    99   ar
    82    53    51   ar
    83   100    98   ar
    84    99    97   ar
    85    42    41    2
    86    50    51    1
    87    50    49    1
    88   123   124    2
    89    79    78    1
    90    51    52   ar
    91    98    97   ar
    92    97    96    1
    93    77    76    2
    94    89    87   ar
    95    89    90   ar
    96    41    40    1
    97    41    45   am
    98    87    85   ar
    99    44    43    1
   100    78    75    1
   101    43    40    1
   102    75    76    1
   103    75    74    1
   104    40    39    1
   105    91    90    1
   106    49    46    1
   107    96    93    1
   108    90    88   ar
   109    68    67    2
   110    46    45    1
   111    46    47    1
   112    85    84    1
   113    85    86   ar
   114    84    81    1
   115    93    94    1
   116    93    92    1
   117    74    67   am
   118    70    69    1
   119    70    71    1
   120    67    66    1
   121    88    86   ar
   122    95    94    2
   123    69    66    1
   124    73    71   am
   125    83    82    2
   126    47    48    2
   127    81    82    1
   128    81    80    1
   129    71    72    2
   130    66    65    1
   131    63    61   ar
   132    63    64   ar
   133    61    59   ar
   134    64    62   ar
   135    59    58    1
   136    59    60   ar
   137    58    55    1
   138    62    60   ar
   139    57    56    2
   140    55    56    1
   141    55    54    1
