@<TRIPOS>MOLECULE
tmp/5hszA00.pdb
 173 161 0 0 0
SMALL
GASTEIGER

@<TRIPOS>ATOM
      1  N         33.2010   -9.5350  -28.6720 N.3     5  GLU5       -0.1231
      2  CA        32.6380   -9.1070  -27.4000 C.3     5  GLU5        0.1699
      3  C         31.7220   -7.9060  -27.5930 C.2     5  GLU5        0.2592
      4  O         30.6770   -7.8050  -26.9550 O.2     5  GLU5       -0.2718
      5  CB        33.7410   -8.7700  -26.3970 C.3     5  GLU5        0.0402
      6  CG        33.2150   -8.2460  -25.0700 C.3     5  GLU5        0.1161
      7  CD        32.2800   -9.2230  -24.3770 C.2     5  GLU5        0.3649
      8  OE1       32.5050  -10.4480  -24.4740 O.co2   5  GLU5       -0.2457
      9  OE2       31.3130   -8.7640  -23.7350 O.co2   5  GLU5       -0.2457
     10  N         32.1270   -6.9950  -28.4720 N.am    6  GLU6       -0.1979
     11  CA        31.3020   -5.8440  -28.8190 C.3     6  GLU6        0.1602
     12  C         29.9080   -6.2900  -29.2410 C.2     6  GLU6        0.2287
     13  O         28.9040   -5.7370  -28.7910 O.2     6  GLU6       -0.2864
     14  CB        31.9570   -5.0400  -29.9430 C.3     6  GLU6        0.0415
     15  CG        32.9480   -3.9920  -29.4680 C.3     6  GLU6        0.1163
     16  CD        32.2970   -2.6420  -29.2400 C.2     6  GLU6        0.3649
     17  OE1       31.5310   -2.1950  -30.1190 O.co2   6  GLU6       -0.2457
     18  OE2       32.5490   -2.0290  -28.1820 O.co2   6  GLU6       -0.2457
     19  N         28.4310   -9.1710  -28.5620 N.3     8  LEU8       -0.1231
     20  CA        27.7700   -9.7570  -27.4010 C.3     8  LEU8        0.1693
     21  C         27.3030   -8.6770  -26.4310 C.2     8  LEU8        0.2591
     22  O         26.1900   -8.7390  -25.9080 O.2     8  LEU8       -0.2718
     23  CB        28.6960  -10.7460  -26.6900 C.3     8  LEU8        0.0284
     24  CG        29.0020  -12.0430  -27.4420 C.3     8  LEU8        0.0019
     25  CD1       29.9300  -12.9280  -26.6270 C.3     8  LEU8        0.0001
     26  CD2       27.7170  -12.7820  -27.7830 C.3     8  LEU8        0.0001
     27  N         28.1600   -7.6880  -26.1940 N.am    9  GLN9       -0.1979
     28  CA        27.8190   -6.5630  -25.3310 C.3     9  GLN9        0.1601
     29  C         26.5510   -5.8740  -25.8180 C.2     9  GLN9        0.2287
     30  O         25.6530   -5.5750  -25.0320 O.2     9  GLN9       -0.2864
     31  CB        28.9700   -5.5560  -25.2840 C.3     9  GLN9        0.0394
     32  CG        30.1580   -5.9970  -24.4450 C.3     9  GLN9        0.0908
     33  CD        29.8930   -5.8850  -22.9570 C.2     9  GLN9        0.2608
     34  OE1       29.5760   -4.8090  -22.4510 O.2     9  GLN9       -0.2717
     35  NE2       30.0190   -7.0000  -22.2470 N.am    9  GLN9       -0.0878
     36  N         23.3640   -8.1330  -25.2950 N.3    12  ALA12      -0.1231
     37  CA        22.9170   -8.0860  -23.9090 C.3    12  ALA12       0.1694
     38  C         22.1920   -6.7740  -23.6350 C.2    12  ALA12       0.2591
     39  O         21.1580   -6.7520  -22.9670 O.2    12  ALA12      -0.2718
     40  CB        24.0980   -8.2500  -22.9660 C.3    12  ALA12       0.0304
     41  N         22.7410   -5.6830  -24.1600 N.am   13  LEU13      -0.1980
     42  CA        22.1390   -4.3660  -23.9930 C.3    13  LEU13       0.1596
     43  C         20.8010   -4.2920  -24.7200 C.2    13  LEU13       0.2287
     44  O         19.8300   -3.7460  -24.1950 O.2    13  LEU13      -0.2864
     45  CB        23.0870   -3.2730  -24.4940 C.3    13  LEU13       0.0297
     46  CG        22.6850   -1.8140  -24.2520 C.3    13  LEU13       0.0022
     47  CD1       23.9100   -0.9120  -24.2470 C.3    13  LEU13       0.0001
     48  CD2       21.6700   -1.3350  -25.2810 C.3    13  LEU13       0.0001
     49  N         18.0400   -5.9230  -22.9100 N.3    16  GLU16      -0.1245
     50  CA        17.6180   -5.2220  -21.7030 C.3    16  GLU16       0.1567
     51  C         16.8410   -3.9460  -22.0140 C.2    16  GLU16       0.2260
     52  O         16.1600   -3.3960  -21.1500 O.2    16  GLU16      -0.2867
     53  CB        18.8310   -4.9100  -20.8240 C.3    16  GLU16       0.0388
     54  CG        18.9880   -3.4490  -20.4470 C.3    16  GLU16       0.1160
     55  CD        20.1980   -3.2100  -19.5680 C.2    16  GLU16       0.3649
     56  OE1       21.0610   -4.1080  -19.4910 O.co2  16  GLU16      -0.2457
     57  OE2       20.2840   -2.1290  -18.9490 O.co2  16  GLU16      -0.2457
     58  N         26.9540  -18.1950  -26.0200 N.3    53  SER53      -0.1202
     59  CA        27.9980  -17.5060  -25.2710 C.3    53  SER53       0.2020
     60  C         27.4270  -16.8210  -24.0330 C.2    53  SER53       0.2618
     61  O         28.0110  -16.8840  -22.9520 O.2    53  SER53      -0.2717
     62  CB        28.7080  -16.4840  -26.1620 C.3    53  SER53       0.2103
     63  OG        29.8380  -15.9340  -25.5070 O.3    53  SER53      -0.2182
     64  N         26.2810  -16.1670  -24.2000 N.am   54  LEU54      -0.1979
     65  CA        25.6060  -15.5040  -23.0900 C.3    54  LEU54       0.1596
     66  C         25.1870  -16.5050  -22.0190 C.2    54  LEU54       0.2287
     67  O         25.4500  -16.3060  -20.8330 O.2    54  LEU54      -0.2864
     68  CB        24.3890  -14.7240  -23.5910 C.3    54  LEU54       0.0297
     69  CG        24.6250  -13.2640  -23.9890 C.3    54  LEU54       0.0022
     70  CD1       25.9580  -13.0920  -24.7000 C.3    54  LEU54       0.0001
     71  CD2       23.4800  -12.7450  -24.8460 C.3    54  LEU54       0.0001
     72  N         27.9980  -17.6050  -19.9820 N.3    57  PHE57      -0.1241
     73  CA        28.3360  -16.6210  -18.9610 C.3    57  PHE57       0.1605
     74  C         27.4200  -16.7820  -17.7540 C.2    57  PHE57       0.2264
     75  O         27.8600  -16.6880  -16.6090 O.2    57  PHE57      -0.2867
     76  CB        28.2270  -15.2020  -19.5220 C.3    57  PHE57       0.0534
     77  CG        28.4840  -14.1260  -18.5030 C.ar   57  PHE57      -0.0203
     78  CD1       29.7770  -13.7320  -18.2020 C.ar   57  PHE57      -0.0042
     79  CD2       27.4320  -13.5090  -17.8470 C.ar   57  PHE57      -0.0042
     80  CE1       30.0160  -12.7440  -17.2660 C.ar   57  PHE57      -0.0003
     81  CE2       27.6640  -12.5200  -16.9100 C.ar   57  PHE57      -0.0003
     82  CZ        28.9580  -12.1370  -16.6190 C.ar   57  PHE57      -0.0000
     83  N         28.7720  -17.7920  -14.0460 N.3    61  SER61      -0.1217
     84  CA        28.5730  -16.8340  -12.9640 C.3    61  SER61       0.1889
     85  C         27.8410  -17.4460  -11.7710 C.2    61  SER61       0.2288
     86  O         28.2360  -17.2480  -10.6220 O.2    61  SER61      -0.2866
     87  CB        27.8160  -15.6050  -13.4710 C.3    61  SER61       0.2089
     88  OG        28.5390  -14.9480  -14.4980 O.3    61  SER61      -0.2183
     89  N         29.6770  -19.1780   -8.3360 N.3    65  ARG65      -0.1245
     90  CA        29.3350  -18.4980   -7.0930 C.3    65  ARG65       0.1563
     91  C         28.7090  -19.4500   -6.0790 C.2    65  ARG65       0.2260
     92  O         28.9230  -19.3140   -4.8760 O.2    65  ARG65      -0.2867
     93  CB        28.4020  -17.3200   -7.3670 C.3    65  ARG65       0.0307
     94  CG        29.1240  -16.0060   -7.5980 C.3    65  ARG65       0.0489
     95  CD        30.3510  -16.1870   -8.4770 C.3    65  ARG65       0.2205
     96  NE        31.0430  -14.9230   -8.7030 N.pl3  65  ARG65      -0.0865
     97  CZ        31.1360  -14.3240   -9.8850 C.cat  65  ARG65       0.5346
     98  NH1       30.5900  -14.8820  -10.9560 N.pl3  65  ARG65       0.1354
     99  NH2       31.7820  -13.1720   -9.9980 N.pl3  65  ARG65       0.1354
    100  N         30.0520  -20.2270   -2.2850 N.3    69  ILE69      -0.1245
    101  CA        29.1460  -20.1520   -1.1470 C.3    69  ILE69       0.1561
    102  C         29.2710  -21.4000   -0.2820 C.2    69  ILE69       0.2260
    103  O         29.4200  -21.3100    0.9360 O.2    69  ILE69      -0.2867
    104  CB        27.6840  -20.0050   -1.6050 C.3    69  ILE69       0.0252
    105  CG1       27.4400  -18.6060   -2.1740 C.3    69  ILE69       0.0019
    106  CG2       26.7350  -20.2850   -0.4500 C.3    69  ILE69       0.0019
    107  CD1       26.0980  -18.4490   -2.8530 C.3    69  ILE69       0.0001
    108  N         22.1400  -17.3420    0.8100 N.3    82  LEU82      -0.1245
    109  CA        23.1350  -16.8020   -0.1080 C.3    82  LEU82       0.1561
    110  C         22.8340  -17.1950   -1.5500 C.2    82  LEU82       0.2260
    111  O         22.8820  -16.3600   -2.4520 O.2    82  LEU82      -0.2867
    112  CB        24.5390  -17.2710    0.2810 C.3    82  LEU82       0.0270
    113  CG        25.1320  -16.6830    1.5620 C.3    82  LEU82       0.0019
    114  CD1       26.4750  -17.3230    1.8710 C.3    82  LEU82       0.0001
    115  CD2       25.2700  -15.1740    1.4420 C.3    82  LEU82       0.0001
    116  N         19.8440  -15.3370   -2.7860 N.3    85  LEU85      -0.1231
    117  CA        20.2550  -13.9500   -2.9630 C.3    85  LEU85       0.1693
    118  C         21.1350  -13.7940   -4.2000 C.2    85  LEU85       0.2591
    119  O         21.0780  -12.7770   -4.8900 O.2    85  LEU85      -0.2718
    120  CB        20.9940  -13.4490   -1.7210 C.3    85  LEU85       0.0284
    121  CG        21.5460  -12.0240   -1.7830 C.3    85  LEU85       0.0019
    122  CD1       20.4550  -11.0400   -2.1730 C.3    85  LEU85       0.0001
    123  CD2       22.1770  -11.6340   -0.4550 C.3    85  LEU85       0.0001
    124  N         21.9480  -14.8090   -4.4700 N.am   86  LEU86      -0.1980
    125  CA        22.8130  -14.8170   -5.6430 C.3    86  LEU86       0.1596
    126  C         21.9970  -14.8110   -6.9300 C.2    86  LEU86       0.2287
    127  O         22.2590  -14.0260   -7.8400 O.2    86  LEU86      -0.2864
    128  CB        23.7270  -16.0420   -5.6200 C.3    86  LEU86       0.0297
    129  CG        24.3710  -16.4230   -6.9540 C.3    86  LEU86       0.0022
    130  CD1       25.3370  -15.3440   -7.4200 C.3    86  LEU86       0.0001
    131  CD2       25.0730  -17.7660   -6.8420 C.3    86  LEU86       0.0001
    132  N         20.0360  -11.5320   -7.1850 N.3    89  GLY89      -0.1210
    133  CA        20.9970  -10.4750   -7.4380 C.3    89  GLY89       0.1956
    134  C         21.5100  -10.4900   -8.8640 C.2    89  GLY89       0.2611
    135  O         21.5580   -9.4530   -9.5250 O.2    89  GLY89      -0.2717
    136  N         21.8920  -11.6710   -9.3400 N.am   90  PHE90      -0.1976
    137  CA        22.4000  -11.8200  -10.6990 C.3    90  PHE90       0.1639
    138  C         21.3830  -11.3390  -11.7290 C.2    90  PHE90       0.2290
    139  O         21.7350  -10.6520  -12.6880 O.2    90  PHE90      -0.2864
    140  CB        22.7870  -13.2750  -10.9770 C.3    90  PHE90       0.0560
    141  CG        23.2880  -13.5100  -12.3740 C.ar   90  PHE90      -0.0200
    142  CD1       24.6310  -13.3650  -12.6770 C.ar   90  PHE90      -0.0042
    143  CD2       22.4130  -13.8720  -13.3850 C.ar   90  PHE90      -0.0042
    144  CE1       25.0930  -13.5780  -13.9620 C.ar   90  PHE90      -0.0003
    145  CE2       22.8690  -14.0860  -14.6710 C.ar   90  PHE90      -0.0003
    146  CZ        24.2110  -13.9390  -14.9600 C.ar   90  PHE90      -0.0000
    147  N         21.3300   -7.6240  -11.6690 N.3    93  ARG93      -0.1231
    148  CA        22.5610   -7.0630  -12.2140 C.3    93  ARG93       0.1694
    149  C         22.6600   -7.2880  -13.7200 C.2    93  ARG93       0.2592
    150  O         23.5320   -6.7270  -14.3840 O.2    93  ARG93      -0.2718
    151  CB        23.7730   -7.6800  -11.5150 C.3    93  ARG93       0.0321
    152  CG        23.8330   -7.4130  -10.0190 C.3    93  ARG93       0.0489
    153  CD        24.7890   -6.2770   -9.7050 C.3    93  ARG93       0.2205
    154  NE        26.1680   -6.6300  -10.0310 N.pl3  93  ARG93      -0.0865
    155  CZ        27.0760   -5.7670  -10.4740 C.cat  93  ARG93       0.5346
    156  NH1       26.7510   -4.4940  -10.6520 N.pl3  93  ARG93       0.1354
    157  NH2       28.3070   -6.1760  -10.7460 N.pl3  93  ARG93       0.1354
    158  N         21.7650   -8.1150  -14.2520 N.am   94  ASN94      -0.1974
    159  CA        21.7660   -8.4370  -15.6750 C.3    94  ASN94       0.1688
    160  C         20.3510   -8.5750  -16.2270 C.2    94  ASN94       0.2292
    161  O         19.8950   -9.6860  -16.4980 O.2    94  ASN94      -0.2864
    162  CB        22.5450   -9.7300  -15.9270 C.3    94  ASN94       0.1181
    163  CG        23.9200   -9.7180  -15.2900 C.2    94  ASN94       0.2629
    164  OD1       24.9060   -9.3360  -15.9190 O.2    94  ASN94      -0.2716
    165  ND2       23.9930  -10.1390  -14.0330 N.am   94  ASN94      -0.0877
    166  N         20.1530  -10.6440  -19.5470 N.3    97  LEU97      -0.1245
    167  CA        20.4220  -12.0710  -19.4090 C.3    97  LEU97       0.1561
    168  C         19.3050  -12.7660  -18.6390 C.2    97  LEU97       0.2260
    169  O         19.1020  -13.9720  -18.7740 O.2    97  LEU97      -0.2867
    170  CB        21.7670  -12.3050  -18.7180 C.3    97  LEU97       0.0270
    171  CG        22.9880  -11.6590  -19.3750 C.3    97  LEU97       0.0019
    172  CD1       24.2680  -12.1860  -18.7470 C.3    97  LEU97       0.0001
    173  CD2       22.9860  -11.9110  -20.8740 C.3    97  LEU97       0.0001
@<TRIPOS>BOND
     1    17    16   ar
     2    14    15    1
     3    14    11    1
     4    15    16    1
     5    12    11    1
     6    12    13    2
     7    16    18   ar
     8    11    10    1
     9     1     2    1
    10    19    20    1
    11    10     3   am
    12    26    24    1
    13     3     2    1
    14     3     4    2
    15    24    23    1
    16    24    25    1
    17    20    23    1
    18    20    21    1
    19     2     5    1
    20    21    27   am
    21    21    22    2
    22     5     6    1
    23    27    28    1
    24    62    63    1
    25    62    59    1
    26    58    59    1
    27    29    28    1
    28    29    30    2
    29    28    31    1
    30    36    37    1
    31    31    32    1
    32    48    46    1
    33    59    60    1
    34     6     7    1
    35    71    69    1
    36    43    44    2
    37    43    42    1
    38    70    69    1
    39    45    46    1
    40    45    42    1
    41     8     7   ar
    42    32    33    1
    43     7     9   ar
    44    46    47    1
    45    64    60   am
    46    64    65    1
    47    41    42    1
    48    41    38   am
    49    60    61    2
    50    69    68    1
    51    37    38    1
    52    37    40    1
    53    38    39    2
    54    68    65    1
    55    65    66    1
    56    33    34    2
    57    33    35   am
    58    49    50    1
    59    66    67    2
    60    51    50    1
    61    51    52    2
    62    50    53    1
    63   173   171    1
    64    53    54    1
    65    54    55    1
    66    72    73    1
    67    55    56   ar
    68    55    57   ar
    69   166   167    1
    70    76    73    1
    71    76    77    1
    72   167   170    1
    73   167   168    1
    74   171   172    1
    75   171   170    1
    76    73    74    1
    77   169   168    2
    78    77    78   ar
    79    77    79   ar
    80    78    80   ar
    81    79    81   ar
    82    74    75    2
    83    80    82   ar
    84    81    82   ar
    85   161   160    2
    86   160   159    1
    87   162   159    1
    88   162   163    1
    89   164   163    2
    90   159   158    1
    91   163   165   am
    92   146   145   ar
    93   146   144   ar
    94   145   143   ar
    95    88    87    1
    96   150   149    2
    97   158   149   am
    98    83    84    1
    99   144   142   ar
   100   149   148    1
   101    87    84    1
   102   143   141   ar
   103    84    85    1
   104   139   138    2
   105   142   141   ar
   106   141   140    1
   107   148   147    1
   108   148   151    1
   109    85    86    2
   110   138   137    1
   111   151   152    1
   112   140   137    1
   113    98    97    1
   114   157   155    1
   115   137   136    1
   116   156   155    1
   117   155   154    2
   118   154   153    1
   119   152   153    1
   120    99    97    1
   121    97    96    2
   122   135   134    2
   123   136   134   am
   124   134   133    1
   125    96    95    1
   126    95    94    1
   127    89    90    1
   128   127   126    2
   129    94    93    1
   130   133   132    1
   131   130   129    1
   132    93    90    1
   133    90    91    1
   134   129   131    1
   135   129   128    1
   136   126   125    1
   137    91    92    2
   138   125   128    1
   139   125   124    1
   140   119   118    2
   141   124   118   am
   142   118   117    1
   143   117   116    1
   144   117   120    1
   145   107   105    1
   146   111   110    2
   147   100   101    1
   148   105   104    1
   149   122   121    1
   150   121   120    1
   151   121   123    1
   152   104   101    1
   153   104   106    1
   154   110   109    1
   155   101   102    1
   156   102   103    2
   157   109   112    1
   158   109   108    1
   159   112   113    1
   160   115   113    1
   161   113   114    1
