@<TRIPOS>MOLECULE
tmp/5ht0C00.pdb
 178 178 0 0 0
SMALL
GASTEIGER

@<TRIPOS>ATOM
      1  N        116.5700   43.3360  336.9080 N.3    26  VAL26      -0.1231
      2  CA       116.3990   44.7580  337.1700 C.3    26  VAL26       0.1692
      3  C        114.9460   45.1570  337.4370 C.2    26  VAL26       0.2592
      4  O        114.0420   44.8700  336.6460 O.2    26  VAL26      -0.2718
      5  CB       116.9450   45.6050  335.9990 C.3    26  VAL26       0.0266
      6  CG1      116.7630   47.0880  336.2790 C.3    26  VAL26       0.0020
      7  CG2      118.4130   45.2850  335.7460 C.3    26  VAL26       0.0020
      8  N        114.7430   45.8100  338.5780 N.am   27  HIS27      -0.1962
      9  CA       113.4970   46.4970  338.8900 C.3    27  HIS27       0.1787
     10  C        113.7430   47.9940  338.7490 C.2    27  HIS27       0.2620
     11  O        114.7070   48.5060  339.3130 O.2    27  HIS27      -0.2715
     12  CB       113.0230   46.1610  340.3020 C.3    27  HIS27       0.0785
     13  CG       112.9150   44.6930  340.5750 C.ar   27  HIS27       0.0821
     14  ND1      113.9740   43.9450  341.0430 N.ar   27  HIS27      -0.2267
     15  CD2      111.8740   43.8360  340.4560 C.ar   27  HIS27       0.1154
     16  CE1      113.5920   42.6900  341.1970 C.ar   27  HIS27       0.1986
     17  NE2      112.3210   42.5970  340.8480 N.ar   27  HIS27      -0.2212
     18  N        112.8920   48.7050  338.0110 N.am   28  ALA28      -0.1963
     19  CA       113.2340   50.0810  337.6480 C.3    28  ALA28       0.1728
     20  C        112.1070   51.0980  337.7720 C.2    28  ALA28       0.2616
     21  O        110.9580   50.8320  337.4200 O.2    28  ALA28      -0.2715
     22  CB       113.7840   50.1120  336.2200 C.3    28  ALA28       0.0334
     23  N        112.4700   52.2750  338.2740 N.am   29  ALA29      -0.1963
     24  CA       111.6380   53.4670  338.1840 C.3    29  ALA29       0.1728
     25  C        112.2990   54.4500  337.2160 C.2    29  ALA29       0.2616
     26  O        112.9890   55.3780  337.6410 O.2    29  ALA29      -0.2715
     27  CB       111.4490   54.1000  339.5510 C.3    29  ALA29       0.0334
     28  N        112.0830   54.2350  335.9190 N.am   30  LEU30      -0.1963
     29  CA       112.7890   54.9590  334.8590 C.3    30  LEU30       0.1728
     30  C        112.6630   56.4790  334.9700 C.2    30  LEU30       0.2616
     31  O        113.5610   57.2190  334.5540 O.2    30  LEU30      -0.2715
     32  CB       112.2820   54.5000  333.4870 C.3    30  LEU30       0.0311
     33  CG       112.4140   53.0080  333.1670 C.3    30  LEU30       0.0022
     34  CD1      111.8230   52.6920  331.8010 C.3    30  LEU30       0.0001
     35  CD2      113.8690   52.5680  333.2430 C.3    30  LEU30       0.0001
     36  N        111.5530   56.9340  335.5450 N.am   31  ARG31      -0.1963
     37  CA       111.2780   58.3600  335.7080 C.3    31  ARG31       0.1729
     38  C        112.3650   59.0790  336.5080 C.2    31  ARG31       0.2616
     39  O        112.5200   60.2970  336.4090 O.2    31  ARG31      -0.2715
     40  CB       109.9210   58.5550  336.3920 C.3    31  ARG31       0.0348
     41  CG       109.0870   59.7000  335.8360 C.3    31  ARG31       0.0492
     42  CD       107.6990   59.7550  336.4790 C.3    31  ARG31       0.2205
     43  NE       106.8240   58.6780  336.0140 N.pl3  31  ARG31      -0.0865
     44  CZ       106.0710   58.7580  334.9240 C.cat  31  ARG31       0.5346
     45  NH1      106.0920   59.8680  334.2080 N.pl3  31  ARG31       0.1354
     46  NH2      105.2970   57.7450  334.5520 N.pl3  31  ARG31       0.1354
     47  N        113.1240   58.3180  337.2910 N.am   32  LYS32      -0.1977
     48  CA       114.0760   58.9080  338.2220 C.3    32  LYS32       0.1596
     49  C        115.5240   58.8420  337.7550 C.2    32  LYS32       0.2287
     50  O        116.3860   59.5180  338.3120 O.2    32  LYS32      -0.2864
     51  CB       113.9330   58.2380  339.5830 C.3    32  LYS32       0.0298
     52  CG       112.6090   58.5680  340.2410 C.3    32  LYS32       0.0038
     53  CD       112.3690   57.7340  341.4750 C.3    32  LYS32       0.0206
     54  CE       112.1610   58.6170  342.6870 C.3    32  LYS32       0.1093
     55  NZ       111.8460   57.8100  343.8940 N.3    32  LYS32      -0.1314
     56  N        116.3920   60.1950  335.2990 N.3    34  GLY34      -0.1225
     57  CA       116.5500   61.5060  334.7010 C.3    34  GLY34       0.1811
     58  C        116.5150   61.4330  333.1860 C.2    34  GLY34       0.2280
     59  O        116.0840   60.4310  332.6090 O.2    34  GLY34      -0.2866
     60  N        116.6820   57.9080  325.1670 N.3    39  GLY39      -0.1210
     61  CA       115.5670   57.4070  325.9450 C.3    39  GLY39       0.1940
     62  C        116.0180   56.2720  326.8420 C.2    39  GLY39       0.2453
     63  O        117.2170   56.0190  326.9620 O.2    39  GLY39      -0.2732
     64  N        115.0580   55.5780  327.4720 N.am   40  PRO40      -0.2728
     65  CA       115.3390   54.4480  328.3660 C.3    40  PRO40       0.1401
     66  C        116.1400   53.3400  327.6790 C.2    40  PRO40       0.2269
     67  O        116.8840   52.6260  328.3500 O.2    40  PRO40      -0.2865
     68  CB       113.9440   53.9440  328.7510 C.3    40  PRO40       0.0296
     69  CG       113.0260   55.0720  328.4780 C.3    40  PRO40       0.0237
     70  CD       113.6150   55.8390  327.3410 C.3    40  PRO40       0.0939
     71  N        110.8840   41.6820  335.0510 N.3    60  TYR60      -0.1241
     72  CA       109.7700   40.9100  335.5690 C.3    60  TYR60       0.1605
     73  C        108.4670   41.3430  334.9020 C.2    60  TYR60       0.2264
     74  O        107.8520   42.3260  335.3110 O.2    60  TYR60      -0.2867
     75  CB       109.7150   41.0830  337.0810 C.3    60  TYR60       0.0534
     76  CG       108.5720   40.4040  337.7840 C.ar   60  TYR60      -0.0201
     77  CD1      108.1280   39.1440  337.3990 C.ar   60  TYR60      -0.0009
     78  CD2      107.9550   41.0150  338.8640 C.ar   60  TYR60      -0.0009
     79  CE1      107.0870   38.5240  338.0640 C.ar   60  TYR60       0.0417
     80  CE2      106.9180   40.4090  339.5320 C.ar   60  TYR60       0.0417
     81  CZ       106.4850   39.1640  339.1310 C.ar   60  TYR60       0.1957
     82  OH       105.4450   38.5610  339.8020 O.3    60  TYR60      -0.2866
     83  N        101.7820   47.6160  336.2890 N.3    92  ASP92      -0.1225
     84  CA       102.1440   47.9820  337.6560 C.3    92  ASP92       0.1805
     85  C        103.6330   47.8430  337.9400 C.2    92  ASP92       0.2598
     86  O        104.0940   48.2200  339.0130 O.2    92  ASP92      -0.2718
     87  CB       101.3670   47.1250  338.6580 C.3    92  ASP92       0.1424
     88  CG        99.8680   47.1860  338.4410 C.2    92  ASP92       0.3668
     89  OD1       99.4340   47.6520  337.3650 O.co2  92  ASP92      -0.2456
     90  OD2       99.1230   46.7550  339.3480 O.co2  92  ASP92      -0.2456
     91  N        104.3830   47.2990  336.9860 N.am   93  ASN93      -0.1960
     92  CA       105.8100   47.0650  337.1840 C.3    93  ASN93       0.1819
     93  C        106.6980   48.0510  336.4320 C.2    93  ASN93       0.2622
     94  O        107.9130   48.0720  336.6250 O.2    93  ASN93      -0.2715
     95  CB       106.1670   45.6350  336.7790 C.3    93  ASN93       0.1195
     96  CG       105.7590   44.6130  337.8270 C.2    93  ASN93       0.2630
     97  OD1      105.1840   44.9590  338.8630 O.2    93  ASN93      -0.2716
     98  ND2      106.0480   43.3450  337.5580 N.am   93  ASN93      -0.0877
     99  N        106.0900   48.8670  335.5780 N.am   94  GLY94      -0.1940
    100  CA       106.8260   49.8790  334.8470 C.3    94  GLY94       0.2014
    101  C        107.0640   49.5250  333.3940 C.2    94  GLY94       0.2639
    102  O        106.6930   48.4440  332.9310 O.2    94  GLY94      -0.2714
    103  N        107.6880   50.4540  332.6780 N.am   95  PHE95      -0.1959
    104  CA       107.9910   50.2960  331.2620 C.3    95  PHE95       0.1771
    105  C        109.1410   49.3110  331.0640 C.2    95  PHE95       0.2620
    106  O        109.2370   48.6470  330.0290 O.2    95  PHE95      -0.2715
    107  CB       108.3270   51.6640  330.6580 C.3    95  PHE95       0.0574
    108  CG       108.7030   51.6240  329.2060 C.ar   95  PHE95      -0.0200
    109  CD1      107.9140   50.9530  328.2860 C.ar   95  PHE95      -0.0042
    110  CD2      109.8340   52.2880  328.7560 C.ar   95  PHE95      -0.0042
    111  CE1      108.2580   50.9270  326.9470 C.ar   95  PHE95      -0.0003
    112  CE2      110.1800   52.2690  327.4220 C.ar   95  PHE95      -0.0003
    113  CZ       109.3900   51.5890  326.5150 C.ar   95  PHE95      -0.0000
    114  N        109.9820   49.1970  332.0880 N.am   96  TRP96      -0.1960
    115  CA       111.2400   48.4580  332.0030 C.3    96  TRP96       0.1756
    116  C        111.1400   47.0090  331.4720 C.2    96  TRP96       0.2461
    117  O        111.8560   46.6600  330.5280 O.2    96  TRP96      -0.2730
    118  CB       111.9260   48.4690  333.3760 C.3    96  TRP96       0.0590
    119  CG       113.1560   47.6340  333.4230 C.ar   96  TRP96       0.0006
    120  CD1      113.2990   46.4170  334.0250 C.ar   96  TRP96       0.0946
    121  CD2      114.4220   47.9410  332.8280 C.ar   96  TRP96       0.0152
    122  NE1      114.5800   45.9500  333.8470 N.ar   96  TRP96      -0.2442
    123  CE2      115.2900   46.8680  333.1170 C.ar   96  TRP96       0.0810
    124  CE3      114.9070   49.0190  332.0820 C.ar   96  TRP96       0.0012
    125  CZ2      116.6170   46.8440  332.6880 C.ar   96  TRP96       0.0191
    126  CZ3      116.2230   48.9920  331.6540 C.ar   96  TRP96       0.0001
    127  CH2      117.0630   47.9120  331.9590 C.ar   96  TRP96       0.0015
    128  N        110.2730   46.1580  332.0630 N.am   97  PRO97      -0.2727
    129  CA       110.2150   44.8070  331.4880 C.3    97  PRO97       0.1402
    130  C        109.5500   44.7870  330.1210 C.2    97  PRO97       0.2269
    131  O        109.8250   43.8960  329.3140 O.2    97  PRO97      -0.2865
    132  CB       109.3840   44.0230  332.5050 C.3    97  PRO97       0.0296
    133  CG       108.5520   45.0510  333.1780 C.3    97  PRO97       0.0237
    134  CD       109.4050   46.2810  333.2500 C.3    97  PRO97       0.0939
    135  N        113.9470   51.6540  341.5910 N.3   157  ALA157     -0.1231
    136  CA       112.8440   51.0300  342.3110 C.3   157  ALA157      0.1679
    137  C        113.0320   51.0540  343.8220 C.2   157  ALA157      0.2434
    138  O        114.1590   51.1540  344.3100 O.2   157  ALA157     -0.2733
    139  CB       112.6750   49.5980  341.8390 C.3   157  ALA157      0.0304
    140  N        111.9200   50.9730  344.5700 N.am  158  PRO158     -0.2729
    141  CA       111.9880   50.7720  346.0240 C.3   158  PRO158      0.1401
    142  C        112.4230   49.3460  346.3930 C.2   158  PRO158      0.2269
    143  O        112.1830   48.4070  345.6290 O.2   158  PRO158     -0.2865
    144  CB       110.5550   51.0590  346.4910 C.3   158  PRO158      0.0296
    145  CG       109.7050   50.9250  345.2730 C.3   158  PRO158      0.0237
    146  CD       110.5610   51.3150  344.1150 C.3   158  PRO158      0.0939
    147  N        111.3990   47.4650  348.6200 N.3   160  ASP160     -0.1225
    148  CA       110.1070   46.7950  348.6790 C.3   160  ASP160      0.1805
    149  C        109.8590   45.7960  347.5240 C.2   160  ASP160      0.2598
    150  O        109.1890   44.7760  347.7010 O.2   160  ASP160     -0.2718
    151  CB       109.0530   47.9200  348.6920 C.3   160  ASP160      0.1424
    152  CG       107.6170   47.4380  348.8200 C.2   160  ASP160      0.3668
    153  OD1      107.2350   46.3840  348.2760 O.co2 160  ASP160     -0.2456
    154  OD2      106.8350   48.1780  349.4500 O.co2 160  ASP160     -0.2456
    155  N        110.4070   46.0860  346.3480 N.am  161  THR161     -0.1953
    156  CA       109.9970   45.3950  345.1310 C.3   161  THR161      0.1897
    157  C        110.9010   44.2410  344.7200 C.2   161  THR161      0.2313
    158  O        110.7550   43.7030  343.6210 O.2   161  THR161     -0.2863
    159  CB       109.9160   46.3810  343.9570 C.3   161  THR161      0.1794
    160  OG1      111.1290   47.1420  343.8920 O.3   161  THR161     -0.2208
    161  CG2      108.7470   47.3300  344.1510 C.3   161  THR161      0.0378
    162  N        111.5980   41.1320  343.9260 N.3   163  THR163     -0.1218
    163  CA       110.8050   39.9390  343.6700 C.3   163  THR163      0.1862
    164  C        111.5900   38.6790  344.0420 C.2   163  THR163      0.2287
    165  O        111.0070   37.6550  344.3970 O.2   163  THR163     -0.2866
    166  CB       110.3570   39.8810  342.1910 C.3   163  THR163      0.1770
    167  OG1      109.6740   41.0950  341.8510 O.3   163  THR163     -0.2211
    168  CG2      109.4260   38.7060  341.9470 C.3   163  THR163      0.0375
    169  N        110.8870   36.4690  347.1100 N.3   166  HIS166     -0.1241
    170  CA       109.7750   35.5290  347.1480 C.3   166  HIS166      0.1621
    171  C        110.2990   34.1170  346.9670 C.2   166  HIS166      0.2264
    172  O        109.7330   33.1620  347.5040 O.2   166  HIS166     -0.2867
    173  CB       108.7390   35.8500  346.0760 C.3   166  HIS166      0.0745
    174  CG       107.9150   37.0600  346.3810 C.ar  166  HIS166      0.0817
    175  ND1      107.2120   37.2050  347.5580 N.ar  166  HIS166     -0.2268
    176  CD2      107.6750   38.1800  345.6590 C.ar  166  HIS166      0.1154
    177  CE1      106.5770   38.3630  347.5490 C.ar  166  HIS166      0.1986
    178  NE2      106.8430   38.9750  346.4080 N.ar  166  HIS166     -0.2212
@<TRIPOS>BOND
     1    60    61    1
     2    61    62    1
     3   113   111   ar
     4   113   112   ar
     5    62    63    2
     6    62    64   am
     7   111   109   ar
     8    70    64    1
     9    70    69    1
    10   112   110   ar
    11    64    65    1
    12    66    67    2
    13    66    65    1
    14   109   108   ar
    15    65    68    1
    16    69    68    1
    17   110   108   ar
    18   108   107    1
    19   131   130    2
    20   106   105    2
    21   130   129    1
    22   117   116    2
    23   107   104    1
    24   105   104    1
    25   105   114   am
    26   104   103    1
    27   116   115    1
    28   116   128   am
    29   129   128    1
    30   129   132    1
    31   126   127   ar
    32   126   124   ar
    33    34    33    1
    34   127   125   ar
    35   115   114    1
    36   115   118    1
    37   128   134    1
    38   124   121   ar
    39   132   133    1
    40    59    58    2
    41   103   101   am
    42   125   123   ar
    43   121   123   ar
    44   121   119   ar
    45   102   101    2
    46   123   122   ar
    47    33    35    1
    48    33    32    1
    49   133   134    1
    50    58    57    1
    51   118   119    1
    52   101   100    1
    53   119   120   ar
    54    32    29    1
    55   122   120   ar
    56    45    44    1
    57    46    44    1
    58    31    30    2
    59    57    56    1
    60   100    99    1
    61    29    30    1
    62    29    28    1
    63    73    74    2
    64    73    72    1
    65    44    43    2
    66    30    36   am
    67    71    72    1
    68    36    37    1
    69    72    75    1
    70    99    93   am
    71    37    40    1
    72    37    38    1
    73     7     5    1
    74    41    40    1
    75    41    42    1
    76    28    25   am
    77     5     6    1
    78     5     2    1
    79    43    42    1
    80    22    19    1
    81    83    84    1
    82    39    38    2
    83    93    94    2
    84    93    92    1
    85    38    47   am
    86     4     3    2
    87    95    92    1
    88    95    96    1
    89     1     2    1
    90    91    92    1
    91    91    85   am
    92    75    76    1
    93     2     3    1
    94    25    26    2
    95    25    24    1
    96    47    48    1
    97    89    88   ar
    98    77    76   ar
    99    77    79   ar
   100    21    20    2
   101     3     8   am
   102    98    96   am
   103    19    20    1
   104    19    18    1
   105    84    85    1
   106    84    87    1
   107    49    48    1
   108    49    50    2
   109    20    23   am
   110    76    78   ar
   111    96    97    2
   112    85    86    2
   113    18    10   am
   114    79    81   ar
   115    24    23    1
   116    24    27    1
   117    48    51    1
   118    88    87    1
   119    88    90   ar
   120     8     9    1
   121    10     9    1
   122    10    11    2
   123    78    80   ar
   124     9    12    1
   125    81    80   ar
   126    81    82    1
   127    51    52    1
   128    52    53    1
   129    12    13    1
   130    15    13   ar
   131    15    17   ar
   132    13    14   ar
   133    17    16   ar
   134    14    16   ar
   135    53    54    1
   136   135   136    1
   137   139   136    1
   138   167   166    1
   139   168   166    1
   140   166   163    1
   141   136   137    1
   142    54    55    1
   143   158   157    2
   144   163   162    1
   145   163   164    1
   146   137   138    2
   147   137   140   am
   148   160   159    1
   149   159   161    1
   150   159   156    1
   151   164   165    2
   152   146   140    1
   153   146   145    1
   154   140   141    1
   155   157   156    1
   156   156   155    1
   157   145   144    1
   158   143   142    2
   159   176   174   ar
   160   176   178   ar
   161   141   142    1
   162   141   144    1
   163   173   174    1
   164   173   170    1
   165   155   149   am
   166   174   175   ar
   167   178   177   ar
   168   171   170    1
   169   171   172    2
   170   169   170    1
   171   149   150    2
   172   149   148    1
   173   177   175   ar
   174   153   152   ar
   175   147   148    1
   176   148   151    1
   177   151   152    1
   178   152   154   ar
