@<TRIPOS>MOLECULE
tmp/5ht4A00.pdb
 163 157 0 0 0
SMALL
GASTEIGER

@<TRIPOS>ATOM
      1  N         -0.2670   25.7720   -1.5930 N.3     7  ILE7       -0.1231
      2  CA        -0.6770   24.7580   -2.5970 C.3     7  ILE7        0.1692
      3  C         -1.9410   24.1340   -2.0460 C.2     7  ILE7        0.2592
      4  O         -1.9770   23.7960   -0.8750 O.2     7  ILE7       -0.2718
      5  CB         0.3960   23.6370   -2.8950 C.3     7  ILE7        0.0266
      6  CG1       -0.1490   22.7100   -4.0320 C.3     7  ILE7        0.0019
      7  CG2        0.9740   23.0130   -1.6010 C.3     7  ILE7        0.0020
      8  CD1        0.9400   21.9500   -4.7770 C.3     7  ILE7        0.0001
      9  N         -2.9310   23.9250   -2.9330 N.am    8  VAL8       -0.1966
     10  CA        -4.2160   23.3730   -2.5200 C.3     8  VAL8        0.1727
     11  C         -4.8260   22.6630   -3.6840 C.2     8  VAL8        0.2616
     12  O         -4.5670   23.0160   -4.8250 O.2     8  VAL8       -0.2715
     13  CB        -5.1930   24.5290   -2.0670 C.3     8  VAL8        0.0290
     14  CG1       -5.5870   25.4690   -3.2620 C.3     8  VAL8        0.0023
     15  CG2       -6.3920   23.9180   -1.3020 C.3     8  VAL8        0.0023
     16  N         -5.7320   21.7320   -3.3710 N.am    9  ALA9       -0.1977
     17  CA        -6.6450   21.1950   -4.4030 C.3     9  ALA9        0.1597
     18  C         -8.0850   21.4900   -3.8970 C.2     9  ALA9        0.2287
     19  O         -8.3830   21.2420   -2.7160 O.2     9  ALA9       -0.2864
     20  CB        -6.3830   19.7070   -4.5970 C.3     9  ALA9        0.0319
     21  N        -10.0190   13.9880    1.8610 N.3    22  LEU22      -0.1245
     22  CA       -10.3980   14.7640    0.6870 C.3    22  LEU22       0.1561
     23  C        -11.8760   14.5290    0.3250 C.2    22  LEU22       0.2260
     24  O        -12.3520   13.4040    0.5200 O.2    22  LEU22      -0.2867
     25  CB        -9.5210   14.3530   -0.5030 C.3    22  LEU22       0.0270
     26  CG        -7.9970   14.4430   -0.3450 C.3    22  LEU22       0.0019
     27  CD1       -7.3520   13.7650   -1.5400 C.3    22  LEU22       0.0001
     28  CD2       -7.5740   15.8970   -0.1910 C.3    22  LEU22       0.0001
     29  N        -13.0020   14.1410   -2.5730 N.3    24  TRP24      -0.1241
     30  CA       -13.0780   13.3100   -3.8060 C.3    24  TRP24       0.1605
     31  C        -12.2790   12.0960   -3.5300 C.2    24  TRP24       0.2264
     32  O        -11.4100   12.0890   -2.5970 O.2    24  TRP24      -0.2867
     33  CB       -12.5440   14.0840   -5.0390 C.3    24  TRP24       0.0550
     34  CG       -11.2950   14.8490   -4.6970 C.ar   24  TRP24       0.0003
     35  CD1       -9.9860   14.4230   -4.7250 C.ar   24  TRP24       0.0946
     36  CD2      -11.2610   16.2180   -4.2010 C.ar   24  TRP24       0.0152
     37  NE1       -9.1200   15.4340   -4.2540 N.ar   24  TRP24      -0.2442
     38  CE2       -9.8470   16.5360   -3.9370 C.ar   24  TRP24       0.0810
     39  CE3      -12.2360   17.2080   -4.0070 C.ar   24  TRP24       0.0012
     40  CZ2       -9.4730   17.7770   -3.4220 C.ar   24  TRP24       0.0191
     41  CZ3      -11.8530   18.4400   -3.4920 C.ar   24  TRP24       0.0001
     42  CH2      -10.4950   18.7230   -3.2380 C.ar   24  TRP24       0.0015
     43  N         -6.8320   10.9420   -6.2570 N.3    27  LEU27      -0.1245
     44  CA        -6.3800   11.1580   -7.6270 C.3    27  LEU27       0.1561
     45  C         -4.8690   10.9920   -7.6390 C.2    27  LEU27       0.2260
     46  O         -4.1270   11.7860   -7.0340 O.2    27  LEU27      -0.2867
     47  CB        -6.7510   12.5650   -8.1330 C.3    27  LEU27       0.0270
     48  CG        -8.2100   13.0050   -8.0270 C.3    27  LEU27       0.0019
     49  CD1       -8.3690   14.5070   -8.3160 C.3    27  LEU27       0.0001
     50  CD2       -9.1140   12.2060   -8.9610 C.3    27  LEU27       0.0001
     51  N         -2.6110   13.8440   -9.0450 N.3    30  GLU30      -0.1231
     52  CA        -2.7030   15.0240   -8.1860 C.3    30  GLU30       0.1699
     53  C         -1.7670   14.8590   -6.9820 C.2    30  GLU30       0.2592
     54  O         -0.9480   15.7660   -6.6400 O.2    30  GLU30      -0.2718
     55  CB        -4.1510   15.2880   -7.7560 C.3    30  GLU30       0.0402
     56  CG        -4.4650   16.7670   -7.6910 C.3    30  GLU30       0.1161
     57  CD        -3.9200   17.4710   -6.4670 C.2    30  GLU30       0.3649
     58  OE1       -3.3810   18.5650   -6.6870 O.co2  30  GLU30      -0.2457
     59  OE2       -3.9930   16.9770   -5.3050 O.co2  30  GLU30      -0.2457
     60  N         -1.8000   13.6610   -6.3830 N.am   31  PHE31      -0.1976
     61  CA        -0.8530   13.3390   -5.3290 C.3    31  PHE31       0.1639
     62  C          0.5990   13.4570   -5.8210 C.2    31  PHE31       0.2290
     63  O          1.3910   14.1130   -5.1610 O.2    31  PHE31      -0.2864
     64  CB        -1.1800   11.9350   -4.7670 C.3    31  PHE31       0.0560
     65  CG        -0.0340   11.2420   -3.9980 C.ar   31  PHE31      -0.0200
     66  CD1        1.0370   10.6040   -4.6670 C.ar   31  PHE31      -0.0042
     67  CD2       -0.0930   11.1230   -2.6030 C.ar   31  PHE31      -0.0042
     68  CE1        2.0440    9.9670   -3.9630 C.ar   31  PHE31      -0.0003
     69  CE2        0.9030   10.4540   -1.8990 C.ar   31  PHE31      -0.0003
     70  CZ         1.9730    9.8740   -2.5720 C.ar   31  PHE31      -0.0000
     71  N          1.7530   15.2580   -8.3530 N.3    33  TYR33      -0.1227
     72  CA         2.0000   16.6720   -8.5700 C.3    33  TYR33       0.1736
     73  C          2.2310   17.3940   -7.2410 C.2    33  TYR33       0.2595
     74  O          3.2100   18.0950   -7.0830 O.2    33  TYR33      -0.2718
     75  CB         0.8220   17.3170   -9.2980 C.3    33  TYR33       0.0548
     76  CG         0.9380   18.8170   -9.4380 C.ar   33  TYR33      -0.0200
     77  CD1        1.7850   19.3760  -10.3710 C.ar   33  TYR33      -0.0009
     78  CD2        0.2020   19.6760   -8.6210 C.ar   33  TYR33      -0.0009
     79  CE1        1.9010   20.7560  -10.5170 C.ar   33  TYR33       0.0417
     80  CE2        0.3180   21.0600   -8.7780 C.ar   33  TYR33       0.0417
     81  CZ         1.1600   21.5950   -9.7200 C.ar   33  TYR33       0.1957
     82  OH         1.2130   22.9970   -9.8160 O.3    33  TYR33      -0.2866
     83  N          1.3820   17.1280   -6.2370 N.am   34  PHE34      -0.1976
     84  CA         1.6270   17.7720   -4.9390 C.3    34  PHE34       0.1639
     85  C          3.0230   17.4560   -4.3690 C.2    34  PHE34       0.2290
     86  O          3.7590   18.3540   -3.8990 O.2    34  PHE34      -0.2864
     87  CB         0.5160   17.2880   -3.9460 C.3    34  PHE34       0.0560
     88  CG         0.7930   17.6560   -2.4940 C.ar   34  PHE34      -0.0200
     89  CD1        0.5320   18.9600   -1.9930 C.ar   34  PHE34      -0.0042
     90  CD2        1.4350   16.7550   -1.6450 C.ar   34  PHE34      -0.0042
     91  CE1        0.7990   19.3210   -0.7110 C.ar   34  PHE34      -0.0003
     92  CE2        1.7160   17.1370   -0.3290 C.ar   34  PHE34      -0.0003
     93  CZ         1.3760   18.3840    0.1540 C.ar   34  PHE34      -0.0000
     94  N         -4.5850   18.9900    9.2850 N.3    56  THR56      -0.1218
     95  CA        -3.8990   18.5640    8.0610 C.3    56  THR56       0.1862
     96  C         -2.8340   17.4530    8.2290 C.2    56  THR56       0.2287
     97  O         -2.7910   16.4640    7.4760 O.2    56  THR56      -0.2866
     98  CB        -3.3700   19.8040    7.2530 C.3    56  THR56       0.1770
     99  OG1       -4.4490   20.6620    6.8830 O.3    56  THR56      -0.2211
    100  CG2       -2.6660   19.3540    5.9900 C.3    56  THR56       0.0375
    101  N         -4.4150   14.2490    8.8520 N.3    59  SER59      -0.1202
    102  CA        -5.2230   13.8060    7.6920 C.3    59  SER59       0.2020
    103  C         -4.3860   13.0730    6.6870 C.2    59  SER59       0.2619
    104  O         -4.8970   12.4560    5.7590 O.2    59  SER59      -0.2717
    105  CB        -5.9410   14.9480    6.9800 C.3    59  SER59       0.2103
    106  OG        -5.0220   15.5880    6.0700 O.3    59  SER59      -0.2182
    107  N         -3.0750   13.2170    6.7820 N.am   60  ILE60      -0.1966
    108  CA        -2.1780   12.4530    5.9490 C.3    60  ILE60       0.1712
    109  C         -2.0030   11.0610    6.5600 C.2    60  ILE60       0.2458
    110  O         -1.7270   10.9790    7.7680 O.2    60  ILE60      -0.2730
    111  CB        -0.8380   13.1900    5.8260 C.3    60  ILE60       0.0289
    112  CG1       -1.0320   14.5850    5.1870 C.3    60  ILE60       0.0022
    113  CG2        0.1850   12.3030    5.0840 C.3    60  ILE60       0.0023
    114  CD1        0.1280   15.5490    5.4410 C.3    60  ILE60       0.0001
    115  N         -2.0950   10.0130    5.7090 N.am   61  PRO61      -0.2727
    116  CA        -1.8980    8.6440    6.2170 C.3    61  PRO61       0.1402
    117  C         -0.5320    8.5220    6.9020 C.2    61  PRO61       0.2269
    118  O          0.4890    8.9530    6.3480 O.2    61  PRO61      -0.2865
    119  CB        -2.0070    7.7730    4.9440 C.3    61  PRO61       0.0296
    120  CG        -2.9380    8.5200    4.0030 C.3    61  PRO61       0.0237
    121  CD        -2.7410   10.0110    4.3700 C.3    61  PRO61       0.0939
    122  N          2.4460    7.9020    5.1530 N.3    64  ASN64      -0.1240
    123  CA         2.9270    8.9590    4.2610 C.3    64  ASN64       0.1653
    124  C          3.5490   10.1290    4.9740 C.2    64  ASN64       0.2266
    125  O          3.8650   11.1120    4.2900 O.2    64  ASN64      -0.2867
    126  CB         1.7970    9.4620    3.3380 C.3    64  ASN64       0.1155
    127  CG         1.4060    8.4480    2.2700 C.2    64  ASN64       0.2627
    128  OD1        2.1770    8.1560    1.3700 O.2    64  ASN64      -0.2716
    129  ND2        0.2090    7.9010    2.3840 N.am   64  ASN64      -0.0877
    130  N          6.1030   14.0310    5.3190 N.3    67  LEU67      -0.1245
    131  CA         6.3260   14.1920    3.8680 C.3    67  LEU67       0.1561
    132  C          7.8440   14.1490    3.6130 C.2    67  LEU67       0.2260
    133  O          8.6040   15.0070    4.1080 O.2    67  LEU67      -0.2867
    134  CB         5.7360   15.5140    3.4500 C.3    67  LEU67       0.0270
    135  CG         4.2010   15.4650    3.6710 C.3    67  LEU67       0.0019
    136  CD1        3.6480   16.8230    3.2000 C.3    67  LEU67       0.0001
    137  CD2        3.6110   14.2800    2.9630 C.3    67  LEU67       0.0001
    138  N          0.4950   23.9860    3.1290 N.3   115  VAL115     -0.1245
    139  CA        -0.2290   22.8590    2.5490 C.3   115  VAL115      0.1561
    140  C         -1.6280   22.6980    3.2020 C.2   115  VAL115      0.2260
    141  O         -2.2500   21.7250    2.9220 O.2   115  VAL115     -0.2867
    142  CB         0.5910   21.5430    2.4560 C.3   115  VAL115      0.0252
    143  CG1        1.8390   21.8050    1.6390 C.3   115  VAL115      0.0019
    144  CG2        0.9140   20.9100    3.7930 C.3   115  VAL115      0.0019
    145  N         -4.2320   28.9860    5.2430 N.3   121  TYR121     -0.1241
    146  CA        -4.3570   29.6000    3.9160 C.3   121  TYR121      0.1605
    147  C         -4.8750   31.0120    4.0170 C.2   121  TYR121      0.2264
    148  O         -4.2900   31.9300    3.3990 O.2   121  TYR121     -0.2867
    149  CB        -5.3910   28.8090    3.0940 C.3   121  TYR121      0.0534
    150  CG        -4.9400   27.4460    2.5790 C.ar  121  TYR121     -0.0201
    151  CD1       -3.6760   27.2430    2.0440 C.ar  121  TYR121     -0.0009
    152  CD2       -5.7990   26.3920    2.5830 C.ar  121  TYR121     -0.0009
    153  CE1       -3.2900   26.0150    1.4660 C.ar  121  TYR121      0.0417
    154  CE2       -5.4140   25.1340    2.1050 C.ar  121  TYR121      0.0417
    155  CZ        -4.1530   24.9370    1.5360 C.ar  121  TYR121      0.1957
    156  OH        -3.8520   23.7100    1.0080 O.3   121  TYR121     -0.2866
    157  N         -5.0860   23.4920   -7.6310 N.3   136  THR136     -0.1218
    158  CA        -5.6430   22.4320   -8.4890 C.3   136  THR136      0.1862
    159  C         -7.1940   22.5800   -8.4340 C.2   136  THR136      0.2287
    160  O         -7.8380   22.5320   -7.3570 O.2   136  THR136     -0.2866
    161  CB        -5.2430   21.0030   -8.0090 C.3   136  THR136      0.1770
    162  OG1       -3.8200   20.8260   -7.9490 O.3   136  THR136     -0.2211
    163  CG2       -5.8480   19.9100   -8.9360 C.3   136  THR136      0.0375
@<TRIPOS>BOND
     1    79    77   ar
     2    79    81   ar
     3    77    76   ar
     4    82    81    1
     5    81    80   ar
     6    76    75    1
     7    76    78   ar
     8    75    72    1
     9    51    52    1
    10    50    48    1
    11   163   161    1
    12    80    78   ar
    13    72    71    1
    14    72    73    1
    15   158   159    1
    16   158   161    1
    17   158   157    1
    18   159   160    2
    19    49    48    1
    20    52    55    1
    21    52    53    1
    22    47    48    1
    23    47    44    1
    24   161   162    1
    25    55    56    1
    26    56    57    1
    27    45    44    1
    28    45    46    2
    29    44    43    1
    30    73    74    2
    31    73    83   am
    32    53    54    2
    33    53    60   am
    34    58    57   ar
    35    57    59   ar
    36    60    61    1
    37    83    84    1
    38    62    61    1
    39    62    63    2
    40    61    64    1
    41    33    34    1
    42    33    30    1
    43    84    85    1
    44    84    87    1
    45    12    11    2
    46     8     6    1
    47    64    65    1
    48    35    34   ar
    49    35    37   ar
    50    34    36   ar
    51    66    65   ar
    52    66    68   ar
    53    20    17    1
    54    17    18    1
    55    17    16    1
    56    85    86    2
    57    37    38   ar
    58    36    39   ar
    59    36    38   ar
    60     6     5    1
    61    39    41   ar
    62    65    67   ar
    63    68    70   ar
    64    87    88    1
    65    38    40   ar
    66    18    19    2
    67    30    31    1
    68    30    29    1
    69    11    16   am
    70    11    10    1
    71    31    32    2
    72    41    42   ar
    73    40    42   ar
    74    14    13    1
    75     9    10    1
    76     9     3   am
    77     5     2    1
    78     5     7    1
    79    67    69   ar
    80     2     3    1
    81     2     1    1
    82    70    69   ar
    83    10    13    1
    84    88    89   ar
    85    88    90   ar
    86    13    15    1
    87     3     4    2
    88    89    91   ar
    89    90    92   ar
    90    27    26    1
    91    91    93   ar
    92    25    26    1
    93    25    22    1
    94    26    28    1
    95    92    93   ar
    96    23    24    2
    97    23    22    1
    98    22    21    1
    99   156   155    1
   100   128   127    2
   101   153   155   ar
   102   153   151   ar
   103   155   154   ar
   104   143   142    1
   105   151   150   ar
   106   154   152   ar
   107   127   129   am
   108   127   126    1
   109   142   139    1
   110   142   144    1
   111   139   138    1
   112   139   140    1
   113   150   152   ar
   114   150   149    1
   115   141   140    2
   116   137   135    1
   117   149   146    1
   118   136   135    1
   119   126   123    1
   120   148   147    2
   121   134   135    1
   122   134   131    1
   123   132   131    1
   124   132   133    2
   125   131   130    1
   126   146   147    1
   127   146   145    1
   128   120   121    1
   129   120   119    1
   130   123   124    1
   131   123   122    1
   132   125   124    2
   133   121   115    1
   134   119   116    1
   135   113   111    1
   136   112   114    1
   137   112   111    1
   138   115   116    1
   139   115   109   am
   140   104   103    2
   141   111   108    1
   142   108   109    1
   143   108   107    1
   144   100    98    1
   145   106   105    1
   146   116   117    1
   147   118   117    2
   148   109   110    2
   149   103   107   am
   150   103   102    1
   151    99    98    1
   152   105   102    1
   153    98    95    1
   154    97    96    2
   155   102   101    1
   156    95    96    1
   157    95    94    1
