@<TRIPOS>MOLECULE
tmp/5ht5A01.pdb
 161 154 0 0 0
SMALL
GASTEIGER

@<TRIPOS>ATOM
      1  N         22.3890   12.5430    1.6280 N.3     7  ILE7       -0.1231
      2  CA        21.7610   11.6300    2.5820 C.3     7  ILE7        0.1692
      3  C         21.8390   10.2150    2.0070 C.2     7  ILE7        0.2592
      4  O         21.5830   10.0270    0.8260 O.2     7  ILE7       -0.2718
      5  CB        20.3320   12.0930    2.9630 C.3     7  ILE7        0.0266
      6  CG1       19.6810   11.1800    4.0140 C.3     7  ILE7        0.0019
      7  CG2       19.4810   12.2520    1.7170 C.3     7  ILE7        0.0020
      8  CD1       18.4290   11.8140    4.6880 C.3     7  ILE7        0.0001
      9  N         22.1510    9.2370    2.8850 N.am    8  VAL8       -0.1966
     10  CA        22.3540    7.8510    2.4660 C.3     8  VAL8        0.1727
     11  C         22.0650    6.9570    3.6600 C.2     8  VAL8        0.2616
     12  O         22.2280    7.4060    4.7890 O.2     8  VAL8       -0.2715
     13  CB        23.8050    7.6260    1.9540 C.3     8  VAL8        0.0290
     14  CG1       24.8440    7.6300    3.1320 C.3     8  VAL8        0.0023
     15  CG2       23.8450    6.3230    1.1810 C.3     8  VAL8        0.0023
     16  N         21.5960    5.7340    3.4230 N.am    9  ALA9       -0.1977
     17  CA        21.7010    4.6770    4.4590 C.3     9  ALA9        0.1597
     18  C         22.6610    3.6150    3.9510 C.2     9  ALA9        0.2287
     19  O         22.5190    3.1600    2.7890 O.2     9  ALA9       -0.2864
     20  CB        20.3740    4.0240    4.7280 C.3     9  ALA9        0.0319
     21  N         17.1320   -1.8870   -2.0370 N.3    22  LEU22      -0.1245
     22  CA        17.9880   -1.8100   -0.8470 C.3    22  LEU22       0.1561
     23  C         18.5750   -3.1930   -0.4230 C.2    22  LEU22       0.2260
     24  O         17.9420   -4.2200   -0.6720 O.2    22  LEU22      -0.2867
     25  CB        17.2540   -1.1240    0.2900 C.3    22  LEU22       0.0270
     26  CG        16.9590    0.3960    0.1430 C.3    22  LEU22       0.0019
     27  CD1       16.9040    1.0620    1.4910 C.3    22  LEU22       0.0001
     28  CD2       17.9190    1.1940   -0.7100 C.3    22  LEU22       0.0001
     29  N         13.1090    4.3070    8.9770 N.3    30  GLU30      -0.1231
     30  CA        14.2700    4.8680    8.2420 C.3    30  GLU30       0.1699
     31  C         13.7890    5.6230    7.0010 C.2    30  GLU30       0.2592
     32  O         14.2930    6.7150    6.7220 O.2    30  GLU30      -0.2718
     33  CB        15.3030    3.7940    7.9100 C.3    30  GLU30       0.0402
     34  CG        16.7320    4.3300    7.8550 C.3    30  GLU30       0.1161
     35  CD        17.0720    5.1510    6.5940 C.2    30  GLU30       0.3649
     36  OE1       17.7750    6.1650    6.7480 O.co2  30  GLU30      -0.2457
     37  OE2       16.6890    4.8090    5.4360 O.co2  30  GLU30      -0.2457
     38  N         12.7880    5.0790    6.2810 N.am   31  PHE31      -0.1976
     39  CA        12.2170    5.7760    5.1170 C.3    31  PHE31       0.1639
     40  C         11.5380    7.0560    5.5890 C.2    31  PHE31       0.2290
     41  O         11.6480    8.1230    4.9570 O.2    31  PHE31      -0.2864
     42  CB        11.1640    4.9270    4.3570 C.3    31  PHE31       0.0560
     43  CG        11.7330    3.8970    3.3880 C.ar   31  PHE31      -0.0200
     44  CD1       12.3870    4.2890    2.2120 C.ar   31  PHE31      -0.0042
     45  CD2       11.5180    2.5150    3.5950 C.ar   31  PHE31      -0.0042
     46  CE1       12.8650    3.3270    1.3060 C.ar   31  PHE31      -0.0003
     47  CE2       11.9700    1.5520    2.6810 C.ar   31  PHE31      -0.0003
     48  CZ        12.6590    1.9550    1.5460 C.ar   31  PHE31      -0.0000
     49  N         12.2440    8.7790    8.2490 N.3    33  TYR33      -0.1227
     50  CA        13.3970    9.6360    8.5510 C.3    33  TYR33       0.1736
     51  C         13.8510   10.3330    7.2820 C.2    33  TYR33       0.2595
     52  O         13.9940   11.5660    7.2980 O.2    33  TYR33      -0.2718
     53  CB        14.5690    8.8720    9.1790 C.3    33  TYR33       0.0548
     54  CG        15.8290    9.7560    9.3810 C.ar   33  TYR33      -0.0200
     55  CD1       15.8530   10.7830   10.3500 C.ar   33  TYR33      -0.0009
     56  CD2       16.9900    9.5690    8.6080 C.ar   33  TYR33      -0.0009
     57  CE1       17.0070   11.5710   10.5250 C.ar   33  TYR33       0.0417
     58  CE2       18.1320   10.3690    8.7950 C.ar   33  TYR33       0.0417
     59  CZ        18.1130   11.3780    9.7490 C.ar   33  TYR33       0.1957
     60  OH        19.2370   12.1920    9.9710 O.3    33  TYR33      -0.2866
     61  N         14.0920    9.5720    6.1910 N.am   34  PHE34      -0.1962
     62  CA        14.5500   10.1410    4.9010 C.3    34  PHE34       0.1771
     63  C         13.5670   11.1780    4.3720 C.2    34  PHE34       0.2619
     64  O         13.9720   12.2500    3.8790 O.2    34  PHE34      -0.2715
     65  CB        14.7320    9.0110    3.8320 C.3    34  PHE34       0.0574
     66  CG        14.8490    9.5010    2.3900 C.ar   34  PHE34      -0.0200
     67  CD1       16.1160    9.8980    1.8610 C.ar   34  PHE34      -0.0042
     68  CD2       13.7170    9.5760    1.5370 C.ar   34  PHE34      -0.0042
     69  CE1       16.2480   10.3200    0.5630 C.ar   34  PHE34      -0.0003
     70  CE2       13.8560   10.0490    0.2440 C.ar   34  PHE34      -0.0003
     71  CZ        15.1250   10.3770   -0.2720 C.ar   34  PHE34      -0.0000
     72  N         12.2800   10.8380    4.4640 N.am   35  GLN35      -0.1977
     73  CA        11.2040   11.6930    4.0070 C.3    35  GLN35       0.1601
     74  C         11.1700   13.0400    4.7670 C.2    35  GLN35       0.2287
     75  O         11.0570   14.0930    4.1230 O.2    35  GLN35      -0.2864
     76  CB         9.8290   10.9830    4.1260 C.3    35  GLN35       0.0394
     77  CG         8.6990   12.0010    4.1380 C.3    35  GLN35       0.0908
     78  CD         7.3750   11.4650    3.6490 C.2    35  GLN35       0.2608
     79  OE1        6.7120   12.0640    2.7820 O.2    35  GLN35      -0.2717
     80  NE2        6.9810   10.3300    4.1890 N.am   35  GLN35      -0.0878
     81  N         18.6900    5.4160   -9.3410 N.3    56  THR56      -0.1218
     82  CA        17.9290    5.8290   -8.1180 C.3    56  THR56       0.1862
     83  C         16.4360    6.1730   -8.3160 C.2    56  THR56       0.2287
     84  O         15.5090    5.6290   -7.6460 O.2    56  THR56      -0.2866
     85  CB        18.6990    6.9160   -7.3020 C.3    56  THR56       0.1770
     86  OG1       19.9730    6.3790   -6.9880 O.3    56  THR56      -0.2211
     87  CG2       17.9910    7.1820   -6.0530 C.3    56  THR56       0.0375
     88  N         14.3650    3.2030   -8.9570 N.3    59  SER59      -0.1202
     89  CA        14.3250    2.2960   -7.8070 C.3    59  SER59       0.2020
     90  C         13.1780    2.6810   -6.8720 C.2    59  SER59       0.2619
     91  O         12.6280    1.8170   -6.1950 O.2    59  SER59      -0.2717
     92  CB        15.6770    2.2440   -7.0750 C.3    59  SER59       0.2103
     93  OG        15.9820    3.4970   -6.5040 O.3    59  SER59      -0.2182
     94  N         12.7560    3.9520   -6.8930 N.am   60  ILE60      -0.1966
     95  CA        11.7230    4.4300   -5.9650 C.3    60  ILE60       0.1712
     96  C         10.4070    3.8810   -6.4990 C.2    60  ILE60       0.2458
     97  O         10.2380    3.9110   -7.7400 O.2    60  ILE60      -0.2730
     98  CB        11.6400    5.9570   -6.0130 C.3    60  ILE60       0.0289
     99  CG1       12.9710    6.5760   -5.4950 C.3    60  ILE60       0.0022
    100  CG2       10.3580    6.4440   -5.2690 C.3    60  ILE60       0.0023
    101  CD1       13.0980    8.1030   -5.6980 C.3    60  ILE60       0.0001
    102  N          9.5110    3.3480   -5.6060 N.am   61  PRO61      -0.2727
    103  CA         8.2260    2.8210   -6.1310 C.3    61  PRO61       0.1402
    104  C          7.4780    3.9220   -6.9510 C.2    61  PRO61       0.2269
    105  O          7.4120    5.0820   -6.4980 O.2    61  PRO61      -0.2865
    106  CB         7.4810    2.3550   -4.8680 C.3    61  PRO61       0.0296
    107  CG         8.5700    2.1050   -3.8250 C.3    61  PRO61       0.0237
    108  CD         9.6980    3.0510   -4.1650 C.3    61  PRO61       0.0939
    109  N          5.3940    6.4700   -5.3850 N.3    64  ASN64      -0.1240
    110  CA         6.0550    7.5010   -4.5580 C.3    64  ASN64       0.1653
    111  C          6.8380    8.5190   -5.3720 C.2    64  ASN64       0.2266
    112  O          7.4760    9.3770   -4.7970 O.2    64  ASN64      -0.2867
    113  CB         6.9580    6.8630   -3.4760 C.3    64  ASN64       0.1155
    114  CG         6.1760    6.0640   -2.4500 C.2    64  ASN64       0.2627
    115  OD1        4.9640    6.2540   -2.2890 O.2    64  ASN64      -0.2716
    116  ND2        6.8470    5.1420   -1.7810 N.am   64  ASN64      -0.0877
    117  N          9.0540   12.2490   -5.4750 N.3    67  LEU67      -0.1245
    118  CA         9.0350   12.4060   -4.0330 C.3    67  LEU67       0.1561
    119  C          8.2220   13.6860   -3.6910 C.2    67  LEU67       0.2260
    120  O          8.6260   14.7860   -4.0980 O.2    67  LEU67      -0.2867
    121  CB        10.4890   12.5560   -3.5580 C.3    67  LEU67       0.0270
    122  CG        11.2300   11.2480   -3.7190 C.3    67  LEU67       0.0019
    123  CD1       12.6530   11.4520   -3.1850 C.3    67  LEU67       0.0001
    124  CD2       10.4820   10.0850   -3.0490 C.3    67  LEU67       0.0001
    125  N          8.8100   17.9920   -2.6410 N.3    70  ARG70      -0.1245
    126  CA        10.1810   18.3230   -2.9920 C.3    70  ARG70       0.1563
    127  C         10.2010   18.4580   -4.4960 C.2    70  ARG70       0.2260
    128  O          9.3860   17.7840   -5.2210 O.2    70  ARG70      -0.2867
    129  CB        11.1100   17.1640   -2.5770 C.3    70  ARG70       0.0307
    130  CG        11.2360   17.0410   -1.0530 C.3    70  ARG70       0.0489
    131  CD        11.5960   15.6480   -0.6230 C.3    70  ARG70       0.2205
    132  NE        10.3830   14.8710   -0.6950 N.pl3  70  ARG70      -0.0865
    133  CZ        10.2160   13.6360   -0.2390 C.cat  70  ARG70       0.5346
    134  NH1       11.1960   12.9450    0.3870 N.pl3  70  ARG70       0.1354
    135  NH2        9.0070   13.1080   -0.3730 N.pl3  70  ARG70       0.1354
    136  N         20.4440   12.4560   -3.0960 N.3   115  VAL115     -0.1245
    137  CA        19.9150   11.2300   -2.5030 C.3   115  VAL115      0.1561
    138  C         20.4450    9.9700   -3.2180 C.2   115  VAL115      0.2260
    139  O         19.9290    8.8720   -2.9690 O.2   115  VAL115     -0.2867
    140  CB        18.4040   11.2570   -2.4760 C.3   115  VAL115      0.0252
    141  CG1       17.9290   12.4680   -1.6410 C.3   115  VAL115      0.0019
    142  CG2       17.8320   11.2760   -3.8810 C.3   115  VAL115      0.0019
    143  N         27.1500   10.7950   -5.2860 N.3   121  TYR121     -0.1241
    144  CA        27.7470   10.9870   -3.9610 C.3   121  TYR121      0.1605
    145  C         29.2310   11.2410   -4.1110 C.2   121  TYR121      0.2264
    146  O         29.7760   12.1270   -3.4430 O.2   121  TYR121     -0.2867
    147  CB        27.6020    9.7150   -3.1030 C.3   121  TYR121      0.0534
    148  CG        26.2110    9.4000   -2.6030 C.ar  121  TYR121     -0.0201
    149  CD1       25.4110   10.3790   -2.0330 C.ar  121  TYR121     -0.0009
    150  CD2       25.7130    8.0870   -2.6540 C.ar  121  TYR121     -0.0009
    151  CE1       24.1430   10.0740   -1.5600 C.ar  121  TYR121      0.0417
    152  CE2       24.4500    7.7970   -2.2010 C.ar  121  TYR121      0.0417
    153  CZ        23.7050    8.7590   -1.6240 C.ar  121  TYR121      0.1957
    154  OH        22.4660    8.4300   -1.1080 O.3   121  TYR121     -0.2866
    155  N         22.8040    7.2260    7.7800 N.3   136  THR136     -0.1218
    156  CA        22.2450    6.1250    8.5990 C.3   136  THR136      0.1862
    157  C         23.1120    4.8540    8.4650 C.2   136  THR136      0.2287
    158  O         23.2630    4.3080    7.3520 O.2   136  THR136     -0.2866
    159  CB        20.8620    5.7340    8.1220 C.3   136  THR136      0.1770
    160  OG1       20.0690    6.9070    7.9900 O.3   136  THR136     -0.2211
    161  CG2       20.2210    4.7020    9.1300 C.3   136  THR136      0.0375
@<TRIPOS>BOND
     1    81    82    1
     2    88    89    1
     3    83    82    1
     4    83    84    2
     5    82    85    1
     6    89    92    1
     7    89    90    1
     8    97    96    2
     9    85    86    1
    10    85    87    1
    11    92    93    1
    12   104   105    2
    13   104   103    1
    14    94    90   am
    15    94    95    1
    16    90    91    2
    17    96    95    1
    18    96   102   am
    19   103   102    1
    20   103   106    1
    21    98    95    1
    22    98    99    1
    23    98   100    1
    24   101    99    1
    25   102   108    1
    26   117   118    1
    27   109   110    1
    28   111   112    2
    29   111   110    1
    30   143   144    1
    31   128   127    2
    32   106   107    1
    33   110   113    1
    34   127   126    1
    35   108   107    1
    36   145   144    1
    37   145   146    2
    38   120   119    2
    39   118   119    1
    40   118   121    1
    41   144   147    1
    42   142   140    1
    43   122   121    1
    44   122   123    1
    45   122   124    1
    46   113   114    1
    47   138   139    2
    48   138   137    1
    49   147   148    1
    50   136   137    1
    51   126   125    1
    52   126   129    1
    53   150   148   ar
    54   150   152   ar
    55   148   149   ar
    56   129   130    1
    57   137   140    1
    58   140   141    1
    59   114   115    2
    60   114   116   am
    61   152   153   ar
    62    21    22    1
    63   149   151   ar
    64   153   151   ar
    65   153   154    1
    66   130   131    1
    67    22    23    1
    68    22    25    1
    69    28    26    1
    70   132   131    1
    71   132   133    2
    72    24    23    2
    73   135   133    1
    74    71    70   ar
    75    71    69   ar
    76   133   134    1
    77    26    25    1
    78    26    27    1
    79    70    68   ar
    80    69    67   ar
    81     4     3    2
    82    15    13    1
    83    46    48   ar
    84    46    44   ar
    85    68    66   ar
    86    48    47   ar
    87     1     2    1
    88     7     5    1
    89    67    66   ar
    90    13    10    1
    91    13    14    1
    92     3     2    1
    93     3     9   am
    94    44    43   ar
    95    66    65    1
    96    10     9    1
    97    10    11    1
    98     2     5    1
    99    47    45   ar
   100    79    78    2
   101    19    18    2
   102     5     6    1
   103    43    45   ar
   104    43    42    1
   105    16    11   am
   106    16    17    1
   107    78    77    1
   108    78    80   am
   109    11    12    2
   110    65    62    1
   111    64    63    2
   112    18    17    1
   113    73    76    1
   114    73    72    1
   115    73    74    1
   116     6     8    1
   117    75    74    2
   118    76    77    1
   119    42    39    1
   120    63    72   am
   121    63    62    1
   122    17    20    1
   123    62    61    1
   124    41    40    2
   125    39    40    1
   126    39    38    1
   127    37    35   ar
   128    61    51   am
   129    38    31   am
   130    35    36   ar
   131    35    34    1
   132    32    31    2
   133    31    30    1
   134    51    52    2
   135    51    50    1
   136   158   157    2
   137   155   156    1
   138    34    33    1
   139    33    30    1
   140   160   159    1
   141   159   156    1
   142   159   161    1
   143    30    29    1
   144    49    50    1
   145   157   156    1
   146    50    53    1
   147    56    58   ar
   148    56    54   ar
   149    58    59   ar
   150    53    54    1
   151    54    55   ar
   152    59    60    1
   153    59    57   ar
   154    55    57   ar
