@<TRIPOS>MOLECULE
tmp/5htbA03.pdb
 81 74 0 0 0
SMALL
GASTEIGER

@<TRIPOS>ATOM
      1  N         24.5360   35.9110   19.6290 N.3    25  PHE25      -0.1241
      2  CA        25.7000   35.6930   20.4770 C.3    25  PHE25       0.1605
      3  C         27.0360   35.6560   19.7950 C.2    25  PHE25       0.2264
      4  O         28.0120   35.2530   20.4180 O.2    25  PHE25      -0.2867
      5  CB        25.5360   34.6100   21.5620 C.3    25  PHE25       0.0534
      6  CG        25.4030   33.1780   21.0570 C.ar   25  PHE25      -0.0203
      7  CD1       26.5270   32.4300   20.6470 C.ar   25  PHE25      -0.0042
      8  CD2       24.1720   32.5460   21.0940 C.ar   25  PHE25      -0.0042
      9  CE1       26.4030   31.0960   20.2330 C.ar   25  PHE25      -0.0003
     10  CE2       24.0460   31.2040   20.6950 C.ar   25  PHE25      -0.0003
     11  CZ        25.1500   30.4890   20.2610 C.ar   25  PHE25      -0.0000
     12  N         26.7790   33.4630   26.9100 N.3    57  LYS57      -0.1245
     13  CA        26.9050   31.9990   27.0980 C.3    57  LYS57       0.1561
     14  C         28.1320   31.6590   27.9760 C.2    57  LYS57       0.2260
     15  O         29.0540   32.4450   28.0780 O.2    57  LYS57      -0.2867
     16  CB        27.0010   31.3050   25.7600 C.3    57  LYS57       0.0271
     17  CG        25.8490   31.5790   24.7940 C.3    57  LYS57       0.0035
     18  CD        24.5270   31.4300   25.4630 C.3    57  LYS57       0.0206
     19  CE        23.4010   31.5770   24.4670 C.3    57  LYS57       0.1093
     20  NZ        22.1160   31.4870   25.1840 N.3    57  LYS57      -0.1314
     21  N         28.3510   25.9600   27.6020 N.3    61  GLU61      -0.1231
     22  CA        27.3180   26.0840   26.5970 C.3    61  GLU61       0.1699
     23  C         27.8520   26.1070   25.1570 C.2    61  GLU61       0.2592
     24  O         27.1240   25.7710   24.2170 O.2    61  GLU61      -0.2718
     25  CB        26.4890   27.3260   26.8390 C.3    61  GLU61       0.0402
     26  CG        25.4560   27.0860   27.9320 C.3    61  GLU61       0.1161
     27  CD        24.7990   28.3480   28.4700 C.2    61  GLU61       0.3649
     28  OE1       25.3930   29.4590   28.4120 O.co2  61  GLU61      -0.2457
     29  OE2       23.6840   28.1790   29.0770 O.co2  61  GLU61      -0.2457
     30  N         29.0870   26.5720   24.9990 N.am   62  ILE62      -0.1980
     31  CA        29.7130   26.6490   23.6860 C.3    62  ILE62       0.1595
     32  C         30.4940   25.3740   23.3500 C.2    62  ILE62       0.2287
     33  O         30.7390   25.1010   22.1750 O.2    62  ILE62      -0.2864
     34  CB        30.6040   27.9120   23.6040 C.3    62  ILE62       0.0276
     35  CG1       29.7500   29.1670   23.8220 C.3    62  ILE62       0.0022
     36  CG2       31.3200   27.9930   22.2640 C.3    62  ILE62       0.0022
     37  CD1       28.5080   29.2960   22.9800 C.3    62  ILE62       0.0001
     38  N         25.2260   24.8270   16.5800 N.3   219  THR219     -0.1203
     39  CA        24.6080   25.1410   17.8770 C.3   219  THR219      0.1994
     40  C         23.4660   24.2300   18.2940 C.2   219  THR219      0.2617
     41  O         23.2680   23.9610   19.4910 O.2   219  THR219     -0.2717
     42  CB        24.1580   26.6220   17.9280 C.3   219  THR219      0.1784
     43  OG1       25.3150   27.4580   17.7530 O.3   219  THR219     -0.2211
     44  CG2       23.5560   26.9620   19.2210 C.3   219  THR219      0.0376
     45  N         22.6640   23.7910   17.3330 N.am  220  LEU220     -0.1979
     46  CA        21.5570   22.9040   17.6900 C.3   220  LEU220      0.1596
     47  C         21.8400   21.4200   17.4200 C.2   220  LEU220      0.2287
     48  O         20.9700   20.5660   17.7040 O.2   220  LEU220     -0.2864
     49  CB        20.3240   23.2720   16.9140 C.3   220  LEU220      0.0297
     50  CG        19.3390   24.2630   17.3960 C.3   220  LEU220      0.0022
     51  CD1       18.0120   24.0350   16.6390 C.3   220  LEU220      0.0001
     52  CD2       19.1070   24.2460   18.9230 C.3   220  LEU220      0.0001
     53  N         22.2310   19.8240   22.1890 N.3   232  CYS232     -0.1235
     54  CA        21.7100   21.0110   22.8070 C.3   232  CYS232      0.1677
     55  C         20.2640   20.7050   23.2590 C.2   232  CYS232      0.2270
     56  O         19.3650   20.4590   22.4080 O.2   232  CYS232     -0.2867
     57  CB        21.7070   22.1660   21.7940 C.3   232  CYS232      0.0956
     58  SG        21.2140   23.6740   22.6110 S.3   232  CYS232     -0.0801
     59  N         16.9310   21.6060   24.0630 N.3   234  VAL234     -0.1245
     60  CA        16.0080   22.7500   23.8660 C.3   234  VAL234      0.1561
     61  C         14.5760   22.4010   24.2840 C.2   234  VAL234      0.2260
     62  O         13.6200   23.0940   23.9000 O.2   234  VAL234     -0.2867
     63  CB        16.0380   23.2720   22.4190 C.3   234  VAL234      0.0252
     64  CG1       17.3650   23.9630   22.1490 C.3   234  VAL234      0.0019
     65  CG2       15.7850   22.1370   21.4080 C.3   234  VAL234      0.0019
     66  N         12.8830   25.3520   25.7530 N.3   237  ASP237     -0.1239
     67  CA        13.0770   26.6300   25.0630 C.3   237  ASP237      0.1674
     68  C         11.7390   27.2960   24.7420 C.2   237  ASP237      0.2266
     69  O         10.8660   26.6930   24.1190 O.2   237  ASP237     -0.2867
     70  CB        13.9060   26.4490   23.7760 C.3   237  ASP237      0.1410
     71  CG        14.3890   27.7910   23.1790 C.2   237  ASP237      0.3668
     72  OD1       13.5580   28.6570   22.7900 O.co2 237  ASP237     -0.2456
     73  OD2       15.6120   27.9780   23.0900 O.co2 237  ASP237     -0.2456
     74  N         11.9980   29.0350   20.4780 N.3   240  LEU240     -0.1245
     75  CA        12.4410   28.2790   19.2760 C.3   240  LEU240      0.1561
     76  C         11.2640   27.7040   18.4690 C.2   240  LEU240      0.2260
     77  O         11.3600   27.5770   17.2540 O.2   240  LEU240     -0.2867
     78  CB        13.3840   27.1400   19.6750 C.3   240  LEU240      0.0270
     79  CG        14.0430   26.3730   18.5370 C.3   240  LEU240      0.0019
     80  CD1       14.8840   27.2850   17.6830 C.3   240  LEU240      0.0001
     81  CD2       14.8900   25.2890   19.1500 C.3   240  LEU240      0.0001
@<TRIPOS>BOND
     1    38    39    1
     2    51    50    1
     3    49    50    1
     4    49    46    1
     5    77    76    2
     6    45    46    1
     7    45    40   am
     8    50    52    1
     9    47    46    1
    10    47    48    2
    11    80    79    1
    12    43    42    1
    13    39    42    1
    14    39    40    1
    15    42    44    1
    16    40    41    2
    17    76    75    1
    18    79    81    1
    19    79    78    1
    20    75    78    1
    21    75    74    1
    22     1     2    1
    23     3     4    2
    24     3     2    1
    25     9    11   ar
    26     9     7   ar
    27    11    10   ar
    28     2     5    1
    29     7     6   ar
    30    10     8   ar
    31     6     8   ar
    32     6     5    1
    33    65    63    1
    34    57    58    1
    35    57    54    1
    36    64    63    1
    37    33    32    2
    38    53    54    1
    39    36    34    1
    40    56    55    2
    41    63    60    1
    42    72    71   ar
    43    54    55    1
    44    37    35    1
    45    73    71   ar
    46    71    70    1
    47    32    31    1
    48    34    31    1
    49    34    35    1
    50    31    30    1
    51    70    67    1
    52    60    59    1
    53    60    61    1
    54    62    61    2
    55    69    68    2
    56    24    23    2
    57    19    20    1
    58    19    18    1
    59    68    67    1
    60    17    18    1
    61    17    16    1
    62    30    23   am
    63    67    66    1
    64    23    22    1
    65    16    13    1
    66    22    25    1
    67    22    21    1
    68    25    26    1
    69    12    13    1
    70    13    14    1
    71    26    27    1
    72    14    15    2
    73    28    27   ar
    74    27    29   ar
