@<TRIPOS>MOLECULE
tmp/5htbA02.pdb
 199 188 0 0 0
SMALL
GASTEIGER

@<TRIPOS>ATOM
      1  N         31.2510   39.5210    7.9930 N.3    20  ILE20      -0.1231
      2  CA        30.3920   38.7610    7.0940 C.3    20  ILE20       0.1692
      3  C         29.1170   38.1930    7.6780 C.2    20  ILE20       0.2593
      4  O         28.3180   37.5710    6.9510 O.2    20  ILE20      -0.2718
      5  CB        31.2060   37.6570    6.3820 C.3    20  ILE20       0.0266
      6  CG1       31.7610   36.5970    7.3390 C.3    20  ILE20       0.0019
      7  CG2       32.2980   38.3070    5.5460 C.3    20  ILE20       0.0020
      8  CD1       32.4670   35.4270    6.6620 C.3    20  ILE20       0.0001
      9  N         28.9440   38.2430    8.9850 N.am   21  GLY21      -0.1942
     10  CA        27.7820   37.6140    9.5590 C.3    21  GLY21       0.2014
     11  C         27.6340   37.9750   11.0320 C.2    21  GLY21       0.2639
     12  O         28.6080   38.4380   11.6620 O.2    21  GLY21      -0.2714
     13  N         26.4440   37.7280   11.5820 N.am   22  GLU22      -0.1963
     14  CA        26.1860   37.9790   12.9900 C.3    22  GLU22       0.1733
     15  C         25.0090   37.1670   13.4710 C.2    22  GLU22       0.2617
     16  O         24.1770   36.7010   12.6680 O.2    22  GLU22      -0.2715
     17  CB        25.8990   39.4700   13.2550 C.3    22  GLU22       0.0429
     18  CG        24.6310   39.9820   12.5120 C.3    22  GLU22       0.1163
     19  CD        24.2580   41.4020   12.8140 C.2    22  GLU22       0.3649
     20  OE1       25.1290   42.3130   12.7660 O.co2  22  GLU22      -0.2457
     21  OE2       23.0360   41.6190   13.1070 O.co2  22  GLU22      -0.2457
     22  N         24.9300   37.0060   14.7860 N.am   23  GLY23      -0.1940
     23  CA        23.7690   36.4330   15.4480 C.3    23  GLY23       0.2014
     24  C         23.7060   37.0020   16.8480 C.2    23  GLY23       0.2639
     25  O         24.5930   37.7690   17.2490 O.2    23  GLY23      -0.2714
     26  N         22.6830   36.5890   17.5980 N.am   24  VAL24      -0.1963
     27  CA        22.4870   37.0230   19.0080 C.3    24  VAL24       0.1727
     28  C         23.7560   36.9570   19.8350 C.2    24  VAL24       0.2616
     29  O         24.0420   37.8770   20.6320 O.2    24  VAL24      -0.2715
     30  CB        21.4130   36.1530   19.6670 C.3    24  VAL24       0.0290
     31  CG1       21.3350   36.3800   21.1960 C.3    24  VAL24       0.0023
     32  CG2       20.0940   36.4350   18.9910 C.3    24  VAL24       0.0023
     33  N         24.5360   35.9110   19.6290 N.am   25  PHE25      -0.1960
     34  CA        25.7000   35.6930   20.4770 C.3    25  PHE25       0.1774
     35  C         27.0360   35.6560   19.7950 C.2    25  PHE25       0.2659
     36  O         28.0120   35.2530   20.4180 O.2    25  PHE25      -0.2711
     37  CB        25.5360   34.6100   21.5620 C.3    25  PHE25       0.0574
     38  CG        25.4030   33.1780   21.0570 C.ar   25  PHE25      -0.0200
     39  CD1       26.5270   32.4300   20.6470 C.ar   25  PHE25      -0.0042
     40  CD2       24.1720   32.5460   21.0940 C.ar   25  PHE25      -0.0042
     41  CE1       26.4030   31.0960   20.2330 C.ar   25  PHE25      -0.0003
     42  CE2       24.0460   31.2040   20.6950 C.ar   25  PHE25      -0.0003
     43  CZ        25.1500   30.4890   20.2610 C.ar   25  PHE25      -0.0000
     44  N         27.1180   36.2080   18.6130 N.am   26  GLY26      -0.1730
     45  CA        28.4120   36.1670   17.9050 C.2    26  GLY26       0.1340
     46  C         28.5200   37.0440   16.6920 C.2    26  GLY26       0.2521
     47  O         27.5120   37.5410   16.1610 O.2    26  GLY26      -0.2816
     48  N         30.8940   37.1900   12.9640 N.3    28  VAL28      -0.1245
     49  CA        31.7570   36.4340   12.0500 C.3    28  VAL28       0.1561
     50  C         32.4730   37.3830   11.0780 C.2    28  VAL28       0.2260
     51  O         31.8100   38.2670   10.4420 O.2    28  VAL28      -0.2867
     52  CB        30.9670   35.4050   11.2250 C.3    28  VAL28       0.0252
     53  CG1       31.8890   34.5140   10.3970 C.3    28  VAL28       0.0019
     54  CG2       30.0510   34.5220   12.1140 C.3    28  VAL28       0.0019
     55  N         37.4320   32.2900    7.9310 N.3    39  ALA39      -0.1245
     56  CA        36.2950   32.9060    8.6640 C.3    39  ALA39       0.1562
     57  C         36.5260   32.7440   10.1490 C.2    39  ALA39       0.2260
     58  O         37.0120   31.6810   10.6100 O.2    39  ALA39      -0.2867
     59  CB        35.0090   32.3330    8.2380 C.3    39  ALA39       0.0290
     60  N         34.8180   33.2850   13.9330 N.3    41  LYS41      -0.1245
     61  CA        33.5980   33.4450   14.6790 C.3    41  LYS41       0.1561
     62  C         33.9780   33.7700   16.1210 C.2    41  LYS41       0.2260
     63  O         34.7900   33.0720   16.7450 O.2    41  LYS41      -0.2867
     64  CB        32.8000   32.1580   14.6400 C.3    41  LYS41       0.0271
     65  CG        31.4670   32.2390   15.3590 C.3    41  LYS41       0.0035
     66  CD        30.7410   30.9340   15.0720 C.3    41  LYS41       0.0206
     67  CE        29.3800   30.9220   15.6920 C.3    41  LYS41       0.1093
     68  NZ        28.7280   29.6100   15.3720 N.3    41  LYS41      -0.1314
     69  N         32.7680   34.7420   19.9970 N.3    43  ILE43      -0.1245
     70  CA        31.6630   34.6570   20.9770 C.3    43  ILE43       0.1561
     71  C         32.1580   35.0950   22.3490 C.2    43  ILE43       0.2260
     72  O         33.0870   34.5120   22.8650 O.2    43  ILE43      -0.2867
     73  CB        31.1740   33.1930   21.0650 C.3    43  ILE43       0.0252
     74  CG1       30.6480   32.7360   19.6820 C.3    43  ILE43       0.0019
     75  CG2       30.1000   33.0540   22.1450 C.3    43  ILE43       0.0019
     76  CD1       30.4230   31.2380   19.5940 C.3    43  ILE43       0.0001
     77  N         32.2790   22.1950    7.1090 N.3    87  ILE87      -0.1245
     78  CA        33.3240   23.2340    7.0660 C.3    87  ILE87       0.1561
     79  C         34.5920   22.8290    7.8200 C.2    87  ILE87       0.2260
     80  O         34.5270   22.2040    8.8950 O.2    87  ILE87      -0.2867
     81  CB        32.7170   24.5600    7.6150 C.3    87  ILE87       0.0252
     82  CG1       33.5540   25.7820    7.2620 C.3    87  ILE87       0.0019
     83  CG2       32.4540   24.4970    9.0860 C.3    87  ILE87       0.0019
     84  CD1       33.5920   26.1000    5.7940 C.3    87  ILE87       0.0001
     85  N         37.6810   29.0420   10.9320 N.3   135  PHE135     -0.1227
     86  CA        37.2400   28.0410    9.9580 C.3   135  PHE135      0.1736
     87  C         37.7810   28.3280    8.5830 C.2   135  PHE135      0.2595
     88  O         38.1360   29.4640    8.2250 O.2   135  PHE135     -0.2718
     89  CB        35.7360   28.1020    9.7980 C.3   135  PHE135      0.0547
     90  CG        34.9530   27.7770   11.0240 C.ar  135  PHE135     -0.0202
     91  CD1       34.5680   26.4660   11.2840 C.ar  135  PHE135     -0.0042
     92  CD2       34.5650   28.7660   11.9040 C.ar  135  PHE135     -0.0042
     93  CE1       33.8180   26.1210   12.4070 C.ar  135  PHE135     -0.0003
     94  CE2       33.7440   28.4270   12.9890 C.ar  135  PHE135     -0.0003
     95  CZ        33.4210   27.1190   13.2620 C.ar  135  PHE135     -0.0000
     96  N         37.8430   27.2710    7.7670 N.am  136  GLU136     -0.1965
     97  CA        37.9150   27.4190    6.3390 C.3   136  GLU136      0.1733
     98  C         36.8600   28.4540    5.8820 C.2   136  GLU136      0.2616
     99  O         35.7650   28.4820    6.4080 O.2   136  GLU136     -0.2715
    100  CB        37.5450   26.0510    5.7280 C.3   136  GLU136      0.0429
    101  CG        37.4030   26.0040    4.2220 C.3   136  GLU136      0.1163
    102  CD        36.8860   24.6470    3.7380 C.2   136  GLU136      0.3649
    103  OE1       36.7540   24.5330    2.4880 O.co2 136  GLU136     -0.2457
    104  OE2       36.5400   23.7250    4.5500 O.co2 136  GLU136     -0.2457
    105  N         37.2140   29.2680    4.9130 N.am  137  PHE137     -0.1960
    106  CA        36.2040   30.1650    4.2690 C.3   137  PHE137      0.1771
    107  C         35.4430   29.3040    3.2860 C.2   137  PHE137      0.2620
    108  O         36.0430   28.7200    2.3660 O.2   137  PHE137     -0.2715
    109  CB        36.8600   31.3300    3.5630 C.3   137  PHE137      0.0574
    110  CG        35.8820   32.2560    2.9200 C.ar  137  PHE137     -0.0200
    111  CD1       35.1800   33.1550    3.6910 C.ar  137  PHE137     -0.0042
    112  CD2       35.6970   32.2400    1.5550 C.ar  137  PHE137     -0.0042
    113  CE1       34.2330   34.0240    3.0960 C.ar  137  PHE137     -0.0003
    114  CE2       34.7780   33.0910    0.9610 C.ar  137  PHE137     -0.0003
    115  CZ        34.0280   33.9540    1.7430 C.ar  137  PHE137     -0.0000
    116  N         34.1520   29.1840    3.5370 N.am  138  GLY138     -0.1940
    117  CA        33.2760   28.2610    2.8470 C.3   138  GLY138      0.2014
    118  C         32.5290   28.8250    1.6660 C.2   138  GLY138      0.2639
    119  O         31.8890   28.0500    0.9760 O.2   138  GLY138     -0.2714
    120  N         32.7190   30.1070    1.3700 N.am  139  GLY139     -0.1954
    121  CA        32.0150   30.8080    0.2710 C.3   139  GLY139      0.1869
    122  C         30.8640   31.6140    0.8260 C.2   139  GLY139      0.2309
    123  O         30.9530   32.1870    1.9080 O.2   139  GLY139     -0.2863
    124  N         26.6570   32.1300    1.6350 N.3   141  ASP141     -0.1239
    125  CA        25.4890   31.3470    1.9920 C.3   141  ASP141      0.1674
    126  C         24.4180   31.2980    0.8900 C.2   141  ASP141      0.2266
    127  O         24.3140   32.1710    0.0630 O.2   141  ASP141     -0.2867
    128  CB        24.9060   31.7470    3.3680 C.3   141  ASP141      0.1410
    129  CG        24.4140   33.1130    3.4060 C.2   141  ASP141      0.3668
    130  OD1       23.2460   33.2980    2.9880 O.co2 141  ASP141     -0.2456
    131  OD2       25.1430   34.0760    3.8360 O.co2 141  ASP141     -0.2456
    132  N         22.0760   34.2340    0.5120 N.3   144  GLN144     -0.1245
    133  CA        22.6650   35.3490   -0.2270 C.3   144  GLN144      0.1566
    134  C         22.9090   35.0680   -1.6850 C.2   144  GLN144      0.2260
    135  O         23.1090   35.9940   -2.4810 O.2   144  GLN144     -0.2867
    136  CB        23.9610   35.8610    0.4180 C.3   144  GLN144      0.0367
    137  CG        23.6970   36.5310    1.7230 C.3   144  GLN144      0.0905
    138  CD        24.8990   37.2550    2.2750 C.2   144  GLN144      0.2608
    139  OE1       25.2590   38.3300    1.7880 O.2   144  GLN144     -0.2717
    140  NE2       25.4910   36.7140    3.2960 N.am  144  GLN144     -0.0878
    141  N         19.4200   22.4970   12.3970 N.3   179  ASP179     -0.1239
    142  CA        19.2430   23.9030   12.0590 C.3   179  ASP179      0.1674
    143  C         19.7500   24.2910   10.6720 C.2   179  ASP179      0.2266
    144  O         20.4440   25.2890   10.4880 O.2   179  ASP179     -0.2867
    145  CB        19.8470   24.8080   13.1400 C.3   179  ASP179      0.1410
    146  CG        19.3860   26.2550   13.0170 C.2   179  ASP179      0.3668
    147  OD1       18.2800   26.5230   12.5230 O.co2 179  ASP179     -0.2456
    148  OD2       20.1570   27.1540   13.3740 O.co2 179  ASP179     -0.2456
    149  N         20.8310   29.9670    5.4890 N.3   183  GLY183     -0.1210
    150  CA        22.0130   30.7380    5.8760 C.3   183  GLY183      0.1956
    151  C         23.1680   29.8760    6.3680 C.2   183  GLY183      0.2611
    152  O         24.2700   30.3940    6.5530 O.2   183  GLY183     -0.2717
    153  N         22.9040   28.5810    6.6310 N.am  184  ASN184     -0.1974
    154  CA        23.9060   27.6400    7.1520 C.3   184  ASN184      0.1688
    155  C         24.4180   26.6530    6.0680 C.2   184  ASN184      0.2292
    156  O         25.0630   25.6600    6.4100 O.2   184  ASN184     -0.2864
    157  CB        23.3430   26.9020    8.3580 C.3   184  ASN184      0.1181
    158  CG        23.2440   27.7870    9.5960 C.2   184  ASN184      0.2629
    159  OD1       23.8920   28.8240    9.6680 O.2   184  ASN184     -0.2716
    160  ND2       22.4460   27.3760   10.5750 N.am  184  ASN184     -0.0877
    161  N         26.7900   26.9120    2.7200 N.3   186  LEU186     -0.1245
    162  CA        27.6710   27.7780    1.9510 C.3   186  LEU186      0.1561
    163  C         28.0900   27.1910    0.6040 C.2   186  LEU186      0.2260
    164  O         28.2980   25.9600    0.4660 O.2   186  LEU186     -0.2867
    165  CB        28.9450   28.0560    2.7460 C.3   186  LEU186      0.0270
    166  CG        28.7820   28.5550    4.1770 C.3   186  LEU186      0.0019
    167  CD1       30.1500   28.9170    4.7590 C.3   186  LEU186      0.0001
    168  CD2       27.8680   29.7570    4.2300 C.3   186  LEU186      0.0001
    169  N         27.6020   24.5550    7.7210 N.3   216  ILE216     -0.1231
    170  CA        28.0920   25.1870    8.9280 C.3   216  ILE216      0.1692
    171  C         27.0720   25.1880   10.0720 C.2   216  ILE216      0.2592
    172  O         25.8850   24.8620    9.8700 O.2   216  ILE216     -0.2718
    173  CB        28.5130   26.6740    8.6300 C.3   216  ILE216      0.0266
    174  CG1       27.3090   27.4970    8.1520 C.3   216  ILE216      0.0019
    175  CG2       29.6520   26.7420    7.6180 C.3   216  ILE216      0.0020
    176  CD1       27.5450   28.9930    8.1860 C.3   216  ILE216      0.0001
    177  N         27.5510   25.6250   11.2650 N.am  217  ASP217     -0.1974
    178  CA        26.7230   26.0780   12.4170 C.3   217  ASP217      0.1709
    179  C         26.0700   24.9590   13.1850 C.2   217  ASP217      0.2293
    180  O         24.9960   24.4600   12.7990 O.2   217  ASP217     -0.2864
    181  CB        25.6950   27.1060   12.0490 C.3   217  ASP217      0.1436
    182  CG        25.1830   27.8250   13.2650 C.2   217  ASP217      0.3671
    183  OD1       24.9230   27.1540   14.2870 O.co2 217  ASP217     -0.2456
    184  OD2       25.1200   29.0680   13.2420 O.co2 217  ASP217     -0.2456
    185  N         25.2260   24.8270   16.5800 N.3   219  THR219     -0.1203
    186  CA        24.6080   25.1410   17.8770 C.3   219  THR219      0.1994
    187  C         23.4660   24.2300   18.2940 C.2   219  THR219      0.2617
    188  O         23.2680   23.9610   19.4910 O.2   219  THR219     -0.2717
    189  CB        24.1580   26.6220   17.9280 C.3   219  THR219      0.1784
    190  OG1       25.3150   27.4580   17.7530 O.3   219  THR219     -0.2211
    191  CG2       23.5560   26.9620   19.2210 C.3   219  THR219      0.0376
    192  N         22.6640   23.7910   17.3330 N.am  220  LEU220     -0.1979
    193  CA        21.5570   22.9040   17.6900 C.3   220  LEU220      0.1596
    194  C         21.8400   21.4200   17.4200 C.2   220  LEU220      0.2287
    195  O         20.9700   20.5660   17.7040 O.2   220  LEU220     -0.2864
    196  CB        20.3240   23.2720   16.9140 C.3   220  LEU220      0.0297
    197  CG        19.3390   24.2630   17.3960 C.3   220  LEU220      0.0022
    198  CD1       18.0120   24.0350   16.6390 C.3   220  LEU220      0.0001
    199  CD2       19.1070   24.2460   18.9230 C.3   220  LEU220      0.0001
@<TRIPOS>BOND
     1   135   134    2
     2   134   133    1
     3   133   136    1
     4   133   132    1
     5   127   126    2
     6   121   122    1
     7   121   120    1
     8   136   137    1
     9   164   163    2
    10   163   162    1
    11   122   123    2
    12   126   125    1
    13   114   112   ar
    14   114   115   ar
    15   119   118    2
    16   120   118   am
    17   112   110   ar
    18   124   125    1
    19   118   117    1
    20   137   138    1
    21   115   113   ar
    22   139   138    2
    23   162   161    1
    24   162   165    1
    25   125   128    1
    26   138   140   am
    27   108   107    2
    28   103   102   ar
    29   165   166    1
    30   117   116    1
    31   110   109    1
    32   110   111   ar
    33   130   129   ar
    34   113   111   ar
    35   107   116   am
    36   107   106    1
    37   128   129    1
    38   129   131   ar
    39   109   106    1
    40   102   101    1
    41   102   104   ar
    42   166   168    1
    43   166   167    1
    44   101   100    1
    45   106   105    1
    46   105    98   am
    47   149   150    1
    48     7     5    1
    49   100    97    1
    50    84    82    1
    51   150   151    1
    52    98    97    1
    53    98    99    2
    54   155   156    2
    55   155   154    1
    56    97    96    1
    57   151   152    2
    58   151   153   am
    59     5     2    1
    60     5     6    1
    61   153   154    1
    62     8     6    1
    63     4     3    2
    64    78    77    1
    65    78    81    1
    66    78    79    1
    67     2     3    1
    68     2     1    1
    69   154   157    1
    70    82    81    1
    71    81    83    1
    72   175   173    1
    73     3     9   am
    74   169   170    1
    75    96    87   am
    76    79    80    2
    77    55    56    1
    78   174   176    1
    79   174   173    1
    80    88    87    2
    81    59    56    1
    82   157   158    1
    83    87    86    1
    84   173   170    1
    85    56    57    1
    86   170   171    1
    87     9    10    1
    88    10    11    1
    89   158   159    2
    90   158   160   am
    91    89    86    1
    92    89    90    1
    93   172   171    2
    94    86    85    1
    95   171   177   am
    96    57    58    2
    97    53    52    1
    98    51    50    2
    99   144   143    2
   100   143   142    1
   101    90    91   ar
   102    90    92   ar
   103    11    13   am
   104    11    12    2
   105    50    49    1
   106    52    49    1
   107    52    54    1
   108   177   178    1
   109    91    93   ar
   110    13    14    1
   111    92    94   ar
   112   181   178    1
   113   181   182    1
   114    49    48    1
   115   142   141    1
   116   142   145    1
   117    93    95   ar
   118   178   179    1
   119    18    19    1
   120    18    17    1
   121   147   146   ar
   122    16    15    2
   123    20    19   ar
   124   180   179    2
   125    19    21   ar
   126    94    95   ar
   127    14    17    1
   128    14    15    1
   129   146   145    1
   130   146   148   ar
   131   184   182   ar
   132   182   183   ar
   133    15    22   am
   134    60    61    1
   135    64    61    1
   136    64    65    1
   137    61    62    1
   138    22    23    1
   139    66    65    1
   140    66    67    1
   141    68    67    1
   142    23    24    1
   143    62    63    2
   144    47    46    2
   145   185   186    1
   146   198   197    1
   147    46    45    1
   148    24    25    2
   149    24    26   am
   150   196   197    1
   151   196   193    1
   152   192   193    1
   153   192   187   am
   154   197   199    1
   155   194   193    1
   156   194   195    2
   157    26    27    1
   158   190   189    1
   159   186   189    1
   160   186   187    1
   161    45    44    2
   162   189   191    1
   163   187   188    2
   164    44    35    1
   165    32    30    1
   166    27    30    1
   167    27    28    1
   168    76    74    1
   169    33    28   am
   170    33    34    1
   171    30    31    1
   172    74    73    1
   173    35    36    2
   174    35    34    1
   175    28    29    2
   176    69    70    1
   177    41    43   ar
   178    41    39   ar
   179    43    42   ar
   180    34    37    1
   181    39    38   ar
   182    42    40   ar
   183    70    73    1
   184    70    71    1
   185    38    40   ar
   186    38    37    1
   187    73    75    1
   188    71    72    2
