@<TRIPOS>MOLECULE
tmp/5htfA00.pdb
 89 84 0 0 0
SMALL
GASTEIGER

@<TRIPOS>ATOM
      1  N         -1.4540   -4.7230  -32.6540 N.3   122  HIS122     -0.1241
      2  CA        -0.3870   -5.1010  -33.5580 C.3   122  HIS122      0.1621
      3  C         -0.5040   -6.5520  -33.9990 C.2   122  HIS122      0.2264
      4  O         -1.2150   -7.3450  -33.3850 O.2   122  HIS122     -0.2867
      5  CB         0.9580   -4.8780  -32.8780 C.3   122  HIS122      0.0745
      6  CG         1.3930   -6.0310  -32.0400 C.ar  122  HIS122      0.0817
      7  ND1        2.4500   -6.8420  -32.4000 N.ar  122  HIS122     -0.2268
      8  CD2        0.8950   -6.5550  -30.8960 C.ar  122  HIS122      0.1154
      9  CE1        2.6000   -7.7890  -31.4990 C.ar  122  HIS122      0.1986
     10  NE2        1.6670   -7.6380  -30.5710 N.ar  122  HIS122     -0.2212
     11  N          2.1530   -9.7270  -35.1140 N.3   124  LEU124     -0.1245
     12  CA         3.5510  -10.1480  -35.1290 C.3   124  LEU124      0.1561
     13  C          3.7200  -11.3890  -35.9920 C.2   124  LEU124      0.2260
     14  O          3.0060  -12.3740  -35.8150 O.2   124  LEU124     -0.2867
     15  CB         4.0400  -10.4190  -33.7030 C.3   124  LEU124      0.0270
     16  CG         5.4840  -10.9090  -33.5640 C.3   124  LEU124      0.0019
     17  CD1        6.4660   -9.8800  -34.1000 C.3   124  LEU124      0.0001
     18  CD2        5.7930  -11.2400  -32.1110 C.3   124  LEU124      0.0001
     19  N          1.9040  -13.4930  -31.5620 N.3   154  ASP154     -0.1239
     20  CA         1.9040  -12.9510  -30.2080 C.3   154  ASP154      0.1674
     21  C          0.7070  -13.5260  -29.4660 C.2   154  ASP154      0.2266
     22  O         -0.3880  -12.9660  -29.4920 O.2   154  ASP154     -0.2867
     23  CB         1.8510  -11.4210  -30.2260 C.3   154  ASP154      0.1410
     24  CG         1.9010  -10.8160  -28.8310 C.2   154  ASP154      0.3668
     25  OD1        2.1230  -11.5640  -27.8540 O.co2 154  ASP154     -0.2456
     26  OD2        1.7140   -9.5880  -28.7110 O.co2 154  ASP154     -0.2456
     27  N         -2.8540   -4.2450  -27.3960 N.3   164  LEU164     -0.1245
     28  CA        -1.8610   -4.0910  -26.3370 C.3   164  LEU164      0.1561
     29  C         -2.3550   -3.1210  -25.2710 C.2   164  LEU164      0.2260
     30  O         -3.2470   -2.3080  -25.5260 O.2   164  LEU164     -0.2867
     31  CB        -0.5330   -3.5880  -26.9130 C.3   164  LEU164      0.0270
     32  CG         0.3180   -4.5610  -27.7280 C.3   164  LEU164      0.0019
     33  CD1        1.3830   -3.8160  -28.5250 C.3   164  LEU164      0.0001
     34  CD2        0.9800   -5.5390  -26.7850 C.3   164  LEU164      0.0001
     35  N          8.7450    0.2610  -24.5250 N.3   172  MET172     -0.1230
     36  CA         8.7430   -0.7580  -25.5760 C.3   172  MET172      0.1702
     37  C          9.9910   -0.6650  -26.4420 C.2   172  MET172      0.2592
     38  O         10.7980    0.2540  -26.2930 O.2   172  MET172     -0.2718
     39  CB         7.5280   -0.5940  -26.4990 C.3   172  MET172      0.0401
     40  CG         6.1500   -0.7020  -25.8640 C.3   172  MET172      0.0596
     41  SD         5.5290   -2.3670  -25.5850 S.3   172  MET172     -0.1393
     42  CE         5.3400   -2.3430  -23.8060 C.3   172  MET172      0.0692
     43  N         10.1480   -1.6410  -27.3330 N.am  173  ASP173     -0.1974
     44  CA        11.1970   -1.6090  -28.3440 C.3   173  ASP173      0.1709
     45  C         11.1460   -0.2550  -29.0410 C.2   173  ASP173      0.2293
     46  O         10.0700    0.1970  -29.4350 O.2   173  ASP173     -0.2864
     47  CB        11.0040   -2.7420  -29.3560 C.3   173  ASP173      0.1436
     48  CG        12.1010   -2.7910  -30.4010 C.2   173  ASP173      0.3671
     49  OD1       12.0500   -1.9850  -31.3540 O.co2 173  ASP173     -0.2456
     50  OD2       13.0070   -3.6420  -30.2790 O.co2 173  ASP173     -0.2456
     51  N          9.4970   -0.0610  -32.4240 N.3   176  PHE176     -0.1241
     52  CA         8.0570   -0.2330  -32.2720 C.3   176  PHE176      0.1605
     53  C          7.4360    1.0890  -31.8320 C.2   176  PHE176      0.2264
     54  O          6.4190    1.5250  -32.3730 O.2   176  PHE176     -0.2867
     55  CB         7.7290   -1.3330  -31.2610 C.3   176  PHE176      0.0534
     56  CG         6.2750   -1.7200  -31.2420 C.ar  176  PHE176     -0.0203
     57  CD1        5.8030   -2.7150  -32.0830 C.ar  176  PHE176     -0.0042
     58  CD2        5.3810   -1.0900  -30.3910 C.ar  176  PHE176     -0.0042
     59  CE1        4.4690   -3.0780  -32.0740 C.ar  176  PHE176     -0.0003
     60  CE2        4.0420   -1.4490  -30.3800 C.ar  176  PHE176     -0.0003
     61  CZ         3.5870   -2.4420  -31.2240 C.ar  176  PHE176     -0.0000
     62  N         11.2420   -5.2430  -35.3210 N.3   195  SER195     -0.1217
     63  CA        11.7290   -5.2100  -33.9460 C.3   195  SER195      0.1889
     64  C         12.6210   -6.4180  -33.6790 C.2   195  SER195      0.2288
     65  O         12.8680   -7.2300  -34.5700 O.2   195  SER195     -0.2866
     66  CB        10.5600   -5.1810  -32.9550 C.3   195  SER195      0.2089
     67  OG        10.0260   -6.4790  -32.7240 O.3   195  SER195     -0.2183
     68  N         11.7650   -8.8550  -31.9470 N.3   197  TYR197     -0.1241
     69  CA        10.8650  -10.0050  -31.9140 C.3   197  TYR197      0.1605
     70  C         10.4930  -10.5200  -33.2980 C.2   197  TYR197      0.2264
     71  O         10.2540  -11.7130  -33.4760 O.2   197  TYR197     -0.2867
     72  CB         9.5920   -9.6360  -31.1560 C.3   197  TYR197      0.0534
     73  CG         9.8280   -9.2920  -29.7070 C.ar  197  TYR197     -0.0201
     74  CD1        9.7790  -10.2730  -28.7270 C.ar  197  TYR197     -0.0009
     75  CD2       10.1340   -7.9950  -29.3210 C.ar  197  TYR197     -0.0009
     76  CE1        9.9990   -9.9680  -27.4010 C.ar  197  TYR197      0.0417
     77  CE2       10.3560   -7.6790  -27.9970 C.ar  197  TYR197      0.0417
     78  CZ        10.2890   -8.6700  -27.0400 C.ar  197  TYR197      0.1957
     79  OH        10.5130   -8.3620  -25.7170 O.3   197  TYR197     -0.2866
     80  N          6.2550   -6.3750  -37.4910 N.3   200  HIS200     -0.1241
     81  CA         4.9390   -5.9430  -37.0220 C.3   200  HIS200      0.1621
     82  C          4.1750   -5.1010  -38.0270 C.2   200  HIS200      0.2264
     83  O          4.7560   -4.4360  -38.8850 O.2   200  HIS200     -0.2867
     84  CB         5.0540   -5.1250  -35.7330 C.3   200  HIS200      0.0745
     85  CG         5.8930   -5.7530  -34.6690 C.ar  200  HIS200      0.0817
     86  ND1        5.3950   -6.1450  -33.4670 N.ar  200  HIS200     -0.2268
     87  CD2        7.2390   -6.0290  -34.6350 C.ar  200  HIS200      0.1154
     88  CE1        6.3660   -6.6510  -32.7090 C.ar  200  HIS200      0.1986
     89  NE2        7.4840   -6.5820  -33.4160 N.ar  200  HIS200     -0.2212
@<TRIPOS>BOND
     1    83    82    2
     2    82    81    1
     3    80    81    1
     4    81    84    1
     5    13    14    2
     6    13    12    1
     7    84    85    1
     8    62    63    1
     9    12    11    1
    10    12    15    1
    11    85    87   ar
    12    85    86   ar
    13    87    89   ar
    14    65    64    2
    15    17    16    1
    16     3     2    1
    17     3     4    2
    18    63    64    1
    19    63    66    1
    20    15    16    1
    21    16    18    1
    22     2     5    1
    23     2     1    1
    24    71    70    2
    25    86    88   ar
    26    89    88   ar
    27    70    69    1
    28    66    67    1
    29     5     6    1
    30    51    52    1
    31     7     6   ar
    32     7     9   ar
    33    54    53    2
    34    52    53    1
    35    52    55    1
    36    57    59   ar
    37    57    56   ar
    38    59    61   ar
    39     6     8   ar
    40    68    69    1
    41    69    72    1
    42    19    20    1
    43     9    10   ar
    44    49    48   ar
    45    55    56    1
    46    56    58   ar
    47    61    60   ar
    48    72    73    1
    49     8    10   ar
    50    48    50   ar
    51    48    47    1
    52    58    60   ar
    53    23    20    1
    54    23    24    1
    55    20    21    1
    56    73    75   ar
    57    73    74   ar
    58    22    21    2
    59    46    45    2
    60    47    44    1
    61    75    77   ar
    62    45    44    1
    63    24    26   ar
    64    24    25   ar
    65    74    76   ar
    66    33    32    1
    67    44    43    1
    68    77    78   ar
    69    32    31    1
    70    32    34    1
    71    76    78   ar
    72    27    28    1
    73    43    37   am
    74    78    79    1
    75    31    28    1
    76    39    40    1
    77    39    36    1
    78    37    38    2
    79    37    36    1
    80    28    29    1
    81    40    41    1
    82    41    42    1
    83    36    35    1
    84    30    29    2
