@<TRIPOS>MOLECULE
tmp/5htkA02.pdb
 186 175 0 0 0
SMALL
GASTEIGER

@<TRIPOS>ATOM
      1  N         28.3710   72.4940   45.3410 N.3   226  ARG226     -0.1245
      2  CA        27.6640   71.2890   45.0150 C.3   226  ARG226      0.1563
      3  C         26.5820   71.0060   46.0050 C.2   226  ARG226      0.2260
      4  O         26.5730   71.5710   47.1060 O.2   226  ARG226     -0.2867
      5  CB        28.6130   70.1370   44.9430 C.3   226  ARG226      0.0307
      6  CG        29.5360   70.2420   43.7100 C.3   226  ARG226      0.0489
      7  CD        30.7670   69.3490   43.8020 C.3   226  ARG226      0.2205
      8  NE        30.4410   67.9350   43.7080 N.pl3 226  ARG226     -0.0865
      9  CZ        31.2990   66.9580   43.9310 C.cat 226  ARG226      0.5346
     10  NH1       32.5260   67.2500   44.3220 N.pl3 226  ARG226      0.1354
     11  NH2       30.9170   65.6990   43.8120 N.pl3 226  ARG226      0.1354
     12  N         27.6400   59.4050   46.2500 N.3   232  ASN232     -0.1240
     13  CA        29.0090   59.8360   46.5070 C.3   232  ASN232      0.1653
     14  C         29.7060   58.8730   47.4840 C.2   232  ASN232      0.2266
     15  O         30.8670   58.4930   47.2790 O.2   232  ASN232     -0.2867
     16  CB        29.0890   61.2600   47.0730 C.3   232  ASN232      0.1155
     17  CG        28.5970   62.3480   46.1530 C.2   232  ASN232      0.2627
     18  OD1       28.0540   63.3530   46.6510 O.2   232  ASN232     -0.2716
     19  ND2       28.7430   62.1760   44.8280 N.am  232  ASN232     -0.0877
     20  N         30.7790   55.8610   45.7310 N.3   235  GLY235     -0.1210
     21  CA        31.6410   55.9910   44.5670 C.3   235  GLY235      0.1956
     22  C         30.9380   55.8220   43.2270 C.2   235  GLY235      0.2612
     23  O         31.5980   55.5930   42.2120 O.2   235  GLY235     -0.2717
     24  N         29.6200   55.9360   43.2050 N.am  236  LYS236     -0.1965
     25  CA        28.8350   55.7700   41.9950 C.3   236  LYS236      0.1728
     26  C         28.5980   57.1180   41.3260 C.2   236  LYS236      0.2616
     27  O         28.2740   58.1010   41.9920 O.2   236  LYS236     -0.2715
     28  CB        27.4730   55.1450   42.3000 C.3   236  LYS236      0.0311
     29  CG        27.4970   53.6830   42.8040 C.3   236  LYS236      0.0038
     30  CD        26.1390   53.3600   43.4020 C.3   236  LYS236      0.0206
     31  CE        25.7280   51.9350   43.1920 C.3   236  LYS236      0.1093
     32  NZ        25.0780   51.8190   41.9070 N.3   236  LYS236     -0.1314
     33  N         28.7240   57.1500   39.9890 N.am  237  ILE237     -0.1963
     34  CA        28.5100   58.3860   39.2650 C.3   237  ILE237      0.1727
     35  C         27.0500   58.4810   38.8560 C.2   237  ILE237      0.2616
     36  O         26.3320   57.4830   38.7860 O.2   237  ILE237     -0.2715
     37  CB        29.4410   58.4810   38.0590 C.3   237  ILE237      0.0290
     38  CG1       29.1000   57.4570   36.9780 C.3   237  ILE237      0.0022
     39  CG2       30.8890   58.3860   38.5260 C.3   237  ILE237      0.0023
     40  CD1       29.8520   57.7390   35.6440 C.3   237  ILE237      0.0001
     41  N         26.6050   59.7050   38.5820 N.am  238  GLY238     -0.1955
     42  CA        25.2630   59.8910   38.0490 C.3   238  GLY238      0.1869
     43  C         24.1730   59.5820   39.0640 C.2   238  GLY238      0.2309
     44  O         24.3440   59.7230   40.2880 O.2   238  GLY238     -0.2863
     45  N         19.3330   65.5650   45.0970 N.3   275  ARG275     -0.1245
     46  CA        20.3880   65.9790   46.0190 C.3   275  ARG275      0.1563
     47  C         20.5750   67.4940   46.0540 C.2   275  ARG275      0.2260
     48  O         20.8980   68.0290   47.1260 O.2   275  ARG275     -0.2867
     49  CB        21.7070   65.2930   45.6940 C.3   275  ARG275      0.0307
     50  CG        22.1960   65.4870   44.2100 C.3   275  ARG275      0.0489
     51  CD        23.0940   64.3280   43.9350 C.3   275  ARG275      0.2205
     52  NE        23.8300   64.3110   42.6590 N.pl3 275  ARG275     -0.0865
     53  CZ        23.4150   63.7010   41.5540 C.cat 275  ARG275      0.5346
     54  NH1       22.2020   63.1560   41.4650 N.pl3 275  ARG275      0.1354
     55  NH2       24.2180   63.6580   40.5040 N.pl3 275  ARG275      0.1354
     56  N         23.2710   67.1480   36.4030 N.3   295  GLU295     -0.1231
     57  CA        24.6330   66.6720   36.2220 C.3   295  GLU295      0.1699
     58  C         24.7930   66.0100   34.8520 C.2   295  GLU295      0.2592
     59  O         23.8440   65.4870   34.2650 O.2   295  GLU295     -0.2718
     60  CB        25.0010   65.6860   37.3220 C.3   295  GLU295      0.0402
     61  CG        26.4450   65.0720   37.2410 C.3   295  GLU295      0.1161
     62  CD        27.5840   66.1040   37.2460 C.2   295  GLU295      0.3649
     63  OE1       27.4860   67.1210   36.5270 O.co2 295  GLU295     -0.2457
     64  OE2       28.5960   65.8980   37.9870 O.co2 295  GLU295     -0.2457
     65  N         26.0360   65.9960   34.3710 N.am  296  ILE296     -0.1980
     66  CA        26.3680   65.3290   33.1260 C.3   296  ILE296      0.1595
     67  C         25.7720   63.9190   33.0870 C.2   296  ILE296      0.2287
     68  O         25.7720   63.1840   34.0830 O.2   296  ILE296     -0.2864
     69  CB        27.9000   65.3230   32.9690 C.3   296  ILE296      0.0276
     70  CG1       28.2600   64.9530   31.5340 C.3   296  ILE296      0.0022
     71  CG2       28.5840   64.3410   33.9670 C.3   296  ILE296      0.0022
     72  CD1       29.7060   65.2130   31.1980 C.3   296  ILE296      0.0001
     73  N         25.8090   60.1510   32.1140 N.3   298  ALA298     -0.1245
     74  CA        26.8400   59.1760   31.8110 C.3   298  ALA298      0.1562
     75  C         26.3320   57.9880   31.0090 C.2   298  ALA298      0.2260
     76  O         27.0630   57.0030   30.8770 O.2   298  ALA298     -0.2867
     77  CB        27.5020   58.6720   33.0910 C.3   298  ALA298      0.0290
     78  N         33.9030   54.1190   38.9870 N.3   306  TYR306     -0.1241
     79  CA        34.9590   54.1590   37.9640 C.3   306  TYR306      0.1605
     80  C         35.6000   52.7870   37.7910 C.2   306  TYR306      0.2264
     81  O         35.8820   52.3620   36.6610 O.2   306  TYR306     -0.2867
     82  CB        36.0380   55.1770   38.3120 C.3   306  TYR306      0.0534
     83  CG        35.6100   56.6420   38.2360 C.ar  306  TYR306     -0.0201
     84  CD1       34.9770   57.1500   37.1220 C.ar  306  TYR306     -0.0009
     85  CD2       35.8550   57.5150   39.3020 C.ar  306  TYR306     -0.0009
     86  CE1       34.5690   58.5060   37.0700 C.ar  306  TYR306      0.0417
     87  CE2       35.4650   58.8480   39.2490 C.ar  306  TYR306      0.0417
     88  CZ        34.8350   59.3370   38.1340 C.ar  306  TYR306      0.1957
     89  OH        34.4370   60.6640   38.1190 O.3   306  TYR306     -0.2866
     90  N         38.2170   58.0560   27.4710 N.3   320  ARG320     -0.1245
     91  CA        37.7900   59.2470   28.1800 C.3   320  ARG320      0.1563
     92  C         38.9850   59.9010   28.8680 C.2   320  ARG320      0.2260
     93  O         39.1010   61.1280   28.8860 O.2   320  ARG320     -0.2867
     94  CB        36.6710   58.8720   29.1560 C.3   320  ARG320      0.0307
     95  CG        36.0660   60.0260   29.9300 C.3   320  ARG320      0.0489
     96  CD        34.8510   59.6300   30.7790 C.3   320  ARG320      0.2205
     97  NE        34.0520   60.8190   31.0810 N.pl3 320  ARG320     -0.0865
     98  CZ        34.0600   61.4600   32.2410 C.cat 320  ARG320      0.5346
     99  NH1       34.7890   61.0060   33.2380 N.pl3 320  ARG320      0.1354
    100  NH2       33.3100   62.5370   32.4120 N.pl3 320  ARG320      0.1354
    101  N         39.1020   63.9080   27.7200 N.3   324  LYS324     -0.1245
    102  CA        37.9950   63.9860   28.6670 C.3   324  LYS324      0.1561
    103  C         36.9830   65.0620   28.2890 C.2   324  LYS324      0.2260
    104  O         35.7960   64.9210   28.6010 O.2   324  LYS324     -0.2867
    105  CB        38.5080   64.2380   30.0810 C.3   324  LYS324      0.0271
    106  CG        37.4390   64.0310   31.1210 C.3   324  LYS324      0.0035
    107  CD        37.9960   64.2290   32.5070 C.3   324  LYS324      0.0206
    108  CE        36.9020   64.0720   33.5430 C.3   324  LYS324      0.1093
    109  NZ        37.3900   64.3310   34.9160 N.3   324  LYS324     -0.1314
    110  N         29.9660   59.7640   26.5760 N.3   329  TYR329     -0.1241
    111  CA        29.5160   58.4790   27.0790 C.3   329  TYR329      0.1605
    112  C         28.5350   57.8350   26.1000 C.2   329  TYR329      0.2264
    113  O         27.6320   58.5030   25.6110 O.2   329  TYR329     -0.2867
    114  CB        28.8080   58.6780   28.4140 C.3   329  TYR329      0.0534
    115  CG        29.7060   58.7730   29.6390 C.ar  329  TYR329     -0.0201
    116  CD1       29.8620   59.9770   30.3190 C.ar  329  TYR329     -0.0009
    117  CD2       30.3830   57.6470   30.1130 C.ar  329  TYR329     -0.0009
    118  CE1       30.6480   60.0680   31.4790 C.ar  329  TYR329      0.0417
    119  CE2       31.1830   57.7230   31.2600 C.ar  329  TYR329      0.0417
    120  CZ        31.3120   58.9340   31.9460 C.ar  329  TYR329      0.1957
    121  OH        32.1100   59.0200   33.1000 O.3   329  TYR329     -0.2866
    122  N         31.4570   66.6760   28.0650 N.3   335  TYR335     -0.1241
    123  CA        31.5380   68.0140   28.6320 C.3   335  TYR335      0.1605
    124  C         31.1490   69.0760   27.6070 C.2   335  TYR335      0.2264
    125  O         30.5040   70.0750   27.9590 O.2   335  TYR335     -0.2867
    126  CB        32.9450   68.2870   29.1890 C.3   335  TYR335      0.0534
    127  CG        33.1320   67.8140   30.6240 C.ar  335  TYR335     -0.0201
    128  CD1       33.5410   66.5340   30.9000 C.ar  335  TYR335     -0.0009
    129  CD2       32.8890   68.6680   31.6900 C.ar  335  TYR335     -0.0009
    130  CE1       33.7350   66.1000   32.2180 C.ar  335  TYR335      0.0417
    131  CE2       33.0670   68.2500   33.0020 C.ar  335  TYR335      0.0417
    132  CZ        33.4800   66.9710   33.2690 C.ar  335  TYR335      0.1957
    133  OH        33.6320   66.5340   34.5910 O.3   335  TYR335     -0.2866
    134  N         26.5450   70.4240   40.6780 N.3   360  HIS360     -0.1226
    135  CA        27.1660   69.1060   40.5950 C.3   360  HIS360      0.1752
    136  C         28.5950   69.2920   40.1140 C.2   360  HIS360      0.2596
    137  O         28.9250   70.3180   39.5310 O.2   360  HIS360     -0.2718
    138  CB        26.4240   68.1970   39.6110 C.3   360  HIS360      0.0759
    139  CG        24.9610   68.0810   39.8980 C.ar  360  HIS360      0.0818
    140  ND1       24.4670   67.1770   40.8040 N.ar  360  HIS360     -0.2268
    141  CD2       23.8890   68.7460   39.4090 C.ar  360  HIS360      0.1154
    142  CE1       23.1480   67.2710   40.8480 C.ar  360  HIS360      0.1986
    143  NE2       22.7710   68.2140   40.0000 N.ar  360  HIS360     -0.2212
    144  N         29.4010   68.2340   40.2530 N.am  361  GLN361     -0.1965
    145  CA        30.8150   68.3290   39.9340 C.3   361  GLN361      0.1733
    146  C         31.0560   68.8070   38.4910 C.2   361  GLN361      0.2616
    147  O         31.7940   69.7720   38.2690 O.2   361  GLN361     -0.2715
    148  CB        31.5030   66.9920   40.1610 C.3   361  GLN361      0.0408
    149  CG        33.0350   67.0350   39.9180 C.3   361  GLN361      0.0908
    150  CD        33.7370   65.8550   40.6060 C.2   361  GLN361      0.2608
    151  OE1       34.3610   66.0180   41.6410 O.2   361  GLN361     -0.2717
    152  NE2       33.6500   64.6840   40.0170 N.am  361  GLN361     -0.0878
    153  N         30.5030   68.1120   37.5000 N.am  362  ALA362     -0.1977
    154  CA        30.8290   68.4640   36.1090 C.3   362  ALA362      0.1597
    155  C         30.2150   69.8070   35.7260 C.2   362  ALA362      0.2287
    156  O         30.8620   70.6350   35.0640 O.2   362  ALA362     -0.2864
    157  CB        30.3630   67.3700   35.1470 C.3   362  ALA362      0.0319
    158  N         32.2570   72.6250   37.2600 N.3   365  ARG365     -0.1245
    159  CA        33.4860   72.8060   36.4900 C.3   365  ARG365      0.1563
    160  C         33.2630   73.7060   35.2770 C.2   365  ARG365      0.2260
    161  O         34.0850   74.5820   34.9710 O.2   365  ARG365     -0.2867
    162  CB        34.0130   71.4450   36.0200 C.3   365  ARG365      0.0307
    163  CG        34.7250   70.6400   37.1060 C.3   365  ARG365      0.0489
    164  CD        35.0740   69.2570   36.6230 C.3   365  ARG365      0.2205
    165  NE        35.8580   68.5560   37.6410 N.pl3 365  ARG365     -0.0865
    166  CZ        35.9080   67.2290   37.7900 C.cat 365  ARG365      0.5346
    167  NH1       35.2200   66.4230   36.9940 N.pl3 365  ARG365      0.1354
    168  NH2       36.6600   66.7150   38.7590 N.pl3 365  ARG365      0.1354
    169  N         35.4810   63.0630   45.4100 N.3   413  THR413     -0.1218
    170  CA        34.9830   62.4960   44.1540 C.3   413  THR413      0.1862
    171  C         35.8360   62.9020   42.9610 C.2   413  THR413      0.2287
    172  O         35.4630   62.6280   41.8120 O.2   413  THR413     -0.2866
    173  CB        33.5160   62.9060   43.9070 C.3   413  THR413      0.1770
    174  OG1       33.4120   64.3310   43.7230 O.3   413  THR413     -0.2211
    175  CG2       32.6510   62.5150   45.1030 C.3   413  THR413      0.0375
    176  N         38.6990   62.5420   40.4270 N.3   415  ARG415     -0.1245
    177  CA        39.6810   61.5980   39.8880 C.3   415  ARG415      0.1563
    178  C         40.6510   62.3230   38.9530 C.2   415  ARG415      0.2260
    179  O         40.2490   62.8370   37.9100 O.2   415  ARG415     -0.2867
    180  CB        39.0010   60.4270   39.1650 C.3   415  ARG415      0.0307
    181  CG        40.0140   59.4270   38.5660 C.3   415  ARG415      0.0489
    182  CD        39.3940   58.1350   38.1010 C.3   415  ARG415      0.2205
    183  NE        40.3790   57.4040   37.3030 N.pl3 415  ARG415     -0.0865
    184  CZ        40.5850   57.5780   35.9980 C.cat 415  ARG415      0.5346
    185  NH1       39.8300   58.4060   35.2690 N.pl3 415  ARG415      0.1354
    186  NH2       41.5290   56.8830   35.4070 N.pl3 415  ARG415      0.1354
@<TRIPOS>BOND
     1   113   112    2
     2   112   111    1
     3   110   111    1
     4   111   114    1
     5    90    91    1
     6   124   125    2
     7   124   123    1
     8   101   102    1
     9   122   123    1
    10    91    92    1
    11    91    94    1
    12   103   104    2
    13   103   102    1
    14   114   115    1
    15   123   126    1
    16   102   105    1
    17    92    93    2
    18    94    95    1
    19   126   127    1
    20   115   117   ar
    21   115   116   ar
    22    95    96    1
    23   105   106    1
    24   117   119   ar
    25   116   118   ar
    26   127   128   ar
    27   127   129   ar
    28    96    97    1
    29    76    75    2
    30   128   130   ar
    31    75    74    1
    32    97    98    2
    33   106   107    1
    34    72    70    1
    35   119   120   ar
    36   118   120   ar
    37    70    69    1
    38   129   131   ar
    39    74    73    1
    40    74    77    1
    41   120   121    1
    42   130   132   ar
    43    98   100    1
    44    98    99    1
    45   107   108    1
    46    69    66    1
    47    69    71    1
    48   131   132   ar
    49    67    66    1
    50    67    68    2
    51    66    65    1
    52   132   133    1
    53   108   109    1
    54    59    58    2
    55    65    58   am
    56    58    57    1
    57   161   160    2
    58   156   155    2
    59   157   154    1
    60   185   184    1
    61   160   159    1
    62   186   184    1
    63    40    38    1
    64   155   154    1
    65   184   183    2
    66   162   159    1
    67   162   163    1
    68   154   153    1
    69    57    56    1
    70    57    60    1
    71   159   158    1
    72    63    62   ar
    73   164   163    1
    74   164   165    1
    75    81    80    2
    76    38    37    1
    77   167   166    1
    78    86    84   ar
    79    86    88   ar
    80    84    83   ar
    81    61    62    1
    82    61    60    1
    83    62    64   ar
    84   183   182    1
    85   153   146   am
    86   165   166    2
    87   166   168    1
    88    80    79    1
    89   179   178    2
    90    79    82    1
    91    79    78    1
    92    42    41    1
    93    42    43    1
    94    37    39    1
    95    37    34    1
    96   182   181    1
    97    89    88    1
    98    88    87   ar
    99    83    82    1
   100    83    85   ar
   101   147   146    2
   102   146   145    1
   103   181   180    1
   104    41    35   am
   105    36    35    2
   106    35    34    1
   107   178   177    1
   108    43    44    2
   109   180   177    1
   110    87    85   ar
   111    34    33    1
   112   141   139   ar
   113   141   143   ar
   114   137   136    2
   115   138   139    1
   116   138   135    1
   117   177   176    1
   118   139   140   ar
   119   149   148    1
   120   149   150    1
   121   145   148    1
   122   145   144    1
   123    33    26   am
   124   143   142   ar
   125   152   150   am
   126   136   144   am
   127   136   135    1
   128    55    53    1
   129   135   134    1
   130   150   151    2
   131   140   142   ar
   132    26    27    2
   133    26    25    1
   134    54    53    1
   135    53    52    2
   136   172   171    2
   137    32    31    1
   138    25    28    1
   139    25    24    1
   140    23    22    2
   141    28    29    1
   142    52    51    1
   143    29    30    1
   144   171   170    1
   145    31    30    1
   146    24    22   am
   147    22    21    1
   148     8     7    1
   149     8     9    2
   150     6     7    1
   151     6     5    1
   152   174   173    1
   153    11     9    1
   154   173   170    1
   155   173   175    1
   156     9    10    1
   157    51    50    1
   158   170   169    1
   159    50    49    1
   160    21    20    1
   161    19    17   am
   162     5     2    1
   163     2     1    1
   164     2     3    1
   165    45    46    1
   166    49    46    1
   167     3     4    2
   168    46    47    1
   169    47    48    2
   170    17    18    2
   171    17    16    1
   172    12    13    1
   173    13    16    1
   174    13    14    1
   175    15    14    2
