@<TRIPOS>MOLECULE
tmp/5htkA00.pdb
 144 136 0 0 0
SMALL
GASTEIGER

@<TRIPOS>ATOM
      1  N         36.6430  108.1030   29.3870 N.3    17  PRO17      -0.2116
      2  CA        37.1560  107.2770   30.4810 C.3    17  PRO17       0.1372
      3  C         36.0860  106.9470   31.5070 C.2    17  PRO17       0.2244
      4  O         35.1050  107.6670   31.6830 O.2    17  PRO17      -0.2868
      5  CB        38.2490  108.1510   31.0980 C.3    17  PRO17       0.0268
      6  CG        38.6530  109.0790   29.9820 C.3    17  PRO17       0.0207
      7  CD        37.3770  109.3820   29.2800 C.3    17  PRO17       0.0892
      8  N         34.6330  100.4060   29.5380 N.3    21  LYS21      -0.1231
      9  CA        35.0650   99.8840   28.2380 C.3    21  LYS21       0.1693
     10  C         35.9450   98.6550   28.4130 C.2    21  LYS21       0.2592
     11  O         35.7840   97.6580   27.7110 O.2    21  LYS21      -0.2718
     12  CB        35.8100  100.9650   27.4580 C.3    21  LYS21       0.0285
     13  CG        34.9950  102.2000   27.2160 C.3    21  LYS21       0.0035
     14  CD        35.6880  103.1680   26.2610 C.3    21  LYS21       0.0206
     15  CE        37.0720  103.6300   26.7790 C.3    21  LYS21       0.1093
     16  NZ        37.0300  104.1810   28.1580 N.3    21  LYS21      -0.1314
     17  N         36.8860   98.7070   29.3480 N.am   22  THR22      -0.1953
     18  CA        37.8200   97.6030   29.4860 C.3    22  THR22       0.1897
     19  C         37.1250   96.3550   30.0390 C.2    22  THR22       0.2313
     20  O         37.3400   95.2420   29.5310 O.2    22  THR22      -0.2863
     21  CB        38.9690   98.0610   30.3790 C.3    22  THR22       0.1794
     22  OG1       39.6850   99.0990   29.6930 O.3    22  THR22      -0.2208
     23  CG2       39.9150   96.9170   30.6730 C.3    22  THR22       0.0378
     24  N         44.5070   96.3430   24.4690 N.3    43  ASN43      -0.1225
     25  CA        44.2560   97.3880   25.4460 C.3    43  ASN43       0.1785
     26  C         45.2510   98.5230   25.2140 C.2    43  ASN43       0.2597
     27  O         46.4260   98.4070   25.5500 O.2    43  ASN43      -0.2718
     28  CB        44.3580   96.8320   26.8700 C.3    43  ASN43       0.1169
     29  CG        44.0390   97.8750   27.9270 C.2    43  ASN43       0.2627
     30  OD1       44.8340   98.7690   28.1950 O.2    43  ASN43      -0.2716
     31  ND2       42.8720   97.7710   28.5150 N.am   43  ASN43      -0.0877
     32  N         44.7590   99.6450   24.6900 N.am   44  LEU44      -0.1966
     33  CA        45.6390  100.7440   24.3450 C.3    44  LEU44       0.1728
     34  C         46.2330  101.4200   25.5640 C.2    44  LEU44       0.2616
     35  O         47.2850  102.0480   25.4520 O.2    44  LEU44      -0.2715
     36  CB        44.9040  101.7790   23.5070 C.3    44  LEU44       0.0311
     37  CG        45.0010  101.4920   22.0230 C.3    44  LEU44       0.0022
     38  CD1       46.4570  101.7620   21.5160 C.3    44  LEU44       0.0001
     39  CD2       44.5540  100.0460   21.7700 C.3    44  LEU44       0.0001
     40  N         45.5700  101.3390   26.7180 N.am   45  GLY45      -0.1955
     41  CA        46.2080  101.7900   27.9470 C.3    45  GLY45       0.1869
     42  C         47.5560  101.1320   28.1510 C.2    45  GLY45       0.2309
     43  O         48.5550  101.7950   28.4500 O.2    45  GLY45      -0.2863
     44  N         50.1760  102.5040   25.5660 N.3    48  ARG48      -0.1245
     45  CA        50.6610  103.8530   25.7840 C.3    48  ARG48       0.1563
     46  C         51.5170  103.9310   27.0480 C.2    48  ARG48       0.2260
     47  O         52.5370  104.6170   27.0490 O.2    48  ARG48      -0.2867
     48  CB        49.4870  104.8210   25.8210 C.3    48  ARG48       0.0307
     49  CG        49.8750  106.2800   26.0520 C.3    48  ARG48       0.0489
     50  CD        49.5680  106.7140   27.4650 C.3    48  ARG48       0.2205
     51  NE        48.1420  106.6180   27.7390 N.pl3  48  ARG48      -0.0865
     52  CZ        47.6200  106.1560   28.8680 C.cat  48  ARG48       0.5346
     53  NH1       48.4100  105.7720   29.8720 N.pl3  48  ARG48       0.1354
     54  NH2       46.3030  106.0830   28.9950 N.pl3  48  ARG48       0.1354
     55  N         46.7180  114.4710   28.1700 N.3    61  PHE61      -0.1241
     56  CA        45.5150  114.0790   27.4370 C.3    61  PHE61       0.1605
     57  C         44.7820  115.2730   26.8210 C.2    61  PHE61       0.2264
     58  O         43.6760  115.1060   26.3030 O.2    61  PHE61      -0.2867
     59  CB        44.5830  113.2700   28.3730 C.3    61  PHE61       0.0534
     60  CG        45.1980  111.9610   28.8430 C.ar   61  PHE61      -0.0203
     61  CD1       45.1080  110.8090   28.0670 C.ar   61  PHE61      -0.0042
     62  CD2       45.9300  111.9030   30.0230 C.ar   61  PHE61      -0.0042
     63  CE1       45.7050  109.6240   28.4640 C.ar   61  PHE61      -0.0003
     64  CE2       46.5420  110.7190   30.4310 C.ar   61  PHE61      -0.0003
     65  CZ        46.4350  109.5810   29.6470 C.ar   61  PHE61      -0.0000
     66  N         50.2810  109.3150   21.1680 N.3    72  ARG72      -0.1245
     67  CA        49.0700  108.5040   21.2850 C.3    72  ARG72       0.1563
     68  C         48.6350  107.9500   19.9320 C.2    72  ARG72       0.2260
     69  O         48.2530  106.7810   19.8380 O.2    72  ARG72      -0.2867
     70  CB        47.9730  109.3330   21.9410 C.3    72  ARG72       0.0307
     71  CG        48.2900  109.7160   23.4070 C.3    72  ARG72       0.0489
     72  CD        47.3440  110.7740   23.9050 C.3    72  ARG72       0.2205
     73  NE        46.0080  110.2370   24.1090 N.pl3  72  ARG72      -0.0865
     74  CZ        44.8870  110.9490   24.1300 C.cat  72  ARG72       0.5346
     75  NH1       44.8950  112.2620   23.9000 N.pl3  72  ARG72       0.1354
     76  NH2       43.7360  110.3230   24.3480 N.pl3  72  ARG72       0.1354
     77  N         50.8150  104.9970   19.0770 N.3    75  CYS75      -0.1235
     78  CA        50.3920  103.7920   19.7990 C.3    75  CYS75       0.1677
     79  C         49.1960  103.1160   19.1390 C.2    75  CYS75       0.2270
     80  O         49.1290  101.8820   19.0720 O.2    75  CYS75      -0.2867
     81  CB        50.0850  104.1300   21.2540 C.3    75  CYS75       0.0956
     82  SG        51.6230  104.4940   22.1700 S.3    75  CYS75      -0.0801
     83  N         40.3690   98.1120   22.4870 N.3    98  ASP98      -0.1225
     84  CA        39.8980   98.8070   23.6910 C.3    98  ASP98       0.1805
     85  C         40.6620  100.1220   23.8440 C.2    98  ASP98       0.2598
     86  O         41.8320  100.1360   24.2410 O.2    98  ASP98      -0.2718
     87  CB        40.0310   97.9010   24.9220 C.3    98  ASP98       0.1424
     88  CG        39.7790   98.6550   26.2470 C.2    98  ASP98       0.3668
     89  OD1       39.1470   99.7190   26.1850 O.co2  98  ASP98      -0.2456
     90  OD2       40.1610   98.1860   27.3490 O.co2  98  ASP98      -0.2456
     91  N         39.9960  101.2190   23.4900 N.am   99  ALA99      -0.1966
     92  CA        40.5300  102.5770   23.5950 C.3    99  ALA99       0.1728
     93  C         39.3450  103.5350   23.6690 C.2    99  ALA99       0.2617
     94  O         38.1850  103.1190   23.5730 O.2    99  ALA99      -0.2715
     95  CB        41.4490  102.9180   22.4190 C.3    99  ALA99       0.0334
     96  N         39.6350  104.8300   23.8400 N.am  100  THR100     -0.1937
     97  CA        38.5500  105.8180   23.8810 C.3   100  THR100      0.2028
     98  C         37.9810  106.0980   22.4790 C.2   100  THR100      0.2642
     99  O         36.7620  106.1020   22.2920 O.2   100  THR100     -0.2714
    100  CB        39.0290  107.1290   24.5420 C.3   100  THR100      0.1808
    101  OG1       40.1560  107.6840   23.8420 O.3   100  THR100     -0.2208
    102  CG2       39.3860  106.8760   26.0030 C.3   100  THR100      0.0379
    103  N         38.8390  106.3730   21.4910 N.am  101  ASN101     -0.1971
    104  CA        38.3790  106.5230   20.0960 C.3   101  ASN101      0.1688
    105  C         37.2150  107.5120   19.9810 C.2   101  ASN101      0.2292
    106  O         36.2340  107.2790   19.2660 O.2   101  ASN101     -0.2864
    107  CB        37.9600  105.1580   19.5450 C.3   101  ASN101      0.1181
    108  CG        39.0970  104.1910   19.4730 C.2   101  ASN101      0.2629
    109  OD1       40.2030  104.5560   19.0380 O.2   101  ASN101     -0.2716
    110  ND2       38.8520  102.9420   19.9010 N.am  101  ASN101     -0.0877
    111  N         40.0480  109.7980   14.5440 N.3   106  ARG106     -0.1245
    112  CA        40.5810  108.5060   14.9780 C.3   106  ARG106      0.1563
    113  C         39.7180  107.3520   14.4580 C.2   106  ARG106      0.2260
    114  O         40.2370  106.3400   13.9810 O.2   106  ARG106     -0.2867
    115  CB        40.7090  108.4770   16.5140 C.3   106  ARG106      0.0307
    116  CG        41.1390  107.1270   17.1180 C.3   106  ARG106      0.0489
    117  CD        42.4380  106.5990   16.5330 C.3   106  ARG106      0.2205
    118  NE        43.4430  107.6670   16.4670 N.pl3 106  ARG106     -0.0865
    119  CZ        44.2340  108.0380   17.4720 C.cat 106  ARG106      0.5346
    120  NH1       45.0830  109.0470   17.2840 N.pl3 106  ARG106      0.1354
    121  NH2       44.1810  107.4140   18.6550 N.pl3 106  ARG106      0.1354
    122  N         41.3050  114.7940   33.6100 N.3   163  ARG163     -0.1245
    123  CA        41.5540  114.0440   32.3790 C.3   163  ARG163      0.1563
    124  C         40.2580  113.8090   31.5900 C.2   163  ARG163      0.2260
    125  O         40.2460  113.9420   30.3610 O.2   163  ARG163     -0.2867
    126  CB        42.2490  112.7260   32.6910 C.3   163  ARG163      0.0307
    127  CG        42.7790  112.0640   31.4550 C.3   163  ARG163      0.0489
    128  CD        42.9170  110.5690   31.6310 C.3   163  ARG163      0.2205
    129  NE        43.9950  110.2230   32.5420 N.pl3 163  ARG163     -0.0865
    130  CZ        44.4540  108.9860   32.7140 C.cat 163  ARG163      0.5346
    131  NH1       43.9050  107.9600   32.0560 N.pl3 163  ARG163      0.1354
    132  NH2       45.4500  108.7740   33.5500 N.pl3 163  ARG163      0.1354
    133  N         38.9260  114.8950   27.4570 N.3   167  TYR167     -0.1241
    134  CA        38.2630  114.1250   26.4160 C.3   167  TYR167      0.1605
    135  C         36.9160  114.7170   26.0450 C.2   167  TYR167      0.2264
    136  O         36.4960  114.6130   24.8820 O.2   167  TYR167     -0.2867
    137  CB        38.0460  112.6970   26.8610 C.3   167  TYR167      0.0534
    138  CG        39.2560  111.8120   26.9180 C.ar  167  TYR167     -0.0201
    139  CD1       39.6350  111.0690   25.8130 C.ar  167  TYR167     -0.0009
    140  CD2       39.9750  111.6570   28.1030 C.ar  167  TYR167     -0.0009
    141  CE1       40.7320  110.2150   25.8670 C.ar  167  TYR167      0.0417
    142  CE2       41.0850  110.8280   28.1650 C.ar  167  TYR167      0.0417
    143  CZ        41.4430  110.0880   27.0480 C.ar  167  TYR167      0.1957
    144  OH        42.4960  109.2120   27.1050 O.3   167  TYR167     -0.2866
@<TRIPOS>BOND
     1   114   113    2
     2   113   112    1
     3   111   112    1
     4   112   115    1
     5   118   117    1
     6   118   119    2
     7   115   116    1
     8   117   116    1
     9   120   119    1
    10   119   121    1
    11   109   108    2
    12    80    79    2
    13    77    78    1
    14    79    78    1
    15   106   105    2
    16   108   107    1
    17   108   110   am
    18   107   104    1
    19    78    81    1
    20    69    68    2
    21    68    67    1
    22   105   104    1
    23   104   103    1
    24    66    67    1
    25    81    82    1
    26    67    70    1
    27   103    98   am
    28    38    37    1
    29    39    37    1
    30    70    71    1
    31    37    36    1
    32    99    98    2
    33    95    92    1
    34    98    97    1
    35    83    84    1
    36    71    72    1
    37    91    92    1
    38    91    85   am
    39    36    33    1
    40    94    93    2
    41    92    93    1
    42    93    96   am
    43    84    85    1
    44    84    87    1
    45    96    97    1
    46   101   100    1
    47    85    86    2
    48    97   100    1
    49    75    74    1
    50    72    73    1
    51    73    74    2
    52    74    76    1
    53    33    32    1
    54    33    34    1
    55    24    25    1
    56   100   102    1
    57    32    26   am
    58   136   135    2
    59    87    88    1
    60    26    25    1
    61    26    27    2
    62    25    28    1
    63    35    34    2
    64    34    40   am
    65    44    45    1
    66    45    48    1
    67    45    46    1
    68   139   141   ar
    69   139   138   ar
    70    48    49    1
    71   141   143   ar
    72   135   134    1
    73    49    50    1
    74    89    88   ar
    75    88    90   ar
    76    14    15    1
    77    14    13    1
    78    58    57    2
    79   134   137    1
    80   134   133    1
    81    40    41    1
    82    15    16    1
    83    57    56    1
    84   137   138    1
    85    28    29    1
    86   138   140   ar
    87    46    47    2
    88   143   144    1
    89   143   142   ar
    90    13    12    1
    91    56    55    1
    92    56    59    1
    93    12     9    1
    94    50    51    1
    95    11    10    2
    96    51    52    2
    97    29    30    2
    98    29    31   am
    99    41    42    1
   100    61    63   ar
   101    61    60   ar
   102   140   142   ar
   103    42    43    2
   104     9    10    1
   105     9     8    1
   106    59    60    1
   107    10    17   am
   108    63    65   ar
   109    60    62   ar
   110    52    54    1
   111    52    53    1
   112     7     1    1
   113     7     6    1
   114    17    18    1
   115     1     2    1
   116    18    19    1
   117    18    21    1
   118    20    19    2
   119    65    64   ar
   120    22    21    1
   121     6     5    1
   122    62    64   ar
   123   125   124    2
   124    21    23    1
   125     2     5    1
   126     2     3    1
   127   127   128    1
   128   127   126    1
   129     3     4    2
   130   124   123    1
   131   128   129    1
   132   131   130    1
   133   123   126    1
   134   123   122    1
   135   129   130    2
   136   130   132    1
