@<TRIPOS>MOLECULE
tmp/5htkA01.pdb
 185 179 0 0 0
SMALL
GASTEIGER

@<TRIPOS>ATOM
      1  N         36.6430  108.1030   29.3870 N.3    17  PRO17      -0.2102
      2  CA        37.1560  107.2770   30.4810 C.3    17  PRO17       0.1504
      3  C         36.0860  106.9470   31.5070 C.2    17  PRO17       0.2576
      4  O         35.1050  107.6670   31.6830 O.2    17  PRO17      -0.2718
      5  CB        38.2490  108.1510   31.0980 C.3    17  PRO17       0.0282
      6  CG        38.6530  109.0790   29.9820 C.3    17  PRO17       0.0208
      7  CD        37.3770  109.3820   29.2800 C.3    17  PRO17       0.0893
      8  N         36.3040  105.8360   32.2040 N.am   18  ALA18      -0.1966
      9  CA        35.4200  105.3960   33.2840 C.3    18  ALA18       0.1728
     10  C         34.0220  105.0880   32.7550 C.2    18  ALA18       0.2616
     11  O         33.0110  105.4340   33.3630 O.2    18  ALA18      -0.2715
     12  CB        35.3690  106.4220   34.4150 C.3    18  ALA18       0.0334
     13  N         33.9610  104.4210   31.6100 N.am   19  ARG19      -0.1963
     14  CA        32.6960  104.0110   31.0220 C.3    19  ARG19       0.1729
     15  C         32.5180  102.4990   30.9820 C.2    19  ARG19       0.2617
     16  O         31.5840  102.0200   30.3530 O.2    19  ARG19      -0.2715
     17  CB        32.5640  104.6060   29.6200 C.3    19  ARG19       0.0348
     18  CG        31.7010  105.8630   29.5810 C.3    19  ARG19       0.0492
     19  CD        32.2690  106.9930   30.4480 C.3    19  ARG19       0.2205
     20  NE        31.3310  108.1040   30.5490 N.pl3  19  ARG19      -0.0865
     21  CZ        31.4780  109.1450   31.3620 C.cat  19  ARG19       0.5346
     22  NH1       32.5430  109.2340   32.1060 N.pl3  19  ARG19       0.1354
     23  NH2       30.5660  110.1060   31.4100 N.pl3  19  ARG19       0.1354
     24  N         33.3620  101.7340   31.6570 N.am   20  GLY20      -0.1940
     25  CA        33.2540  100.2970   31.5610 C.3    20  GLY20       0.2014
     26  C         33.8360   99.6690   30.3110 C.2    20  GLY20       0.2639
     27  O         33.6030   98.4740   30.0700 O.2    20  GLY20      -0.2714
     28  N         34.6330  100.4060   29.5380 N.am   21  LYS21      -0.1963
     29  CA        35.0650   99.8840   28.2380 C.3    21  LYS21       0.1728
     30  C         35.9450   98.6550   28.4130 C.2    21  LYS21       0.2617
     31  O         35.7840   97.6580   27.7110 O.2    21  LYS21      -0.2715
     32  CB        35.8100  100.9650   27.4580 C.3    21  LYS21       0.0311
     33  CG        34.9950  102.2000   27.2160 C.3    21  LYS21       0.0038
     34  CD        35.6880  103.1680   26.2610 C.3    21  LYS21       0.0206
     35  CE        37.0720  103.6300   26.7790 C.3    21  LYS21       0.1093
     36  NZ        37.0300  104.1810   28.1580 N.3    21  LYS21      -0.1314
     37  N         36.8860   98.7070   29.3480 N.am   22  THR22      -0.1937
     38  CA        37.8200   97.6030   29.4860 C.3    22  THR22       0.2028
     39  C         37.1250   96.3550   30.0390 C.2    22  THR22       0.2642
     40  O         37.3400   95.2420   29.5310 O.2    22  THR22      -0.2714
     41  CB        38.9690   98.0610   30.3790 C.3    22  THR22       0.1808
     42  OG1       39.6850   99.0990   29.6930 O.3    22  THR22      -0.2208
     43  CG2       39.9150   96.9170   30.6730 C.3    22  THR22       0.0379
     44  N         36.2460   96.5110   31.0460 N.am   23  TYR23      -0.1973
     45  CA        35.4490   95.3660   31.5010 C.3    23  TYR23       0.1639
     46  C         34.6580   94.7560   30.3460 C.2    23  TYR23       0.2290
     47  O         34.6860   93.5320   30.1320 O.2    23  TYR23      -0.2864
     48  CB        34.4840   95.7700   32.6330 C.3    23  TYR23       0.0560
     49  CG        33.6400   94.6100   33.1580 C.ar   23  TYR23      -0.0198
     50  CD1       32.4860   94.2300   32.5220 C.ar   23  TYR23      -0.0009
     51  CD2       34.0040   93.9080   34.3110 C.ar   23  TYR23      -0.0009
     52  CE1       31.7240   93.1930   32.9840 C.ar   23  TYR23       0.0417
     53  CE2       33.2480   92.8830   34.7830 C.ar   23  TYR23       0.0417
     54  CZ        32.0990   92.5230   34.1280 C.ar   23  TYR23       0.1957
     55  OH        31.3190   91.4760   34.5940 O.3    23  TYR23      -0.2866
     56  N         44.5070   96.3430   24.4690 N.3    43  ASN43      -0.1240
     57  CA        44.2560   97.3880   25.4460 C.3    43  ASN43       0.1653
     58  C         45.2510   98.5230   25.2140 C.2    43  ASN43       0.2266
     59  O         46.4260   98.4070   25.5500 O.2    43  ASN43      -0.2867
     60  CB        44.3580   96.8320   26.8700 C.3    43  ASN43       0.1155
     61  CG        44.0390   97.8750   27.9270 C.2    43  ASN43       0.2627
     62  OD1       44.8340   98.7690   28.1950 O.2    43  ASN43      -0.2716
     63  ND2       42.8720   97.7710   28.5150 N.am   43  ASN43      -0.0877
     64  N         47.6160   99.8170   27.9470 N.3    46  VAL46      -0.1245
     65  CA        48.8760   99.0930   28.1070 C.3    46  VAL46       0.1561
     66  C         49.9020   99.5910   27.1010 C.2    46  VAL46       0.2260
     67  O         51.0710   99.8220   27.4390 O.2    46  VAL46      -0.2867
     68  CB        48.6350   97.5830   27.9600 C.3    46  VAL46       0.0252
     69  CG1       49.9590   96.8020   28.0060 C.3    46  VAL46       0.0019
     70  CG2       47.7310   97.1160   29.0600 C.3    46  VAL46       0.0019
     71  N         51.1300  103.2350   28.1220 N.3    49  ARG49      -0.1245
     72  CA        51.9680  103.2000   29.3190 C.3    49  ARG49       0.1563
     73  C         53.3380  102.6130   29.0140 C.2    49  ARG49       0.2260
     74  O         54.3500  103.1010   29.5220 O.2    49  ARG49      -0.2867
     75  CB        51.3150  102.3860   30.4370 C.3    49  ARG49       0.0307
     76  CG        50.2060  103.1040   31.1680 C.3    49  ARG49       0.0489
     77  CD        49.8090  102.4010   32.4580 C.3    49  ARG49       0.2205
     78  NE        49.3530  101.0290   32.3000 N.pl3  49  ARG49      -0.0865
     79  CZ        48.1040  100.6700   31.9860 C.cat  49  ARG49       0.5346
     80  NH1       47.1620  101.5720   31.7610 N.pl3  49  ARG49       0.1354
     81  NH2       47.7910   99.3930   31.8940 N.pl3  49  ARG49       0.1354
     82  N         39.6350  104.8300   23.8400 N.3   100  THR100     -0.1218
     83  CA        38.5500  105.8180   23.8810 C.3   100  THR100      0.1862
     84  C         37.9810  106.0980   22.4790 C.2   100  THR100      0.2287
     85  O         36.7620  106.1020   22.2920 O.2   100  THR100     -0.2866
     86  CB        39.0290  107.1290   24.5420 C.3   100  THR100      0.1770
     87  OG1       40.1560  107.6840   23.8420 O.3   100  THR100     -0.2211
     88  CG2       39.3860  106.8760   26.0030 C.3   100  THR100      0.0375
     89  N         31.7180  104.2110   38.4020 N.3   137  ASN137     -0.1240
     90  CA        32.8460  103.8310   37.5320 C.3   137  ASN137      0.1653
     91  C         34.1070  104.6070   37.8770 C.2   137  ASN137      0.2266
     92  O         35.2120  104.0620   37.8010 O.2   137  ASN137     -0.2867
     93  CB        32.5230  104.0620   36.0600 C.3   137  ASN137      0.1155
     94  CG        31.4460  103.1220   35.5490 C.2   137  ASN137      0.2627
     95  OD1       31.1000  102.1830   36.2470 O.2   137  ASN137     -0.2716
     96  ND2       30.9280  103.3610   34.3280 N.am  137  ASN137     -0.0877
     97  N         35.8260  103.3260   40.9400 N.3   140  GLU140     -0.1231
     98  CA        36.5390  102.1030   40.5990 C.3   140  GLU140      0.1699
     99  C         37.8650  102.4030   39.9090 C.2   140  GLU140      0.2592
    100  O         38.8720  101.7400   40.1820 O.2   140  GLU140     -0.2718
    101  CB        35.6680  101.2190   39.6990 C.3   140  GLU140      0.0402
    102  CG        36.4320   99.9990   39.0980 C.3   140  GLU140      0.1161
    103  CD        36.8680   99.0120   40.1800 C.2   140  GLU140      0.3649
    104  OE1       36.3590   99.1120   41.3210 O.co2 140  GLU140     -0.2457
    105  OE2       37.7260   98.1500   39.8920 O.co2 140  GLU140     -0.2457
    106  N         37.8830  103.3610   38.9740 N.am  141  VAL141     -0.1980
    107  CA        39.1640  103.7490   38.3840 C.3   141  VAL141      0.1595
    108  C         40.1080  104.2330   39.4780 C.2   141  VAL141      0.2287
    109  O         41.2700  103.8200   39.5490 O.2   141  VAL141     -0.2864
    110  CB        38.9770  104.8180   37.2910 C.3   141  VAL141      0.0276
    111  CG1       40.3280  105.3950   36.9020 C.3   141  VAL141      0.0022
    112  CG2       38.2410  104.2350   36.0630 C.3   141  VAL141      0.0022
    113  N         41.3930  101.1150   41.5530 N.3   144  SER144     -0.1202
    114  CA        42.0370   99.9420   40.9690 C.3   144  SER144      0.2020
    115  C         42.6990  100.1390   39.6020 C.2   144  SER144      0.2619
    116  O         43.4040   99.2300   39.1510 O.2   144  SER144     -0.2717
    117  CB        41.0100   98.8100   40.8410 C.3   144  SER144      0.2103
    118  OG        39.9760   99.2320   39.9800 O.3   144  SER144     -0.2182
    119  N         42.4970  101.2570   38.9170 N.am  145  SER145     -0.1938
    120  CA        43.0550  101.3870   37.5720 C.3   145  SER145      0.2040
    121  C         44.5840  101.3660   37.5860 C.2   145  SER145      0.2485
    122  O         45.2010  102.1140   38.3660 O.2   145  SER145     -0.2729
    123  CB        42.5850  102.6730   36.9080 C.3   145  SER145      0.2129
    124  OG        43.3450  102.9100   35.7430 O.3   145  SER145     -0.2179
    125  N         45.2300  100.5730   36.7250 N.am  146  PRO146     -0.2715
    126  CA        46.6980  100.6130   36.6050 C.3   146  PRO146      0.1536
    127  C         47.2250  101.7930   35.8170 C.2   146  PRO146      0.2598
    128  O         48.4380  101.8750   35.5830 O.2   146  PRO146     -0.2715
    129  CB        47.0250   99.3070   35.8700 C.3   146  PRO146      0.0310
    130  CG        45.7800   99.1010   34.9490 C.3   146  PRO146      0.0237
    131  CD        44.6170   99.6020   35.7870 C.3   146  PRO146      0.0939
    132  N         46.3640  102.7050   35.4000 N.am  147  ASP147     -0.1972
    133  CA        46.8550  103.9000   34.7440 C.3   147  ASP147      0.1709
    134  C         47.3270  104.9490   35.7370 C.2   147  ASP147      0.2293
    135  O         47.6310  106.0650   35.3160 O.2   147  ASP147     -0.2864
    136  CB        45.7820  104.4660   33.8170 C.3   147  ASP147      0.1436
    137  CG        46.3710  105.0450   32.5510 C.2   147  ASP147      0.3671
    138  OD1       47.3390  104.4650   32.0240 O.co2 147  ASP147     -0.2456
    139  OD2       45.8660  106.0770   32.0730 O.co2 147  ASP147     -0.2456
    140  N         42.1610  112.6010   37.6080 N.3   160  PHE160     -0.1241
    141  CA        41.3540  111.8410   36.6700 C.3   160  PHE160      0.1605
    142  C         40.1160  112.6210   36.2670 C.2   160  PHE160      0.2264
    143  O         39.7240  112.6000   35.0980 O.2   160  PHE160     -0.2867
    144  CB        40.9730  110.4950   37.2720 C.3   160  PHE160      0.0534
    145  CG        40.2750  109.5700   36.3060 C.ar  160  PHE160     -0.0203
    146  CD1       40.9160  109.1260   35.1590 C.ar  160  PHE160     -0.0042
    147  CD2       38.9860  109.1130   36.5790 C.ar  160  PHE160     -0.0042
    148  CE1       40.2520  108.2580   34.2660 C.ar  160  PHE160     -0.0003
    149  CE2       38.3470  108.2760   35.7340 C.ar  160  PHE160     -0.0003
    150  CZ        38.9940  107.8350   34.5560 C.ar  160  PHE160     -0.0000
    151  N         41.3050  114.7940   33.6100 N.3   163  ARG163     -0.1245
    152  CA        41.5540  114.0440   32.3790 C.3   163  ARG163      0.1563
    153  C         40.2580  113.8090   31.5900 C.2   163  ARG163      0.2260
    154  O         40.2460  113.9420   30.3610 O.2   163  ARG163     -0.2867
    155  CB        42.2490  112.7260   32.6910 C.3   163  ARG163      0.0307
    156  CG        42.7790  112.0640   31.4550 C.3   163  ARG163      0.0489
    157  CD        42.9170  110.5690   31.6310 C.3   163  ARG163      0.2205
    158  NE        43.9950  110.2230   32.5420 N.pl3 163  ARG163     -0.0865
    159  CZ        44.4540  108.9860   32.7140 C.cat 163  ARG163      0.5346
    160  NH1       43.9050  107.9600   32.0560 N.pl3 163  ARG163      0.1354
    161  NH2       45.4500  108.7740   33.5500 N.pl3 163  ARG163      0.1354
    162  N         36.1020   90.7580   37.8740 N.3   395  VAL395     -0.1231
    163  CA        36.6510   92.0970   37.6220 C.3   395  VAL395      0.1692
    164  C         37.1130   92.1730   36.1590 C.2   395  VAL395      0.2592
    165  O         37.1200   91.1750   35.4510 O.2   395  VAL395     -0.2718
    166  CB        37.7910   92.4470   38.6080 C.3   395  VAL395      0.0266
    167  CG1       37.2480   92.4850   40.0420 C.3   395  VAL395      0.0020
    168  CG2       38.9800   91.4950   38.4860 C.3   395  VAL395      0.0020
    169  N         37.5110   93.3690   35.6970 N.am  396  ALA396     -0.1966
    170  CA        37.8510   93.5240   34.2750 C.3   396  ALA396      0.1728
    171  C         38.9260   92.5290   33.8380 C.2   396  ALA396      0.2616
    172  O         38.8080   91.9160   32.7730 O.2   396  ALA396     -0.2715
    173  CB        38.3040   94.9480   33.9580 C.3   396  ALA396      0.0334
    174  N         39.9490   92.3090   34.6620 N.am  397  TYR397     -0.1974
    175  CA        40.9990   91.3510   34.3100 C.3   397  TYR397      0.1639
    176  C         40.9630   90.1230   35.2090 C.2   397  TYR397      0.2290
    177  O         41.9350   89.8170   35.8980 O.2   397  TYR397     -0.2864
    178  CB        42.3870   91.9980   34.3850 C.3   397  TYR397      0.0560
    179  CG        42.8480   92.6790   33.0870 C.ar  397  TYR397     -0.0198
    180  CD1       43.9030   92.1560   32.3250 C.ar  397  TYR397     -0.0009
    181  CD2       42.2390   93.8460   32.6340 C.ar  397  TYR397     -0.0009
    182  CE1       44.3260   92.7870   31.1600 C.ar  397  TYR397      0.0417
    183  CE2       42.6470   94.4660   31.4830 C.ar  397  TYR397      0.0417
    184  CZ        43.6910   93.9480   30.7480 C.ar  397  TYR397      0.1957
    185  OH        44.0730   94.6080   29.5930 O.3   397  TYR397     -0.2866
@<TRIPOS>BOND
     1    85    84    2
     2    84    83    1
     3    82    83    1
     4    87    86    1
     5    83    86    1
     6    56    57    1
     7    86    88    1
     8    58    57    1
     9    58    59    2
    10    57    60    1
    11    34    35    1
    12    34    33    1
    13    35    36    1
    14    60    61    1
    15    66    67    2
    16    66    65    1
    17    33    32    1
    18    32    29    1
    19    31    30    2
    20    61    62    2
    21    61    63   am
    22    64    65    1
    23    68    69    1
    24    68    65    1
    25    68    70    1
    26    71    72    1
    27    29    30    1
    28    29    28    1
    29    30    37   am
    30    73    72    1
    31    73    74    2
    32     7     1    1
    33     7     6    1
    34    72    75    1
    35    37    38    1
    36     1     2    1
    37    38    39    1
    38    38    41    1
    39    40    39    2
    40    28    26   am
    41    18    17    1
    42    18    19    1
    43   185   184    1
    44    17    14    1
    45    42    41    1
    46     6     5    1
    47    39    44   am
    48    27    26    2
    49    47    46    2
    50    26    25    1
    51    46    45    1
    52    16    15    2
    53   154   153    2
    54    41    43    1
    55    75    76    1
    56    19    20    1
    57     2     5    1
    58     2     3    1
    59    20    21    2
    60   184   182   ar
    61   184   183   ar
    62    15    14    1
    63    15    24   am
    64    14    13    1
    65    44    45    1
    66   182   180   ar
    67    76    77    1
    68    21    23    1
    69    21    22    1
    70   156   157    1
    71   156   155    1
    72   183   181   ar
    73    45    48    1
    74     3     4    2
    75     3     8   am
    76    25    24    1
    77   153   152    1
    78    13    10   am
    79   157   158    1
    80    80    79    1
    81    81    79    1
    82    79    78    2
    83   138   137   ar
    84   160   159    1
    85   139   137   ar
    86     8     9    1
    87    78    77    1
    88   180   179   ar
    89   152   155    1
    90   152   151    1
    91    50    52   ar
    92    50    49   ar
    93   158   159    2
    94   137   136    1
    95    48    49    1
    96   181   179   ar
    97   159   161    1
    98    10     9    1
    99    10    11    2
   100   172   171    2
   101    52    54   ar
   102   179   178    1
   103    49    51   ar
   104     9    12    1
   105   136   133    1
   106   171   170    1
   107   171   174   am
   108   173   170    1
   109    54    55    1
   110    54    53   ar
   111   148   150   ar
   112   148   146   ar
   113   170   169    1
   114   175   178    1
   115   175   174    1
   116   175   176    1
   117    51    53   ar
   118    96    94   am
   119   150   149   ar
   120   133   132    1
   121   133   134    1
   122   130   131    1
   123   130   129    1
   124   143   142    2
   125   146   145   ar
   126   176   177    2
   127   135   134    2
   128   132   127   am
   129   165   164    2
   130    94    93    1
   131    94    95    2
   132   128   127    2
   133   169   164   am
   134   149   147   ar
   135   124   123    1
   136   131   125    1
   137   127   126    1
   138   129   126    1
   139    93    90    1
   140   112   110    1
   141   164   163    1
   142   142   141    1
   143   145   147   ar
   144   145   144    1
   145   126   125    1
   146   141   144    1
   147   141   140    1
   148   125   121   am
   149   111   110    1
   150   123   120    1
   151   110   107    1
   152    90    91    1
   153    90    89    1
   154   120   121    1
   155   120   119    1
   156   121   122    2
   157   163   162    1
   158   163   166    1
   159    92    91    2
   160   107   106    1
   161   107   108    1
   162   168   166    1
   163   166   167    1
   164   119   115   am
   165   106    99   am
   166   102   101    1
   167   102   103    1
   168   116   115    2
   169   108   109    2
   170   115   114    1
   171   101    98    1
   172   105   103   ar
   173    99   100    2
   174    99    98    1
   175   118   117    1
   176   103   104   ar
   177    98    97    1
   178   117   114    1
   179   114   113    1
