@<TRIPOS>MOLECULE
tmp/5htlA00.pdb
 153 142 0 0 0
SMALL
GASTEIGER

@<TRIPOS>ATOM
      1  N         -4.4850  -15.5610   -3.3920 N.3     3  ARG3       -0.1245
      2  CA        -4.9890  -14.4050   -4.1030 C.3     3  ARG3        0.1563
      3  C         -5.8900  -14.8960   -5.2260 C.2     3  ARG3        0.2260
      4  O         -5.8470  -16.0760   -5.5910 O.2     3  ARG3       -0.2867
      5  CB        -3.8020  -13.6710   -4.7080 C.3     3  ARG3        0.0307
      6  CG        -3.0640  -14.5430   -5.7060 C.3     3  ARG3        0.0489
      7  CD        -1.6790  -14.0270   -6.0130 C.3     3  ARG3        0.2205
      8  NE        -0.7910  -14.2680   -4.8840 N.pl3   3  ARG3       -0.0865
      9  CZ         0.5250  -14.1150   -4.9230 C.cat   3  ARG3        0.5346
     10  NH1        1.1130  -13.7220   -6.0470 N.pl3   3  ARG3        0.1354
     11  NH2        1.2530  -14.3700   -3.8410 N.pl3   3  ARG3        0.1354
     12  N         -6.3520  -15.1740   -9.0230 N.3     5  ARG5       -0.1231
     13  CA        -5.3120  -15.0970  -10.0450 C.3     5  ARG5        0.1694
     14  C         -5.5320  -13.9150  -10.9850 C.2     5  ARG5        0.2592
     15  O         -6.6670  -13.4720  -11.2100 O.2     5  ARG5       -0.2718
     16  CB        -5.1040  -16.4230  -10.7790 C.3     5  ARG5        0.0321
     17  CG        -6.2870  -16.9100  -11.5390 C.3     5  ARG5        0.0489
     18  CD        -6.0360  -18.3170  -12.0470 C.3     5  ARG5        0.2205
     19  NE        -7.1340  -18.7440  -12.8920 N.pl3   5  ARG5       -0.0865
     20  CZ        -7.1940  -19.9240  -13.4940 C.cat   5  ARG5        0.5346
     21  NH1       -6.2120  -20.8030  -13.3400 N.pl3   5  ARG5        0.1354
     22  NH2       -8.2370  -20.2180  -14.2440 N.pl3   5  ARG5        0.1354
     23  N         -4.4340  -13.3940  -11.5150 N.am    6  LEU6       -0.1966
     24  CA        -4.4420  -12.0950  -12.1690 C.3     6  LEU6        0.1728
     25  C         -5.2910  -12.0500  -13.4290 C.2     6  LEU6        0.2617
     26  O         -6.0120  -11.0820  -13.6350 O.2     6  LEU6       -0.2715
     27  CB        -3.0090  -11.6290  -12.4580 C.3     6  LEU6        0.0311
     28  CG        -2.8970  -10.2200  -13.0330 C.3     6  LEU6        0.0022
     29  CD1       -3.3970   -9.1970  -12.0290 C.3     6  LEU6        0.0001
     30  CD2       -1.4590   -9.9430  -13.4340 C.3     6  LEU6        0.0001
     31  N         -5.2240  -13.0910  -14.2610 N.am    7  GLY7       -0.1940
     32  CA        -6.0230  -13.1340  -15.4770 C.3     7  GLY7        0.2014
     33  C         -7.5090  -12.9840  -15.1950 C.2     7  GLY7        0.2638
     34  O         -8.1670  -12.1040  -15.7580 O.2     7  GLY7       -0.2714
     35  N         -8.0370  -13.8320  -14.3160 N.am    8  ASP8       -0.1971
     36  CA        -9.4490  -13.7760  -13.9570 C.3     8  ASP8        0.1709
     37  C         -9.8330  -12.4280  -13.3790 C.2     8  ASP8        0.2293
     38  O        -10.9100  -11.9180  -13.6700 O.2     8  ASP8       -0.2864
     39  CB        -9.7960  -14.8910  -12.9690 C.3     8  ASP8        0.1436
     40  CG        -9.6630  -16.2730  -13.5800 C.2     8  ASP8        0.3671
     41  OD1       -9.9050  -16.4150  -14.7990 O.co2   8  ASP8       -0.2456
     42  OD2       -9.3140  -17.2130  -12.8370 O.co2   8  ASP8       -0.2456
     43  N         -6.7720  -13.0360  -22.8130 N.3    21  LEU21      -0.1245
     44  CA        -6.1700  -13.7890  -21.7200 C.3    21  LEU21       0.1561
     45  C         -5.6410  -15.1270  -22.2280 C.2    21  LEU21       0.2260
     46  O         -4.5030  -15.4940  -21.9440 O.2    21  LEU21      -0.2867
     47  CB        -7.1700  -14.0170  -20.5960 C.3    21  LEU21       0.0270
     48  CG        -6.6800  -14.8800  -19.4320 C.3    21  LEU21       0.0019
     49  CD1       -5.3370  -14.4010  -18.8340 C.3    21  LEU21       0.0001
     50  CD2       -7.7370  -14.9460  -18.3450 C.3    21  LEU21       0.0001
     51  N         -1.7490  -16.3590  -22.1830 N.3    25  LEU25      -0.1245
     52  CA        -1.3420  -17.5680  -21.4660 C.3    25  LEU25       0.1561
     53  C         -0.5920  -18.5010  -22.4060 C.2    25  LEU25       0.2260
     54  O          0.4270  -19.0780  -22.0210 O.2    25  LEU25      -0.2867
     55  CB        -2.5430  -18.2730  -20.8390 C.3    25  LEU25       0.0270
     56  CG        -3.1600  -17.5540  -19.6460 C.3    25  LEU25       0.0019
     57  CD1       -4.5040  -18.1960  -19.3170 C.3    25  LEU25       0.0001
     58  CD2       -2.2190  -17.5940  -18.4440 C.3    25  LEU25       0.0001
     59  N          2.9120  -16.7990  -23.1720 N.3    28  GLN28      -0.1245
     60  CA         3.8170  -16.6700  -22.0350 C.3    28  GLN28       0.1566
     61  C          4.7150  -17.9030  -21.8640 C.2    28  GLN28       0.2260
     62  O          5.8560  -17.7910  -21.3940 O.2    28  GLN28      -0.2867
     63  CB         2.9890  -16.4020  -20.7720 C.3    28  GLN28       0.0367
     64  CG         3.5350  -17.0150  -19.5100 C.3    28  GLN28       0.0905
     65  CD         2.6980  -16.6870  -18.2930 C.2    28  GLN28       0.2608
     66  OE1        1.5680  -17.1470  -18.1540 O.2    28  GLN28      -0.2717
     67  NE2        3.2690  -15.9200  -17.3850 N.am   28  GLN28      -0.0878
     68  N          8.6170  -14.8390  -18.9500 N.3    33  ARG33      -0.1231
     69  CA         7.8720  -13.6250  -18.6470 C.3    33  ARG33       0.1694
     70  C          6.5850  -13.9200  -17.8890 C.2    33  ARG33       0.2592
     71  O          5.9260  -14.9320  -18.1240 O.2    33  ARG33      -0.2718
     72  CB         7.5950  -12.8330  -19.9290 C.3    33  ARG33       0.0321
     73  CG         8.8780  -12.4120  -20.6460 C.3    33  ARG33       0.0489
     74  CD         8.8770  -10.9450  -21.0620 C.3    33  ARG33       0.2205
     75  NE        10.2370  -10.4060  -21.1300 N.pl3  33  ARG33      -0.0865
     76  CZ        11.0430  -10.5090  -22.1850 C.cat  33  ARG33       0.5346
     77  NH1       12.2630   -9.9880  -22.1400 N.pl3  33  ARG33       0.1354
     78  NH2       10.6390  -11.1310  -23.2840 N.pl3  33  ARG33       0.1354
     79  N          6.2470  -13.0500  -16.9530 N.am   34  ARG34      -0.1966
     80  CA         4.9980  -13.2140  -16.2230 C.3    34  ARG34       0.1729
     81  C          3.8000  -12.7490  -17.0570 C.2    34  ARG34       0.2616
     82  O          3.9660  -12.1440  -18.1240 O.2    34  ARG34      -0.2715
     83  CB         5.0770  -12.5250  -14.8620 C.3    34  ARG34       0.0348
     84  CG         6.2600  -13.0280  -14.0260 C.3    34  ARG34       0.0492
     85  CD         5.9190  -13.1100  -12.5500 C.3    34  ARG34       0.2205
     86  NE         7.0900  -13.4740  -11.7530 N.pl3  34  ARG34      -0.0865
     87  CZ         7.3860  -14.7070  -11.3480 C.cat  34  ARG34       0.5346
     88  NH1        6.6010  -15.7380  -11.6410 N.pl3  34  ARG34       0.1354
     89  NH2        8.4760  -14.9050  -10.6260 N.pl3  34  ARG34       0.1354
     90  N          2.5960  -13.0590  -16.5790 N.am   35  LEU35      -0.1963
     91  CA         1.3950  -12.8320  -17.3630 C.3    35  LEU35       0.1728
     92  C          1.1230  -11.3590  -17.6520 C.2    35  LEU35       0.2617
     93  O          0.7760  -11.0000  -18.7800 O.2    35  LEU35      -0.2715
     94  CB         0.1780  -13.4520  -16.6700 C.3    35  LEU35       0.0311
     95  CG        -1.1740  -13.2060  -17.3430 C.3    35  LEU35       0.0022
     96  CD1       -1.2130  -13.7800  -18.7610 C.3    35  LEU35       0.0001
     97  CD2       -2.2730  -13.7880  -16.4680 C.3    35  LEU35       0.0001
     98  N          1.2730  -10.5100  -16.6410 N.am   36  GLY36      -0.1940
     99  CA         1.0140   -9.0880  -16.8050 C.3    36  GLY36       0.2014
    100  C          1.8970   -8.4870  -17.8830 C.2    36  GLY36       0.2638
    101  O          1.4200   -7.7820  -18.7810 O.2    36  GLY36      -0.2714
    102  N          3.1940   -8.7730  -17.8040 N.am   37  ASP37      -0.1971
    103  CA         4.1460   -8.2740  -18.7930 C.3    37  ASP37       0.1709
    104  C          3.8480   -8.8330  -20.1900 C.2    37  ASP37       0.2293
    105  O          4.0600   -8.1600  -21.1960 O.2    37  ASP37      -0.2864
    106  CB         5.5820   -8.5700  -18.3390 C.3    37  ASP37       0.1436
    107  CG         6.0450   -7.6550  -17.1980 C.2    37  ASP37       0.3671
    108  OD1        5.5480   -6.5110  -17.0760 O.co2  37  ASP37      -0.2456
    109  OD2        6.9260   -8.0850  -16.4240 O.co2  37  ASP37      -0.2456
    110  N         -1.4550   -2.5310  -14.8610 N.3    50  LEU50      -0.1245
    111  CA        -0.8370   -3.6490  -14.1540 C.3    50  LEU50       0.1561
    112  C         -0.5180   -3.3060  -12.6950 C.2    50  LEU50       0.2260
    113  O         -0.8170   -4.0920  -11.7920 O.2    50  LEU50      -0.2867
    114  CB         0.4110   -4.1410  -14.8860 C.3    50  LEU50       0.0270
    115  CG         1.1790   -5.2830  -14.2000 C.3    50  LEU50       0.0019
    116  CD1        0.2500   -6.4880  -13.9880 C.3    50  LEU50       0.0001
    117  CD2        2.4290   -5.6580  -14.9940 C.3    50  LEU50       0.0001
    118  N         -2.3110   -5.3490   -9.7190 N.3    54  LEU54      -0.1245
    119  CA        -1.4560   -6.1010   -8.7990 C.3    54  LEU54       0.1561
    120  C         -1.7350   -5.6340   -7.3720 C.2    54  LEU54       0.2260
    121  O         -1.8660   -6.4440   -6.4570 O.2    54  LEU54      -0.2867
    122  CB         0.0190   -5.8940   -9.1380 C.3    54  LEU54       0.0270
    123  CG         0.5640   -6.7160  -10.3010 C.3    54  LEU54       0.0019
    124  CD1        2.0040   -6.3210  -10.6160 C.3    54  LEU54       0.0001
    125  CD2        0.4660   -8.2050   -9.9970 C.3    54  LEU54       0.0001
    126  N         -5.0290   -7.1520   -6.3690 N.3    57  GLN57      -0.1245
    127  CA        -4.8180   -8.5830   -6.1520 C.3    57  GLN57       0.1566
    128  C         -4.1590   -8.9040   -4.8140 C.2    57  GLN57       0.2260
    129  O         -4.5580   -9.8420   -4.1100 O.2    57  GLN57      -0.2867
    130  CB        -3.9600   -9.1570   -7.2750 C.3    57  GLN57       0.0367
    131  CG        -3.7590  -10.6570   -7.1400 C.3    57  GLN57       0.0905
    132  CD        -2.7190  -11.2150   -8.0810 C.2    57  GLN57       0.2608
    133  OE1       -1.6210  -10.6660   -8.2100 O.2    57  GLN57      -0.2717
    134  NE2       -3.0540  -12.3220   -8.7420 N.am   57  GLN57      -0.0878
    135  N          8.7500   -2.4500   -6.0350 N.3   102  SER102     -0.1202
    136  CA         8.2540   -2.4070   -7.4030 C.3   102  SER102      0.2020
    137  C          7.5100   -3.7030   -7.7050 C.2   102  SER102      0.2618
    138  O          6.5660   -3.7200   -8.4930 O.2   102  SER102     -0.2717
    139  CB         9.4100   -2.2470   -8.3820 C.3   102  SER102      0.2103
    140  OG        10.0600   -3.4780   -8.5680 O.3   102  SER102     -0.2182
    141  N          7.9260   -4.7900   -7.0660 N.am  103  ASP103     -0.1973
    142  CA         7.2650   -6.0770   -7.2670 C.3   103  ASP103      0.1709
    143  C          7.0420   -6.8280   -5.9550 C.2   103  ASP103      0.2293
    144  O          7.8160   -7.7000   -5.5910 O.2   103  ASP103     -0.2864
    145  CB         8.0530   -6.9380   -8.2600 C.3   103  ASP103      0.1436
    146  CG         7.3250   -8.2100   -8.6340 C.2   103  ASP103      0.3671
    147  OD1        6.1680   -8.3800   -8.2070 O.co2 103  ASP103     -0.2456
    148  OD2        7.9250   -9.0340   -9.3600 O.co2 103  ASP103     -0.2456
    149  N          4.9770   -9.0410   -5.4420 N.3   105  ALA105     -0.1245
    150  CA         4.6850  -10.4340   -5.7980 C.3   105  ALA105      0.1562
    151  C          5.9550  -11.2690   -5.9840 C.2   105  ALA105      0.2260
    152  O          5.8840  -12.4820   -6.1910 O.2   105  ALA105     -0.2867
    153  CB         3.8310  -10.4870   -7.0540 C.3   105  ALA105      0.0290
@<TRIPOS>BOND
     1    78    76    1
     2    59    60    1
     3    43    44    1
     4    53    54    2
     5    53    52    1
     6    45    46    2
     7    45    44    1
     8    76    77    1
     9    76    75    2
    10    51    52    1
    11    60    61    1
    12    60    63    1
    13    61    62    2
    14    44    47    1
    15    52    55    1
    16   105   104    2
    17    75    74    1
    18    74    73    1
    19    55    56    1
    20    63    64    1
    21    73    72    1
    22    47    48    1
    23   104   103    1
    24    72    69    1
    25    56    57    1
    26    56    58    1
    27    64    65    1
    28    48    49    1
    29    48    50    1
    30    68    69    1
    31   103   106    1
    32   103   102    1
    33   101   100    2
    34    93    92    2
    35    96    95    1
    36    69    70    1
    37   106   107    1
    38    65    66    2
    39    65    67   am
    40    71    70    2
    41    82    81    2
    42    70    79   am
    43   100   102   am
    44   100    99    1
    45    92    91    1
    46    92    98   am
    47    91    94    1
    48    91    90    1
    49    95    94    1
    50    95    97    1
    51   107   108   ar
    52   107   109   ar
    53    81    90   am
    54    81    80    1
    55    79    80    1
    56    99    98    1
    57    80    83    1
    58    34    33    2
    59    32    33    1
    60    32    31    1
    61    33    35   am
    62   117   115    1
    63   114   115    1
    64   114   111    1
    65    83    84    1
    66   110   111    1
    67    41    40   ar
    68    35    36    1
    69    31    25   am
    70    22    20    1
    71   115   116    1
    72   111   112    1
    73    84    85    1
    74    36    37    1
    75    36    39    1
    76    38    37    2
    77    26    25    2
    78    40    39    1
    79    40    42   ar
    80    20    21    1
    81    20    19    2
    82    30    28    1
    83    25    24    1
    84    28    27    1
    85    28    29    1
    86    19    18    1
    87   112   113    2
    88    85    86    1
    89    27    24    1
    90    24    23    1
    91    18    17    1
    92    86    87    2
    93    88    87    1
    94    17    16    1
    95    23    14   am
    96    87    89    1
    97    15    14    2
    98    14    13    1
    99    16    13    1
   100   124   123    1
   101   123   125    1
   102   123   122    1
   103    13    12    1
   104   118   119    1
   105   148   146   ar
   106   122   119    1
   107   119   120    1
   108   134   132   am
   109   146   145    1
   110   146   147   ar
   111   140   139    1
   112   138   137    2
   113   139   136    1
   114   145   142    1
   115   133   132    2
   116   132   131    1
   117   137   136    1
   118   137   141   am
   119   136   135    1
   120   120   121    2
   121   130   131    1
   122   130   127    1
   123   142   141    1
   124   142   143    1
   125   153   150    1
   126   126   127    1
   127   152   151    2
   128   127   128    1
   129    10     9    1
   130     7     6    1
   131     7     8    1
   132   151   150    1
   133   143   144    2
   134   150   149    1
   135     6     5    1
   136     4     3    2
   137     3     2    1
   138     9     8    2
   139     9    11    1
   140   128   129    2
   141     5     2    1
   142     2     1    1
