@<TRIPOS>MOLECULE
tmp/5htpA00.pdb
 135 128 0 0 0
SMALL
GASTEIGER

@<TRIPOS>ATOM
      1  N        -15.4360    4.8290   12.2430 N.3   239  SER239     -0.1202
      2  CA       -15.2370    3.4060   12.0500 C.3   239  SER239      0.2020
      3  C        -15.4060    3.0700   10.5680 C.2   239  SER239      0.2619
      4  O        -16.5040    3.1770   10.0110 O.2   239  SER239     -0.2717
      5  CB       -16.2020    2.6010   12.9300 C.3   239  SER239      0.2103
      6  OG       -16.0670    1.2110   12.7000 O.3   239  SER239     -0.2182
      7  N        -14.2910    2.7030    9.9390 N.am  240  LEU240     -0.1965
      8  CA       -14.2640    2.2940    8.5400 C.3   240  LEU240      0.1728
      9  C        -14.3970    0.7820    8.4360 C.2   240  LEU240      0.2617
     10  O        -13.4570    0.0920    8.0470 O.2   240  LEU240     -0.2715
     11  CB       -12.9700    2.7540    7.8560 C.3   240  LEU240      0.0311
     12  CG       -12.6670    4.2580    7.7920 C.3   240  LEU240      0.0022
     13  CD1      -11.2890    4.5000    7.1950 C.3   240  LEU240      0.0001
     14  CD2      -13.7210    5.0030    6.9970 C.3   240  LEU240      0.0001
     15  N        -15.5660    0.2690    8.8000 N.am  241  GLY241     -0.1940
     16  CA       -15.8190   -1.1570    8.7330 C.3   241  GLY241      0.2014
     17  C        -16.6400   -1.5240    7.5130 C.2   241  GLY241      0.2640
     18  O        -16.4990   -0.9190    6.4480 O.2   241  GLY241     -0.2714
     19  N        -17.5010   -2.5210    7.6700 N.am  242  SER242     -0.1935
     20  CA       -18.3910   -2.9390    6.5980 C.3   242  SER242      0.2055
     21  C        -19.2830   -1.7690    6.2190 C.2   242  SER242      0.2643
     22  O        -19.5800   -1.5590    5.0460 O.2   242  SER242     -0.2714
     23  CB       -19.2260   -4.1440    7.0240 C.3   242  SER242      0.2130
     24  OG       -18.3950   -5.1850    7.5080 O.3   242  SER242     -0.2179
     25  N        -19.7040   -1.0090    7.2260 N.am  243  THR243     -0.1950
     26  CA       -20.3480    0.2760    6.9930 C.3   243  THR243      0.1897
     27  C        -19.5460    1.3520    7.6980 C.2   243  THR243      0.2313
     28  O        -18.9070    1.0920    8.7150 O.2   243  THR243     -0.2863
     29  CB       -21.8120    0.3070    7.4810 C.3   243  THR243      0.1794
     30  OG1      -21.8660    0.0490    8.8890 O.3   243  THR243     -0.2208
     31  CG2      -22.6450   -0.7290    6.7350 C.3   243  THR243      0.0378
     32  N        -17.0270   -0.7240    3.7980 N.3   280  GLY280     -0.1210
     33  CA       -16.0830   -1.7000    3.2920 C.3   280  GLY280      0.1956
     34  C        -16.7040   -2.8560    2.5270 C.2   280  GLY280      0.2611
     35  O        -16.0290   -3.4940    1.7230 O.2   280  GLY280     -0.2717
     36  N        -17.9790   -3.1390    2.7870 N.am  281  ALA281     -0.1979
     37  CA       -18.6920   -4.1970    2.0750 C.3   281  ALA281      0.1597
     38  C        -18.6850   -3.9300    0.5710 C.2   281  ALA281      0.2287
     39  O        -18.5000   -4.8430   -0.2350 O.2   281  ALA281     -0.2864
     40  CB       -20.1150   -4.3190    2.5880 C.3   281  ALA281      0.0319
     41  N        -16.3690   -2.3130   -1.0130 N.3   283  LEU283     -0.1231
     42  CA       -15.0110   -2.6420   -1.4210 C.3   283  LEU283      0.1693
     43  C        -14.8600   -4.1510   -1.6050 C.2   283  LEU283      0.2591
     44  O        -14.2090   -4.6180   -2.5390 O.2   283  LEU283     -0.2718
     45  CB       -14.0030   -2.1300   -0.3900 C.3   283  LEU283      0.0284
     46  CG       -13.9310   -0.6140   -0.1860 C.3   283  LEU283      0.0019
     47  CD1      -12.9040   -0.2600    0.8860 C.3   283  LEU283      0.0001
     48  CD2      -13.6050    0.0890   -1.4990 C.3   283  LEU283      0.0001
     49  N        -15.4850   -4.8980   -0.7030 N.am  284  ARG284     -0.1980
     50  CA       -15.4200   -6.3460   -0.6870 C.3   284  ARG284      0.1597
     51  C        -16.0680   -6.9290   -1.9430 C.2   284  ARG284      0.2287
     52  O        -15.7090   -8.0140   -2.3840 O.2   284  ARG284     -0.2864
     53  CB       -16.1020   -6.8890    0.5740 C.3   284  ARG284      0.0334
     54  CG       -15.8910   -8.3730    0.8250 C.3   284  ARG284      0.0492
     55  CD       -14.6570   -8.6210    1.6760 C.3   284  ARG284      0.2205
     56  NE       -14.9870   -8.7870    3.0890 N.pl3 284  ARG284     -0.0865
     57  CZ       -14.0870   -8.8120    4.0670 C.cat 284  ARG284      0.5346
     58  NH1      -12.8000   -8.6620    3.7890 N.pl3 284  ARG284      0.1354
     59  NH2      -14.4760   -8.9720    5.3240 N.pl3 284  ARG284      0.1354
     60  N         -9.1970   -8.3550    0.8600 N.3   289  ASP289     -0.1239
     61  CA        -8.3180   -7.4500    1.5970 C.3   289  ASP289      0.1674
     62  C         -6.8990   -7.3810    1.0240 C.2   289  ASP289      0.2266
     63  O         -6.3110   -6.3010    0.9490 O.2   289  ASP289     -0.2867
     64  CB        -8.2690   -7.8580    3.0710 C.3   289  ASP289      0.1410
     65  CG        -9.6400   -7.8430    3.7180 C.2   289  ASP289      0.3668
     66  OD1      -10.5930   -7.3740    3.0640 O.co2 289  ASP289     -0.2456
     67  OD2       -9.7680   -8.2900    4.8750 O.co2 289  ASP289     -0.2456
     68  N         -6.8000   -5.2180   -1.7390 N.3   292  LEU292     -0.1231
     69  CA        -6.9910   -3.8510   -1.2560 C.3   292  LEU292      0.1693
     70  C         -5.6620   -3.2340   -0.8360 C.2   292  LEU292      0.2591
     71  O         -5.3790   -2.0830   -1.1570 O.2   292  LEU292     -0.2718
     72  CB        -7.9760   -3.8100   -0.0860 C.3   292  LEU292      0.0284
     73  CG        -9.4550   -3.9720   -0.4300 C.3   292  LEU292      0.0019
     74  CD1      -10.3120   -3.7930    0.8180 C.3   292  LEU292      0.0001
     75  CD2       -9.8510   -2.9850   -1.5240 C.3   292  LEU292      0.0001
     76  N         -4.8450   -4.0060   -0.1230 N.am  293  GLU293     -0.1979
     77  CA        -3.5160   -3.5390    0.2580 C.3   293  GLU293      0.1602
     78  C         -2.6380   -3.3070   -0.9710 C.2   293  GLU293      0.2287
     79  O         -2.1640   -2.1810   -1.2140 O.2   293  GLU293     -0.2864
     80  CB        -2.8420   -4.5400    1.1990 C.3   293  GLU293      0.0415
     81  CG        -3.4840   -4.6280    2.5670 C.3   293  GLU293      0.1163
     82  CD        -2.6890   -5.4960    3.5230 C.2   293  GLU293      0.3649
     83  OE1       -3.0300   -5.5260    4.7250 O.co2 293  GLU293     -0.2457
     84  OE2       -1.7230   -6.1480    3.0720 O.co2 293  GLU293     -0.2457
     85  N        -12.4800    4.7270   -3.0690 N.3   345  LEU345     -0.1245
     86  CA       -11.9530    5.2990   -1.8340 C.3   345  LEU345      0.1561
     87  C        -12.3200    6.7820   -1.7410 C.2   345  LEU345      0.2260
     88  O        -12.7170    7.2610   -0.6820 O.2   345  LEU345     -0.2867
     89  CB       -10.4330    5.1060   -1.7470 C.3   345  LEU345      0.0270
     90  CG        -9.8480    3.6870   -1.6830 C.3   345  LEU345      0.0019
     91  CD1       -8.3530    3.7290   -1.3480 C.3   345  LEU345      0.0001
     92  CD2      -10.5970    2.8000   -0.6940 C.3   345  LEU345      0.0001
     93  N        -11.6630    0.2750   12.8610 N.3   374  GLY374     -0.1210
     94  CA       -12.2320   -0.6260   11.8770 C.3   374  GLY374      0.1956
     95  C        -11.2350   -1.0490   10.8170 C.2   374  GLY374      0.2612
     96  O        -10.0650   -0.6480   10.8460 O.2   374  GLY374     -0.2717
     97  N        -11.7150   -1.8460    9.8650 N.am  375  GLY375     -0.1942
     98  CA       -10.8640   -2.4770    8.8750 C.3   375  GLY375      0.2014
     99  C        -10.1030   -1.5590    7.9390 C.2   375  GLY375      0.2639
    100  O         -9.0360   -1.9250    7.4580 O.2   375  GLY375     -0.2714
    101  N        -10.6360   -0.3720    7.6720 N.am  376  GLY376     -0.1954
    102  CA        -9.9760    0.5670    6.7750 C.3   376  GLY376      0.1869
    103  C         -9.0650    1.5730    7.4680 C.2   376  GLY376      0.2309
    104  O         -8.4670    2.4310    6.8160 O.2   376  GLY376     -0.2863
    105  N         -6.2060    1.2960    8.8640 N.3   378  LYS378     -0.1231
    106  CA        -4.7900    1.1340    8.5570 C.3   378  LYS378      0.1693
    107  C         -4.4160    1.6050    7.1480 C.2   378  LYS378      0.2592
    108  O         -3.2350    1.7690    6.8470 O.2   378  LYS378     -0.2718
    109  CB        -4.3880   -0.3300    8.7300 C.3   378  LYS378      0.0285
    110  CG        -3.4190   -0.5770    9.8690 C.3   378  LYS378      0.0035
    111  CD        -4.0980   -0.5190   11.2280 C.3   378  LYS378      0.0206
    112  CE        -3.0840   -0.7340   12.3470 C.3   378  LYS378      0.1093
    113  NZ        -2.3640   -2.0400   12.2180 N.3   378  LYS378     -0.1314
    114  N         -5.4150    1.8150    6.2890 N.am  379  ASN379     -0.1974
    115  CA        -5.1720    2.2680    4.9180 C.3   379  ASN379      0.1688
    116  C         -4.7950    3.7510    4.8540 C.2   379  ASN379      0.2292
    117  O         -5.6610    4.6270    4.8830 O.2   379  ASN379     -0.2864
    118  CB        -6.4030    2.0050    4.0450 C.3   379  ASN379      0.1181
    119  CG        -6.1180    2.1770    2.5560 C.2   379  ASN379      0.2629
    120  OD1       -5.2620    2.9610    2.1570 O.2   379  ASN379     -0.2716
    121  ND2       -6.8480    1.4400    1.7320 N.am  379  ASN379     -0.0877
    122  N         -6.1680    5.9760    1.8590 N.3   382  TRP382     -0.1241
    123  CA        -7.5290    6.3400    2.2170 C.3   382  TRP382      0.1605
    124  C         -7.5150    7.4380    3.2820 C.2   382  TRP382      0.2264
    125  O         -8.2820    8.4000    3.2080 O.2   382  TRP382     -0.2867
    126  CB        -8.2860    5.1060    2.7170 C.3   382  TRP382      0.0550
    127  CG        -9.7710    5.2730    2.8140 C.ar  382  TRP382      0.0003
    128  CD1      -10.4940    6.3900    2.5180 C.ar  382  TRP382      0.0946
    129  CD2      -10.7170    4.2780    3.2220 C.ar  382  TRP382      0.0152
    130  NE1      -11.8290    6.1570    2.7240 N.ar  382  TRP382     -0.2442
    131  CE2      -11.9940    4.8660    3.1570 C.ar  382  TRP382      0.0810
    132  CE3      -10.6080    2.9460    3.6430 C.ar  382  TRP382      0.0012
    133  CZ2      -13.1570    4.1720    3.5000 C.ar  382  TRP382      0.0191
    134  CZ3      -11.7660    2.2560    3.9790 C.ar  382  TRP382      0.0001
    135  CH2      -13.0210    2.8700    3.9050 C.ar  382  TRP382      0.0015
@<TRIPOS>BOND
     1    85    86    1
     2    44    43    2
     3    52    51    2
     4    51    50    1
     5    86    89    1
     6    86    87    1
     7    89    90    1
     8    87    88    2
     9    68    69    1
    10    90    91    1
    11    90    92    1
    12    43    42    1
    13    43    49   am
    14    75    73    1
    15    48    46    1
    16    42    41    1
    17    42    45    1
    18    69    70    1
    19    69    72    1
    20    79    78    2
    21    71    70    2
    22    78    77    1
    23    70    76   am
    24    49    50    1
    25    50    53    1
    26    73    72    1
    27    73    74    1
    28    45    46    1
    29    39    38    2
    30    46    47    1
    31    76    77    1
    32    77    80    1
    33    38    37    1
    34    53    54    1
    35    54    55    1
    36    60    61    1
    37    63    62    2
    38    62    61    1
    39    80    81    1
    40    61    64    1
    41    55    56    1
    42    35    34    2
    43   121   119   am
    44   122   123    1
    45    37    40    1
    46    37    36    1
    47   120   119    2
    48   123   126    1
    49   123   124    1
    50   128   130   ar
    51   128   127   ar
    52    34    36   am
    53    34    33    1
    54   119   118    1
    55    81    82    1
    56   126   127    1
    57   130   131   ar
    58   127   129   ar
    59    66    65   ar
    60    64    65    1
    61    84    82   ar
    62    56    57    2
    63   131   129   ar
    64   131   133   ar
    65   125   124    2
    66   129   132   ar
    67    33    32    1
    68   133   135   ar
    69    82    83   ar
    70   132   134   ar
    71    65    67   ar
    72    58    57    1
    73   135   134   ar
    74   118   115    1
    75    57    59    1
    76   116   117    2
    77   116   115    1
    78   115   114    1
    79    22    21    2
    80    21    20    1
    81    21    25   am
    82   114   107   am
    83    18    17    2
    84    20    23    1
    85    20    19    1
    86    31    29    1
    87   102   103    1
    88   102   101    1
    89   104   103    2
    90   108   107    2
    91    26    25    1
    92    26    29    1
    93    26    27    1
    94    14    12    1
    95    23    24    1
    96   107   106    1
    97    13    12    1
    98   100    99    2
    99    29    30    1
   100    17    19   am
   101    17    16    1
   102   101    99   am
   103    27    28    2
   104    12    11    1
   105    11     8    1
   106    99    98    1
   107    10     9    2
   108     9     8    1
   109     9    15   am
   110     8     7    1
   111   106   109    1
   112   106   105    1
   113   109   110    1
   114    16    15    1
   115    98    97    1
   116    97    95   am
   117   110   111    1
   118     7     3   am
   119     4     3    2
   120     3     2    1
   121    95    96    2
   122    95    94    1
   123   111   112    1
   124    94    93    1
   125     2     1    1
   126     2     5    1
   127   113   112    1
   128     6     5    1
