@<TRIPOS>MOLECULE
tmp/5htvA00.pdb
 135 128 0 0 0
SMALL
GASTEIGER

@<TRIPOS>ATOM
      1  N        -53.7040    6.5860  112.6490 N.3   245  SER245     -0.1202
      2  CA       -53.2610    5.6750  113.6890 C.3   245  SER245      0.2020
      3  C        -53.1860    4.2680  113.1210 C.2   245  SER245      0.2619
      4  O        -54.2140    3.6660  112.7650 O.2   245  SER245     -0.2717
      5  CB       -54.1920    5.7000  114.8950 C.3   245  SER245      0.2103
      6  OG       -54.2750    7.0060  115.4410 O.3   245  SER245     -0.2182
      7  N        -51.9480    3.7980  112.9900 N.am  246  LEU246     -0.1965
      8  CA       -51.6600    2.4560  112.5150 C.3   246  LEU246      0.1728
      9  C        -51.5850    1.5580  113.7360 C.2   246  LEU246      0.2617
     10  O        -50.4980    1.1510  114.1570 O.2   246  LEU246     -0.2715
     11  CB       -50.3520    2.4300  111.7220 C.3   246  LEU246      0.0311
     12  CG       -50.3520    3.2350  110.4170 C.3   246  LEU246      0.0022
     13  CD1      -48.9750    3.1780  109.7640 C.3   246  LEU246      0.0001
     14  CD2      -51.4060    2.7030  109.4570 C.3   246  LEU246      0.0001
     15  N        -52.7460    1.2720  114.3070 N.am  247  GLY247     -0.1940
     16  CA       -52.8370    0.4730  115.5140 C.3   247  GLY247      0.2014
     17  C        -53.3510   -0.9000  115.1530 C.2   247  GLY247      0.2640
     18  O        -53.1320   -1.3590  114.0320 O.2   247  GLY247     -0.2714
     19  N        -54.0350   -1.5510  116.0920 N.am  248  SER248     -0.1935
     20  CA       -54.6370   -2.8500  115.8230 C.3   248  SER248      0.2055
     21  C        -55.6160   -2.7220  114.6570 C.2   248  SER248      0.2643
     22  O        -55.7640   -3.6400  113.8480 O.2   248  SER248     -0.2714
     23  CB       -55.3390   -3.3930  117.0710 C.3   248  SER248      0.2130
     24  OG       -56.4630   -2.5900  117.4090 O.3   248  SER248     -0.2179
     25  N        -56.2760   -1.5710  114.5770 N.am  249  THR249     -0.1950
     26  CA       -57.0880   -1.2320  113.4140 C.3   249  THR249      0.1897
     27  C        -56.6280    0.0990  112.8420 C.2   249  THR249      0.2313
     28  O        -55.9000    0.8420  113.4980 O.2   249  THR249     -0.2863
     29  CB       -58.5730   -1.1390  113.7460 C.3   249  THR249      0.1794
     30  OG1      -58.7680   -0.1470  114.7570 O.3   249  THR249     -0.2208
     31  CG2      -59.1000   -2.4870  114.2290 C.3   249  THR249      0.0378
     32  N        -53.1390   -3.4440  112.1480 N.3   286  GLY286     -0.1210
     33  CA       -52.1870   -4.1920  112.9500 C.3   286  GLY286      0.1956
     34  C        -52.6230   -5.5780  113.3980 C.2   286  GLY286      0.2611
     35  O        -51.7900   -6.4710  113.5540 O.2   286  GLY286     -0.2717
     36  N        -53.9160   -5.7640  113.6290 N.am  287  ALA287     -0.1979
     37  CA       -54.4060   -7.0510  114.1220 C.3   287  ALA287      0.1597
     38  C        -54.1170   -8.1580  113.1070 C.2   287  ALA287      0.2287
     39  O        -53.5680   -9.2140  113.4550 O.2   287  ALA287     -0.2864
     40  CB       -55.8890   -6.9710  114.4290 C.3   287  ALA287      0.0319
     41  N        -51.8940   -7.9680  110.6660 N.3   289  LEU289     -0.1231
     42  CA       -50.4340   -8.0630  110.5910 C.3   289  LEU289      0.1693
     43  C        -49.8630   -8.9840  111.6750 C.2   289  LEU289      0.2591
     44  O        -48.9970   -9.8110  111.4010 O.2   289  LEU289     -0.2718
     45  CB       -49.7900   -6.6790  110.7020 C.3   289  LEU289      0.0284
     46  CG       -49.7780   -5.8790  109.4000 C.3   289  LEU289      0.0019
     47  CD1      -49.4280   -4.4280  109.6880 C.3   289  LEU289      0.0001
     48  CD2      -48.7910   -6.4830  108.4040 C.3   289  LEU289      0.0001
     49  N        -50.3660   -8.8320  112.8970 N.am  290  ARG290     -0.1980
     50  CA       -49.9410   -9.6300  114.0500 C.3   290  ARG290      0.1597
     51  C        -50.3460  -11.0860  113.8740 C.2   290  ARG290      0.2287
     52  O        -49.6010  -11.9990  114.2540 O.2   290  ARG290     -0.2864
     53  CB       -50.5350   -9.0500  115.3400 C.3   290  ARG290      0.0334
     54  CG       -50.4140   -9.9120  116.6020 C.3   290  ARG290      0.0492
     55  CD       -49.0040   -9.9320  117.1920 C.3   290  ARG290      0.2205
     56  NE       -48.4510   -8.5990  117.4440 N.pl3 290  ARG290     -0.0865
     57  CZ       -48.6190   -7.9010  118.5640 C.cat 290  ARG290      0.5346
     58  NH1      -49.3450   -8.3930  119.5590 N.pl3 290  ARG290      0.1354
     59  NH2      -48.0630   -6.7010  118.6860 N.pl3 290  ARG290      0.1354
     60  N        -43.8580   -8.9230  115.8470 N.3   295  ASP295     -0.1239
     61  CA       -43.2640   -7.5920  115.7210 C.3   295  ASP295      0.1674
     62  C        -41.8350   -7.6800  115.1860 C.2   295  ASP295      0.2266
     63  O        -41.3930   -6.8380  114.3910 O.2   295  ASP295     -0.2867
     64  CB       -43.2810   -6.8640  117.0650 C.3   295  ASP295      0.1410
     65  CG       -44.6530   -6.3200  117.4140 C.2   295  ASP295      0.3668
     66  OD1      -44.7410   -5.4590  118.3190 O.co2 295  ASP295     -0.2456
     67  OD2      -45.6410   -6.7450  116.7770 O.co2 295  ASP295     -0.2456
     68  N        -41.9250   -8.4850  111.4700 N.3   298  LEU298     -0.1231
     69  CA       -42.2540   -7.2560  110.7560 C.3   298  LEU298      0.1693
     70  C        -40.9970   -6.3990  110.6090 C.2   298  LEU298      0.2591
     71  O        -40.6660   -5.9620  109.5080 O.2   298  LEU298     -0.2718
     72  CB       -43.3670   -6.4860  111.4710 C.3   298  LEU298      0.0284
     73  CG       -44.7490   -7.1440  111.4230 C.3   298  LEU298      0.0019
     74  CD1      -45.7260   -6.4270  112.3470 C.3   298  LEU298      0.0001
     75  CD2      -45.2860   -7.1590  109.9950 C.3   298  LEU298      0.0001
     76  N        -40.2970   -6.1830  111.7210 N.am  299  GLU299     -0.1979
     77  CA       -38.9710   -5.5470  111.7160 C.3   299  GLU299      0.1602
     78  C        -38.0260   -6.0390  110.6000 C.2   299  GLU299      0.2287
     79  O        -37.6330   -5.2910  109.6580 O.2   299  GLU299     -0.2864
     80  CB       -38.3020   -5.7940  113.0730 C.3   299  GLU299      0.0415
     81  CG       -38.2760   -4.6110  114.0020 C.3   299  GLU299      0.1163
     82  CD       -37.4980   -3.4700  113.4170 C.2   299  GLU299      0.3649
     83  OE1      -36.5110   -3.7390  112.6910 O.co2 299  GLU299     -0.2457
     84  OE2      -37.8740   -2.3050  113.6800 O.co2 299  GLU299     -0.2457
     85  N        -48.5190   -4.2030  103.3150 N.3   351  LEU351     -0.1245
     86  CA       -48.2880   -2.8280  103.7450 C.3   351  LEU351      0.1561
     87  C        -48.7850   -1.8450  102.6900 C.2   351  LEU351      0.2260
     88  O        -49.4010   -0.8210  102.9980 O.2   351  LEU351     -0.2867
     89  CB       -46.7930   -2.6020  104.0230 C.3   351  LEU351      0.0270
     90  CG       -46.1700   -3.4240  105.1630 C.3   351  LEU351      0.0019
     91  CD1      -44.7080   -3.0060  105.3820 C.3   351  LEU351      0.0001
     92  CD2      -46.9600   -3.2780  106.4560 C.3   351  LEU351      0.0001
     93  N        -49.4280    5.2430  116.3930 N.3   380  GLY380     -0.1210
     94  CA       -49.6140    3.8070  116.5180 C.3   380  GLY380      0.1956
     95  C        -48.3430    3.0220  116.2360 C.2   380  GLY380      0.2612
     96  O        -47.3260    3.5950  115.8270 O.2   380  GLY380     -0.2717
     97  N        -48.4060    1.7040  116.4460 N.am  381  GLY381     -0.1942
     98  CA       -47.2670    0.8240  116.2330 C.3   381  GLY381      0.2014
     99  C        -46.6530    0.9630  114.8510 C.2   381  GLY381      0.2639
    100  O        -45.4230    0.9770  114.6830 O.2   381  GLY381     -0.2714
    101  N        -47.5120    1.1170  113.8520 N.am  382  GLY382     -0.1954
    102  CA       -47.0520    1.2230  112.4790 C.3   382  GLY382      0.1869
    103  C        -46.1640    2.4240  112.2310 C.2   382  GLY382      0.2309
    104  O        -45.3930    2.4520  111.2690 O.2   382  GLY382     -0.2863
    105  N        -43.5790    3.2670  113.7430 N.3   384  LYS384     -0.1231
    106  CA       -42.1350    3.0670  113.9290 C.3   384  LYS384      0.1693
    107  C        -41.4820    2.4040  112.7090 C.2   384  LYS384      0.2592
    108  O        -40.2720    2.2410  112.6560 O.2   384  LYS384     -0.2718
    109  CB       -41.8430    2.2490  115.1900 C.3   384  LYS384      0.0285
    110  CG       -42.5190    0.9030  115.2450 C.3   384  LYS384      0.0035
    111  CD       -42.5440    0.3430  116.6770 C.3   384  LYS384      0.0206
    112  CE       -43.6060   -0.7430  116.7920 C.3   384  LYS384      0.1093
    113  NZ       -43.9460   -1.0990  118.2020 N.3   384  LYS384     -0.1314
    114  N        -42.2900    2.0510  111.7190 N.am  385  ASN385     -0.1974
    115  CA       -41.7880    1.3990  110.5160 C.3   385  ASN385      0.1688
    116  C        -41.5250    2.4220  109.4140 C.2   385  ASN385      0.2292
    117  O        -42.4520    2.8420  108.7300 O.2   385  ASN385     -0.2864
    118  CB       -42.7970    0.3420  110.0500 C.3   385  ASN385      0.1181
    119  CG       -42.2800   -0.5040  108.9040 C.2   385  ASN385      0.2629
    120  OD1      -41.4860   -0.0470  108.0860 O.2   385  ASN385     -0.2716
    121  ND2      -42.7400   -1.7450  108.8350 N.am  385  ASN385     -0.0877
    122  N        -42.5560    1.5580  105.9040 N.3   388  TRP388     -0.1241
    123  CA       -43.9900    1.7070  105.7050 C.3   388  TRP388      0.1605
    124  C        -44.3560    3.1840  105.5380 C.2   388  TRP388      0.2264
    125  O        -45.2760    3.5210  104.7910 O.2   388  TRP388     -0.2867
    126  CB       -44.7600    1.0810  106.8720 C.3   388  TRP388      0.0550
    127  CG       -46.1960    0.7410  106.5580 C.ar  388  TRP388      0.0003
    128  CD1      -46.8260    0.8600  105.3570 C.ar  388  TRP388      0.0946
    129  CD2      -47.1680    0.2310  107.4730 C.ar  388  TRP388      0.0152
    130  NE1      -48.1340    0.4490  105.4630 N.ar  388  TRP388     -0.2442
    131  CE2      -48.3670    0.0540  106.7550 C.ar  388  TRP388      0.0810
    132  CE3      -47.1390   -0.1030  108.8320 C.ar  388  TRP388      0.0012
    133  CZ2      -49.5240   -0.4350  107.3490 C.ar  388  TRP388      0.0191
    134  CZ3      -48.2810   -0.5880  109.4160 C.ar  388  TRP388      0.0001
    135  CH2      -49.4650   -0.7460  108.6810 C.ar  388  TRP388      0.0015
@<TRIPOS>BOND
     1    87    88    2
     2    87    86    1
     3    85    86    1
     4    86    89    1
     5    89    90    1
     6   125   124    2
     7    90    91    1
     8    90    92    1
     9   128   130   ar
    10   128   127   ar
    11   130   131   ar
    12   124   123    1
    13   123   122    1
    14   123   126    1
    15   127   126    1
    16   127   129   ar
    17   131   133   ar
    18   131   129   ar
    19   133   135   ar
    20   129   132   ar
    21   120   119    2
    22    48    46    1
    23   135   134   ar
    24   117   116    2
    25   132   134   ar
    26   121   119   am
    27   119   118    1
    28    46    47    1
    29    46    45    1
    30   116   115    1
    31    14    12    1
    32    71    70    2
    33    79    78    2
    34    13    12    1
    35    75    73    1
    36   118   115    1
    37    12    11    1
    38   115   114    1
    39    42    41    1
    40    42    45    1
    41    42    43    1
    42    78    77    1
    43    70    69    1
    44    70    76   am
    45    69    68    1
    46    69    72    1
    47   104   103    2
    48    44    43    2
    49    73    72    1
    50    73    74    1
    51    43    49   am
    52    77    76    1
    53    77    80    1
    54   114   107   am
    55    11     8    1
    56    32    33    1
    57   103   102    1
    58   102   101    1
    59     8     7    1
    60     8     9    1
    61     1     2    1
    62   108   107    2
    63    83    82   ar
    64   107   106    1
    65     4     3    2
    66    27    26    1
    67    27    28    2
    68    49    50    1
    69    33    34    1
    70     7     3   am
    71    80    81    1
    72    38    39    2
    73    38    37    1
    74     3     2    1
    75    34    35    2
    76    34    36   am
    77    26    29    1
    78    26    25    1
    79    82    84   ar
    80    82    81    1
    81    36    37    1
    82     2     5    1
    83     9    10    2
    84     9    15   am
    85   105   106    1
    86    29    31    1
    87    29    30    1
    88    22    21    2
    89   101    99   am
    90    51    50    1
    91    51    52    2
    92   106   109    1
    93    18    17    2
    94    50    53    1
    95    37    40    1
    96    15    16    1
    97    63    62    2
    98    25    21   am
    99    21    20    1
   100   100    99    2
   101    99    98    1
   102     5     6    1
   103    17    16    1
   104    17    19   am
   105    62    61    1
   106   109   110    1
   107   110   111    1
   108    53    54    1
   109    61    60    1
   110    61    64    1
   111    20    19    1
   112    20    23    1
   113    96    95    2
   114    98    97    1
   115    95    97   am
   116    95    94    1
   117    93    94    1
   118    54    55    1
   119   111   112    1
   120    67    65   ar
   121   112   113    1
   122    64    65    1
   123    23    24    1
   124    55    56    1
   125    65    66   ar
   126    56    57    2
   127    57    59    1
   128    57    58    1
