@<TRIPOS>MOLECULE
tmp/5htxA00.pdb
 135 128 0 0 0
SMALL
GASTEIGER

@<TRIPOS>ATOM
      1  N        -11.9090    0.3810  165.3850 N.3   245  SER245     -0.1202
      2  CA       -11.4720   -0.5140  166.4340 C.3   245  SER245      0.2020
      3  C        -11.3510   -1.9200  165.8680 C.2   245  SER245      0.2619
      4  O        -12.3650   -2.5330  165.4870 O.2   245  SER245     -0.2717
      5  CB       -12.4640   -0.4970  167.5720 C.3   245  SER245      0.2103
      6  OG       -12.1200   -1.4610  168.5380 O.3   245  SER245     -0.2182
      7  N        -10.1170   -2.4050  165.7840 N.am  246  LEU246     -0.1965
      8  CA        -9.8190   -3.7310  165.2700 C.3   246  LEU246      0.1728
      9  C         -9.7660   -4.6700  166.4580 C.2   246  LEU246      0.2617
     10  O         -8.6940   -5.1520  166.8510 O.2   246  LEU246     -0.2715
     11  CB        -8.5000   -3.7470  164.5330 C.3   246  LEU246      0.0311
     12  CG        -8.4570   -2.9000  163.2560 C.3   246  LEU246      0.0022
     13  CD1       -7.0150   -2.9470  162.6690 C.3   246  LEU246      0.0001
     14  CD2       -9.5060   -3.3530  162.2380 C.3   246  LEU246      0.0001
     15  N        -10.9320   -4.8940  167.0430 N.am  247  GLY247     -0.1940
     16  CA       -11.0560   -5.6960  168.2450 C.3   247  GLY247      0.2014
     17  C        -11.6850   -7.0280  167.9040 C.2   247  GLY247      0.2640
     18  O        -11.5600   -7.4660  166.7580 O.2   247  GLY247     -0.2714
     19  N        -12.3610   -7.6590  168.8700 N.am  248  SER248     -0.1935
     20  CA       -12.9760   -8.9430  168.6000 C.3   248  SER248      0.2055
     21  C        -13.9750   -8.8360  167.4740 C.2   248  SER248      0.2643
     22  O        -14.1490   -9.7900  166.6900 O.2   248  SER248     -0.2714
     23  CB       -13.6580   -9.4730  169.8660 C.3   248  SER248      0.2130
     24  OG       -12.6890   -9.7600  170.8520 O.3   248  SER248     -0.2179
     25  N        -14.6460   -7.6860  167.4120 N.am  249  THR249     -0.1950
     26  CA       -15.4240   -7.3170  166.2320 C.3   249  THR249      0.1897
     27  C        -14.8570   -6.0170  165.6770 C.2   249  THR249      0.2313
     28  O        -14.1040   -5.3070  166.3600 O.2   249  THR249     -0.2863
     29  CB       -16.9170   -7.1420  166.5140 C.3   249  THR249      0.1794
     30  OG1      -17.0890   -6.1290  167.5050 O.3   249  THR249     -0.2208
     31  CG2      -17.5410   -8.4550  166.9700 C.3   249  THR249      0.0378
     32  N        -11.4030   -9.6660  165.0010 N.3   286  GLY286     -0.1210
     33  CA       -10.5180  -10.4100  165.8710 C.3   286  GLY286      0.1956
     34  C        -10.9970  -11.7980  166.2790 C.2   286  GLY286      0.2611
     35  O        -10.1780  -12.7010  166.4430 O.2   286  GLY286     -0.2717
     36  N        -12.3030  -11.9790  166.4830 N.am  287  ALA287     -0.1979
     37  CA       -12.7720  -13.2820  166.9470 C.3   287  ALA287      0.1597
     38  C        -12.5110  -14.3480  165.8980 C.2   287  ALA287      0.2287
     39  O        -12.1180  -15.4850  166.2290 O.2   287  ALA287     -0.2864
     40  CB       -14.2530  -13.2370  167.2940 C.3   287  ALA287      0.0319
     41  N        -10.1500  -14.0220  163.5460 N.3   289  LEU289     -0.1231
     42  CA        -8.6850  -14.1380  163.5200 C.3   289  LEU289      0.1693
     43  C         -8.2000  -15.1150  164.5980 C.2   289  LEU289      0.2591
     44  O         -7.3740  -15.9860  164.3160 O.2   289  LEU289     -0.2718
     45  CB        -8.0060  -12.7800  163.6840 C.3   289  LEU289      0.0284
     46  CG        -8.0220  -11.9540  162.3840 C.3   289  LEU289      0.0019
     47  CD1       -7.5970  -10.5310  162.7200 C.3   289  LEU289      0.0001
     48  CD2       -7.1260  -12.5840  161.2870 C.3   289  LEU289      0.0001
     49  N         -8.7260  -14.9940  165.8160 N.am  290  ARG290     -0.1980
     50  CA        -8.3060  -15.8260  166.9370 C.3   290  ARG290      0.1597
     51  C         -8.6920  -17.2840  166.7460 C.2   290  ARG290      0.2287
     52  O         -7.9480  -18.1790  167.1730 O.2   290  ARG290     -0.2864
     53  CB        -8.9090  -15.2680  168.2370 C.3   290  ARG290      0.0334
     54  CG        -8.7470  -16.1640  169.4670 C.3   290  ARG290      0.0492
     55  CD        -7.3020  -16.2120  169.9750 C.3   290  ARG290      0.2205
     56  NE        -6.7220  -14.8930  170.2480 N.pl3 290  ARG290     -0.0865
     57  CZ        -6.8500  -14.2200  171.3920 C.cat 290  ARG290      0.5346
     58  NH1       -7.5380  -14.7410  172.4010 N.pl3 290  ARG290      0.1354
     59  NH2       -6.2740  -13.0410  171.5390 N.pl3 290  ARG290      0.1354
     60  N         -2.1410  -15.0620  168.7960 N.3   295  ASP295     -0.1239
     61  CA        -1.5310  -13.7540  168.6550 C.3   295  ASP295      0.1674
     62  C         -0.0940  -13.8670  168.1440 C.2   295  ASP295      0.2266
     63  O          0.3550  -13.0430  167.3310 O.2   295  ASP295     -0.2867
     64  CB        -1.5460  -13.0300  169.9770 C.3   295  ASP295      0.1410
     65  CG        -2.9370  -12.5350  170.3580 C.2   295  ASP295      0.3668
     66  OD1       -3.9310  -12.7680  169.6290 O.co2 295  ASP295     -0.2456
     67  OD2       -3.0160  -11.8990  171.4240 O.co2 295  ASP295     -0.2456
     68  N         -0.1830  -14.4710  164.5050 N.3   298  LEU298     -0.1231
     69  CA        -0.5230  -13.2940  163.7110 C.3   298  LEU298      0.1693
     70  C          0.7030  -12.3820  163.5520 C.2   298  LEU298      0.2591
     71  O          0.9710  -11.8860  162.4490 O.2   298  LEU298     -0.2718
     72  CB        -1.6790  -12.5180  164.3480 C.3   298  LEU298      0.0284
     73  CG        -3.0480  -13.2120  164.4250 C.3   298  LEU298      0.0019
     74  CD1       -4.0480  -12.4060  165.2580 C.3   298  LEU298      0.0001
     75  CD2       -3.5790  -13.4030  162.9900 C.3   298  LEU298      0.0001
     76  N          1.4260  -12.1230  164.6470 N.am  299  GLU299     -0.1979
     77  CA         2.6580  -11.3370  164.5540 C.3   299  GLU299      0.1602
     78  C          3.6950  -11.9720  163.6070 C.2   299  GLU299      0.2287
     79  O          4.2410  -11.2900  162.7260 O.2   299  GLU299     -0.2864
     80  CB         3.2720  -11.1620  165.9370 C.3   299  GLU299      0.0415
     81  CG         4.4200  -10.1790  165.9890 C.3   299  GLU299      0.1163
     82  CD         4.8030   -9.8440  167.4140 C.2   299  GLU299      0.3649
     83  OE1        4.3210  -10.5370  168.3420 O.co2 299  GLU299     -0.2457
     84  OE2        5.5790   -8.8870  167.6060 O.co2 299  GLU299     -0.2457
     85  N         -6.6810  -10.3820  156.1740 N.3   351  LEU351     -0.1245
     86  CA        -6.4730   -8.9880  156.5740 C.3   351  LEU351      0.1561
     87  C         -6.9350   -8.0160  155.5000 C.2   351  LEU351      0.2260
     88  O         -7.5230   -6.9840  155.8200 O.2   351  LEU351     -0.2867
     89  CB        -4.9920   -8.7340  156.8980 C.3   351  LEU351      0.0270
     90  CG        -4.4450   -9.5410  158.0730 C.3   351  LEU351      0.0019
     91  CD1       -2.9800   -9.1530  158.2970 C.3   351  LEU351      0.0001
     92  CD2       -5.2480   -9.3170  159.3620 C.3   351  LEU351      0.0001
     93  N         -7.7100   -0.9410  169.2090 N.3   380  GLY380     -0.1210
     94  CA        -7.9250   -2.3750  169.3240 C.3   380  GLY380      0.1956
     95  C         -6.6690   -3.2070  169.1110 C.2   380  GLY380      0.2612
     96  O         -5.6000   -2.6900  168.7530 O.2   380  GLY380     -0.2717
     97  N         -6.8110   -4.5130  169.3210 N.am  381  GLY381     -0.1942
     98  CA        -5.7080   -5.4450  169.1840 C.3   381  GLY381      0.2014
     99  C         -5.0010   -5.4220  167.8510 C.2   381  GLY381      0.2639
    100  O         -3.8210   -5.7350  167.7840 O.2   381  GLY381     -0.2714
    101  N         -5.7060   -5.0480  166.7930 N.am  382  GLY382     -0.1954
    102  CA        -5.1120   -5.0200  165.4730 C.3   382  GLY382      0.1869
    103  C         -4.3060   -3.7700  165.1920 C.2   382  GLY382      0.2309
    104  O         -3.5830   -3.7290  164.1890 O.2   382  GLY382     -0.2863
    105  N         -1.6740   -2.6630  166.6400 N.3   384  LYS384     -0.1231
    106  CA        -0.2350   -2.9320  166.7500 C.3   384  LYS384      0.1693
    107  C          0.3610   -3.6090  165.5110 C.2   384  LYS384      0.2592
    108  O          1.5700   -3.7730  165.4390 O.2   384  LYS384     -0.2718
    109  CB         0.0550   -3.7860  167.9930 C.3   384  LYS384      0.0285
    110  CG        -0.5700   -5.1960  167.9890 C.3   384  LYS384      0.0035
    111  CD        -0.3550   -5.9130  169.3380 C.3   384  LYS384      0.0206
    112  CE        -1.5930   -6.7610  169.7780 C.3   384  LYS384      0.1093
    113  NZ        -1.3470   -7.4650  171.0720 N.3   384  LYS384     -0.1314
    114  N         -0.4680   -3.9980  164.5360 N.am  385  ASN385     -0.1974
    115  CA         0.0120   -4.7250  163.3620 C.3   385  ASN385      0.1688
    116  C          0.3140   -3.7060  162.2590 C.2   385  ASN385      0.2292
    117  O         -0.5960   -3.2500  161.5340 O.2   385  ASN385     -0.2864
    118  CB        -1.0470   -5.7490  162.9300 C.3   385  ASN385      0.1181
    119  CG        -0.5620   -6.6640  161.8260 C.2   385  ASN385      0.2629
    120  OD1        0.2680   -6.2690  160.9900 O.2   385  ASN385     -0.2716
    121  ND2       -1.1110   -7.8870  161.7800 N.am  385  ASN385     -0.0877
    122  N         -0.6830   -4.5080  158.8040 N.3   388  TRP388     -0.1241
    123  CA        -2.1060   -4.3780  158.5400 C.3   388  TRP388      0.1605
    124  C         -2.4900   -2.9060  158.3860 C.2   388  TRP388      0.2264
    125  O         -3.3650   -2.5910  157.5790 O.2   388  TRP388     -0.2867
    126  CB        -2.9100   -5.0620  159.6510 C.3   388  TRP388      0.0550
    127  CG        -4.3500   -5.3230  159.3230 C.ar  388  TRP388      0.0003
    128  CD1       -4.9540   -5.2360  158.0890 C.ar  388  TRP388      0.0946
    129  CD2       -5.3340   -5.8300  160.2310 C.ar  388  TRP388      0.0152
    130  NE1       -6.2920   -5.6360  158.2020 N.ar  388  TRP388     -0.2442
    131  CE2       -6.5340   -6.0140  159.5030 C.ar  388  TRP388      0.0810
    132  CE3       -5.3080   -6.1720  161.6000 C.ar  388  TRP388      0.0012
    133  CZ2       -7.7000   -6.5090  160.0930 C.ar  388  TRP388      0.0191
    134  CZ3       -6.4720   -6.6700  162.2010 C.ar  388  TRP388      0.0001
    135  CH2       -7.6610   -6.8170  161.4460 C.ar  388  TRP388      0.0015
@<TRIPOS>BOND
     1    87    88    2
     2    87    86    1
     3    85    86    1
     4    86    89    1
     5    89    90    1
     6   125   124    2
     7    90    91    1
     8    90    92    1
     9   128   130   ar
    10   128   127   ar
    11   130   131   ar
    12   124   123    1
    13   123   122    1
    14   123   126    1
    15   127   126    1
    16   127   129   ar
    17   131   133   ar
    18   131   129   ar
    19   133   135   ar
    20   129   132   ar
    21   120   119    2
    22    48    46    1
    23   135   134   ar
    24   117   116    2
    25   132   134   ar
    26   121   119   am
    27   119   118    1
    28    14    12    1
    29   116   115    1
    30    46    47    1
    31    46    45    1
    32    71    70    2
    33    13    12    1
    34    79    78    2
    35   118   115    1
    36    75    73    1
    37    12    11    1
    38   115   114    1
    39    42    41    1
    40    42    45    1
    41    42    43    1
    42    70    69    1
    43    70    76   am
    44    78    77    1
    45    69    72    1
    46    69    68    1
    47   104   103    2
    48    44    43    2
    49    72    73    1
    50    73    74    1
    51    11     8    1
    52   114   107   am
    53    77    76    1
    54    77    80    1
    55    43    49   am
    56    32    33    1
    57   103   102    1
    58     8     7    1
    59     8     9    1
    60     1     2    1
    61   108   107    2
    62   102   101    1
    63     4     3    2
    64   107   106    1
    65    27    26    1
    66    27    28    2
    67     7     3   am
    68    49    50    1
    69     3     2    1
    70    33    34    1
    71    38    39    2
    72    38    37    1
    73    80    81    1
    74    81    82    1
    75    26    29    1
    76    26    25    1
    77    34    35    2
    78    34    36   am
    79     2     5    1
    80     9    10    2
    81     9    15   am
    82    36    37    1
    83    29    31    1
    84    29    30    1
    85   105   106    1
    86    22    21    2
    87    51    50    1
    88    51    52    2
    89   106   109    1
    90    18    17    2
    91   101    99   am
    92    50    53    1
    93    37    40    1
    94    15    16    1
    95    63    62    2
    96    25    21   am
    97    82    84   ar
    98    82    83   ar
    99    21    20    1
   100     5     6    1
   101   100    99    2
   102    99    98    1
   103    17    16    1
   104    17    19   am
   105   110   109    1
   106   110   111    1
   107    62    61    1
   108    53    54    1
   109    20    19    1
   110    20    23    1
   111    61    60    1
   112    61    64    1
   113    96    95    2
   114    95    97   am
   115    95    94    1
   116    98    97    1
   117    93    94    1
   118   111   112    1
   119    54    55    1
   120    66    65   ar
   121   112   113    1
   122    23    24    1
   123    55    56    1
   124    64    65    1
   125    56    57    2
   126    65    67   ar
   127    57    59    1
   128    57    58    1
