@<TRIPOS>MOLECULE
tmp/5htzA00.pdb
 189 182 0 0 0
SMALL
GASTEIGER

@<TRIPOS>ATOM
      1  N         35.9510    7.9950   23.3410 N.3    15  SER15      -0.1202
      2  CA        34.9510    8.7570   24.1030 C.3    15  SER15       0.2020
      3  C         34.3840    9.9560   23.3710 C.2    15  SER15       0.2619
      4  O         33.1910   10.1910   23.4720 O.2    15  SER15      -0.2717
      5  CB        35.4830    9.1690   25.4790 C.3    15  SER15       0.2103
      6  OG        36.6540    9.9540   25.3410 O.3    15  SER15      -0.2182
      7  N         35.2210   10.6980   22.6400 N.am   16  GLY16      -0.1942
      8  CA        34.7650   11.8930   21.9350 C.3    16  GLY16       0.2014
      9  C         33.8420   11.6490   20.7490 C.2    16  GLY16       0.2639
     10  O         33.0120   12.5070   20.4440 O.2    16  GLY16      -0.2714
     11  N         33.9750   10.4870   20.0640 N.am   17  GLN17      -0.1963
     12  CA        33.2130   10.2160   18.8420 C.3    17  GLN17       0.1733
     13  C         32.2220    9.0620   18.9580 C.2    17  GLN17       0.2617
     14  O         31.3920    8.8500   18.0750 O.2    17  GLN17      -0.2715
     15  CB        34.1990    9.9600   17.6800 C.3    17  GLN17       0.0408
     16  CG        34.9120   11.2510   17.2280 C.3    17  GLN17       0.0908
     17  CD        35.5770   11.1080   15.8810 C.2    17  GLN17       0.2608
     18  OE1       36.3720   10.1770   15.6460 O.2    17  GLN17      -0.2717
     19  NE2       35.2670   12.0450   14.9700 N.am   17  GLN17      -0.0878
     20  N         32.3240    8.3350   20.0520 N.am   18  GLY18      -0.1940
     21  CA        31.4580    7.2100   20.3390 C.3    18  GLY18       0.2014
     22  C         32.0990    5.8730   20.0400 C.2    18  GLY18       0.2638
     23  O         33.0390    5.7870   19.2510 O.2    18  GLY18      -0.2714
     24  N         31.5570    4.8270   20.6430 N.am   19  TYR19      -0.1973
     25  CA        31.9860    3.4350   20.4630 C.3    19  TYR19       0.1639
     26  C         30.9260    2.7210   19.6330 C.2    19  TYR19       0.2290
     27  O         29.7330    2.8470   19.9190 O.2    19  TYR19      -0.2864
     28  CB        32.1420    2.7540   21.8150 C.3    19  TYR19       0.0560
     29  CG        33.3700    3.2390   22.5550 C.ar   19  TYR19      -0.0198
     30  CD1       34.6120    2.6520   22.3350 C.ar   19  TYR19      -0.0009
     31  CD2       33.3000    4.3180   23.4380 C.ar   19  TYR19      -0.0009
     32  CE1       35.7470    3.0870   23.0070 C.ar   19  TYR19       0.0417
     33  CE2       34.4310    4.7450   24.1460 C.ar   19  TYR19       0.0417
     34  CZ        35.6560    4.1320   23.9110 C.ar   19  TYR19       0.1957
     35  OH        36.7980    4.5060   24.5730 O.3    19  TYR19      -0.2866
     36  N         26.7140    2.9500   16.4080 N.3    35  LEU35      -0.1245
     37  CA        26.9870    3.5150   17.7460 C.3    35  LEU35       0.1561
     38  C         26.2380    2.7550   18.8540 C.2    35  LEU35       0.2260
     39  O         25.0320    2.5430   18.7230 O.2    35  LEU35      -0.2867
     40  CB        26.6000    5.0170   17.7730 C.3    35  LEU35       0.0270
     41  CG        26.8870    5.7530   19.1060 C.3    35  LEU35       0.0019
     42  CD1       28.3490    6.1360   19.1950 C.3    35  LEU35       0.0001
     43  CD2       26.0570    7.0060   19.2240 C.3    35  LEU35       0.0001
     44  N         24.5480    2.8600   22.1750 N.3    37  ASP37      -0.1239
     45  CA        23.9660    3.9200   22.9840 C.3    37  ASP37       0.1674
     46  C         22.9710    3.4150   24.0380 C.2    37  ASP37       0.2266
     47  O         21.8210    3.1480   23.7200 O.2    37  ASP37      -0.2867
     48  CB        23.3060    4.9460   22.0470 C.3    37  ASP37       0.1410
     49  CG        22.7010    6.1640   22.7330 C.2    37  ASP37       0.3668
     50  OD1       23.0510    6.4270   23.9090 O.co2  37  ASP37      -0.2456
     51  OD2       21.9450    6.8890   22.0750 O.co2  37  ASP37      -0.2456
     52  N         21.7360    5.2620   26.1860 N.3    39  GLY39      -0.1210
     53  CA        20.9430    6.4460   26.5230 C.3    39  GLY39       0.1956
     54  C         19.7690    6.7420   25.6020 C.2    39  GLY39       0.2612
     55  O         19.1700    7.8190   25.6850 O.2    39  GLY39      -0.2717
     56  N         19.4190    5.7860   24.7100 N.am   40  SER40      -0.1952
     57  CA        18.2780    5.9180   23.7820 C.3    40  SER40       0.1924
     58  C         17.7510    4.5100   23.4560 C.2    40  SER40       0.2314
     59  O         18.3640    3.5340   23.8790 O.2    40  SER40      -0.2863
     60  CB        18.6530    6.7020   22.5260 C.3    40  SER40       0.2116
     61  OG        19.4850    5.9220   21.6870 O.3    40  SER40      -0.2180
     62  N         16.9290   16.2990   19.0080 N.3    76  TYR76      -0.1241
     63  CA        17.6770   16.4720   20.2620 C.3    76  TYR76       0.1605
     64  C         18.5090   17.7310   20.0710 C.2    76  TYR76       0.2264
     65  O         18.7570   18.1130   18.9250 O.2    76  TYR76      -0.2867
     66  CB        18.6520   15.3120   20.5320 C.3    76  TYR76       0.0534
     67  CG        18.0660   13.9180   20.5330 C.ar   76  TYR76      -0.0201
     68  CD1       17.4800   13.3880   21.6790 C.ar   76  TYR76      -0.0009
     69  CD2       18.1930   13.0900   19.4210 C.ar   76  TYR76      -0.0009
     70  CE1       17.0100   12.0750   21.7090 C.ar   76  TYR76       0.0417
     71  CE2       17.7520   11.7710   19.4470 C.ar   76  TYR76       0.0417
     72  CZ        17.1610   11.2660   20.5930 C.ar   76  TYR76       0.1957
     73  OH        16.6970    9.9750   20.5860 O.3    76  TYR76      -0.2866
     74  N         21.6820   17.7570   20.7090 N.3    78  GLN78      -0.1231
     75  CA        22.9130   17.1350   20.2020 C.3    78  GLN78       0.1698
     76  C         22.8530   16.6600   18.7290 C.2    78  GLN78       0.2592
     77  O         23.8780   16.2170   18.2010 O.2    78  GLN78      -0.2718
     78  CB        23.3510   15.9730   21.1130 C.3    78  GLN78       0.0381
     79  CG        23.6340   16.3750   22.5780 C.3    78  GLN78       0.0905
     80  CD        22.4300   16.2720   23.5050 C.2    78  GLN78       0.2608
     81  OE1       21.2570   16.3360   23.0860 O.2    78  GLN78      -0.2717
     82  NE2       22.7010   16.1090   24.8000 N.am   78  GLN78      -0.0878
     83  N         21.6880   16.7590   18.0800 N.am   79  GLY79      -0.1957
     84  CA        21.4950   16.2950   16.7080 C.3    79  GLY79       0.1869
     85  C         20.0720   15.8320   16.4770 C.2    79  GLY79       0.2309
     86  O         19.3910   15.3930   17.4080 O.2    79  GLY79      -0.2863
     87  N         17.1660   13.8180   13.7390 N.3    81  TRP81      -0.1241
     88  CA        16.9670   12.9460   12.5930 C.3    81  TRP81       0.1605
     89  C         15.4870   12.7160   12.3140 C.2    81  TRP81       0.2264
     90  O         14.6580   12.7050   13.2210 O.2    81  TRP81      -0.2867
     91  CB        17.7730   11.6220   12.6980 C.3    81  TRP81       0.0550
     92  CG        17.4470   10.7440   13.8750 C.ar   81  TRP81       0.0003
     93  CD1       18.1930   10.6030   15.0100 C.ar   81  TRP81       0.0946
     94  CD2       16.4190    9.7390   13.9450 C.ar   81  TRP81       0.0152
     95  NE1       17.6240    9.6580   15.8360 N.ar   81  TRP81      -0.2442
     96  CE2       16.5430    9.1010   15.2020 C.ar   81  TRP81       0.0810
     97  CE3       15.3670    9.3560   13.0930 C.ar   81  TRP81       0.0012
     98  CZ2       15.6650    8.0920   15.6240 C.ar   81  TRP81       0.0191
     99  CZ3       14.4930    8.3590   13.5120 C.ar   81  TRP81       0.0001
    100  CH2       14.6480    7.7350   14.7590 C.ar   81  TRP81       0.0015
    101  N         23.5180   15.2550   13.1630 N.3   113  PHE113     -0.1241
    102  CA        23.4060   13.9400   13.8120 C.3   113  PHE113      0.1605
    103  C         24.6550   13.1360   13.4520 C.2   113  PHE113      0.2264
    104  O         25.3910   12.7070   14.3510 O.2   113  PHE113     -0.2867
    105  CB        22.1140   13.2190   13.3810 C.3   113  PHE113      0.0534
    106  CG        21.9840   11.8250   13.9390 C.ar  113  PHE113     -0.0203
    107  CD1       21.6610   11.6220   15.2770 C.ar  113  PHE113     -0.0042
    108  CD2       22.2010   10.7120   13.1310 C.ar  113  PHE113     -0.0042
    109  CE1       21.5520   10.3280   15.7920 C.ar  113  PHE113     -0.0003
    110  CE2       22.0990    9.4170   13.6500 C.ar  113  PHE113     -0.0003
    111  CZ        21.7500    9.2320   14.9680 C.ar  113  PHE113     -0.0000
    112  N         28.4130   12.7550   12.3740 N.3   115  ILE115     -0.1245
    113  CA        29.6150   13.5390   12.6630 C.3   115  ILE115      0.1561
    114  C         30.7310   13.1380   11.6980 C.2   115  ILE115      0.2260
    115  O         30.9620   11.9450   11.4610 O.2   115  ILE115     -0.2867
    116  CB        30.0170   13.3650   14.1670 C.3   115  ILE115      0.0252
    117  CG1       28.8490   13.7520   15.1530 C.3   115  ILE115      0.0019
    118  CG2       31.3350   14.0890   14.5240 C.3   115  ILE115      0.0019
    119  CD1       28.3660   15.2730   15.1980 C.3   115  ILE115      0.0001
    120  N         30.6940    5.7150   12.1420 N.3   120  TRP120     -0.1241
    121  CA        29.4290    5.0100   12.3400 C.3   120  TRP120      0.1605
    122  C         28.3330    5.6140   11.4410 C.2   120  TRP120      0.2264
    123  O         28.3670    6.8020   11.0780 O.2   120  TRP120     -0.2867
    124  CB        28.9990    4.8510   13.8100 C.3   120  TRP120      0.0550
    125  CG        29.0210    6.1080   14.6270 C.ar  120  TRP120      0.0003
    126  CD1       30.0000    6.4990   15.4940 C.ar  120  TRP120      0.0946
    127  CD2       27.9750    7.0840   14.7330 C.ar  120  TRP120      0.0152
    128  NE1       29.6470    7.6700   16.1100 N.ar  120  TRP120     -0.2442
    129  CE2       28.4220    8.0760   15.6340 C.ar  120  TRP120      0.0810
    130  CE3       26.7100    7.2350   14.1300 C.ar  120  TRP120      0.0012
    131  CZ2       27.6330    9.1890   15.9770 C.ar  120  TRP120      0.0191
    132  CZ3       25.9210    8.3260   14.4820 C.ar  120  TRP120      0.0001
    133  CH2       26.3860    9.2910   15.3920 C.ar  120  TRP120      0.0015
    134  N         22.7260    4.2670   14.9860 N.3   123  ILE123     -0.1245
    135  CA        22.7490    4.1800   16.4520 C.3   123  ILE123      0.1561
    136  C         21.9170    2.9930   16.8790 C.2   123  ILE123      0.2260
    137  O         20.8300    2.7750   16.3430 O.2   123  ILE123     -0.2867
    138  CB        22.2360    5.4870   17.1530 C.3   123  ILE123      0.0252
    139  CG1       23.1870    6.6690   16.9650 C.3   123  ILE123      0.0019
    140  CG2       22.0130    5.2870   18.6570 C.3   123  ILE123      0.0019
    141  CD1       22.8640    7.8850   17.9470 C.3   123  ILE123      0.0001
    142  N         25.0540    6.1970   30.5510 N.3   233  ASP233     -0.1225
    143  CA        24.8940    6.4770   29.1310 C.3   233  ASP233      0.1805
    144  C         26.1710    6.3810   28.3060 C.2   233  ASP233      0.2598
    145  O         26.9620    7.3270   28.2610 O.2   233  ASP233     -0.2718
    146  CB        24.2440    7.8680   28.9620 C.3   233  ASP233      0.1424
    147  CG        23.9030    8.2420   27.5270 C.2   233  ASP233      0.3668
    148  OD1       23.9840    7.3600   26.6520 O.co2 233  ASP233     -0.2456
    149  OD2       23.6110    9.4340   27.2740 O.co2 233  ASP233     -0.2456
    150  N         26.3110    5.2780   27.5470 N.am  234  SER234     -0.1938
    151  CA        27.4600    5.0840   26.6450 C.3   234  SER234      0.2055
    152  C         27.4420    6.0560   25.4510 C.2   234  SER234      0.2644
    153  O         28.4560    6.1730   24.7810 O.2   234  SER234     -0.2714
    154  CB        27.5480    3.6320   26.1620 C.3   234  SER234      0.2130
    155  OG        26.4320    3.3430   25.3380 O.3   234  SER234     -0.2179
    156  N         26.3170    6.7440   25.2190 N.am  235  GLY235     -0.1939
    157  CA        26.1690    7.7460   24.1620 C.3   235  GLY235      0.2014
    158  C         26.4520    9.1850   24.5940 C.2   235  GLY235      0.2640
    159  O         26.0820   10.1170   23.8880 O.2   235  GLY235     -0.2714
    160  N         27.0610    9.3810   25.7720 N.am  236  THR236     -0.1936
    161  CA        27.4890   10.6870   26.3110 C.3   236  THR236      0.2028
    162  C         28.9820   10.5680   26.5640 C.2   236  THR236      0.2642
    163  O         29.4250    9.5570   27.1080 O.2   236  THR236     -0.2714
    164  CB        26.7470   11.0690   27.6010 C.3   236  THR236      0.1808
    165  OG1       25.4080   11.3850   27.2640 O.3   236  THR236     -0.2208
    166  CG2       27.3650   12.2930   28.3120 C.3   236  THR236      0.0379
    167  N         29.7580   11.5520   26.1240 N.am  237  THR237     -0.1950
    168  CA        31.2240   11.5440   26.3130 C.3   237  THR237      0.1897
    169  C         31.5970   11.7630   27.7820 C.2   237  THR237      0.2313
    170  O         32.3460   10.9880   28.3550 O.2   237  THR237     -0.2863
    171  CB        31.8810   12.6500   25.4450 C.3   237  THR237      0.1794
    172  OG1       31.6570   12.3470   24.0640 O.3   237  THR237     -0.2208
    173  CG2       33.4020   12.8080   25.7200 C.3   237  THR237      0.0378
    174  N         28.4940   14.0710   33.3320 N.3   240  ARG240     -0.1245
    175  CA        27.7110   15.3210   33.3890 C.3   240  ARG240      0.1563
    176  C         27.0180   15.4010   34.7330 C.2   240  ARG240      0.2260
    177  O         26.5050   14.3930   35.2250 O.2   240  ARG240     -0.2867
    178  CB        26.7210   15.4360   32.2010 C.3   240  ARG240      0.0307
    179  CG        27.4160   15.3610   30.8490 C.3   240  ARG240      0.0489
    180  CD        26.4500   15.5860   29.7010 C.3   240  ARG240      0.2205
    181  NE        25.9450   16.9670   29.6880 N.pl3 240  ARG240     -0.0865
    182  CZ        24.7110   17.3120   29.3440 C.cat 240  ARG240      0.5346
    183  NH1       24.3410   18.5840   29.3710 N.pl3 240  ARG240      0.1354
    184  NH2       23.8380   16.3890   28.9700 N.pl3 240  ARG240      0.1354
    185  N         30.8710    8.0420   28.8190 N.3   337  ALA337     -0.1245
    186  CA        31.9890    7.2190   28.3640 C.3   337  ALA337      0.1562
    187  C         33.2340    7.3670   29.2080 C.2   337  ALA337      0.2260
    188  O         33.8380    6.3590   29.5150 O.2   337  ALA337     -0.2867
    189  CB        32.3120    7.5070   26.9050 C.3   337  ALA337      0.0290
@<TRIPOS>BOND
     1   123   122    2
     2   122   121    1
     3   115   114    2
     4   114   113    1
     5   120   121    1
     6    89    88    1
     7    89    90    2
     8   121   124    1
     9   112   113    1
    10    88    91    1
    11    88    87    1
    12   113   116    1
    13    91    92    1
    14    97    99   ar
    15    97    94   ar
    16   108   110   ar
    17   108   106   ar
    18   101   102    1
    19   105   102    1
    20   105   106    1
    21   103   102    1
    22   103   104    2
    23    99   100   ar
    24   110   111   ar
    25   124   125    1
    26    92    94   ar
    27    92    93   ar
    28   106   107   ar
    29    94    96   ar
    30   130   132   ar
    31   130   127   ar
    32   116   118    1
    33   116   117    1
    34   132   133   ar
    35   125   127   ar
    36   125   126   ar
    37   127   129   ar
    38   100    98   ar
    39   111   109   ar
    40    19    17   am
    41   134   135    1
    42    93    95   ar
    43   117   119    1
    44    96    98   ar
    45    96    95   ar
    46   107   109   ar
    47   133   131   ar
    48   126   128   ar
    49   129   131   ar
    50   129   128   ar
    51    18    17    2
    52    17    16    1
    53   137   136    2
    54    36    37    1
    55   135   136    1
    56   135   138    1
    57    85    84    1
    58    85    86    2
    59    84    83    1
    60   139   138    1
    61   139   141    1
    62   138   140    1
    63    16    15    1
    64    15    12    1
    65    37    40    1
    66    37    38    1
    67    40    41    1
    68    14    13    2
    69    83    76   am
    70    77    76    2
    71    39    38    2
    72    76    75    1
    73    12    13    1
    74    12    11    1
    75    65    64    2
    76    13    20   am
    77    62    63    1
    78    41    42    1
    79    41    43    1
    80    23    22    2
    81    69    71   ar
    82    69    67   ar
    83    71    72   ar
    84    26    27    2
    85    26    25    1
    86    22    21    1
    87    22    24   am
    88    20    21    1
    89    11     9   am
    90    64    63    1
    91    75    74    1
    92    75    78    1
    93    63    66    1
    94    10     9    2
    95    25    24    1
    96    25    28    1
    97    66    67    1
    98    67    68   ar
    99    73    72    1
   100    72    70   ar
   101     9     8    1
   102    78    79    1
   103    68    70   ar
   104    61    60    1
   105    28    29    1
   106     8     7    1
   107    48    49    1
   108    48    45    1
   109    51    49   ar
   110    44    45    1
   111    30    29   ar
   112    30    32   ar
   113    60    57    1
   114    29    31   ar
   115    79    80    1
   116     7     3   am
   117    49    50   ar
   118    45    46    1
   119    32    34   ar
   120    81    80    2
   121     1     2    1
   122     3     4    2
   123     3     2    1
   124    31    33   ar
   125    58    57    1
   126    58    59    2
   127    80    82   am
   128    47    46    2
   129    57    56    1
   130   159   158    2
   131    34    33   ar
   132    34    35    1
   133   172   171    1
   134     2     5    1
   135   157   158    1
   136   157   156    1
   137   158   160   am
   138    56    54   am
   139   153   152    2
   140   156   152   am
   141   155   154    1
   142     6     5    1
   143   171   173    1
   144   171   168    1
   145   152   151    1
   146    54    55    2
   147    54    53    1
   148   160   161    1
   149   167   168    1
   150   167   162   am
   151   154   151    1
   152    52    53    1
   153   161   162    1
   154   161   164    1
   155   168   169    1
   156   162   163    2
   157   151   150    1
   158   148   147   ar
   159   189   186    1
   160   165   164    1
   161   149   147   ar
   162   147   146    1
   163   150   144   am
   164   164   166    1
   165   169   170    2
   166   145   144    2
   167   144   143    1
   168   186   185    1
   169   186   187    1
   170   146   143    1
   171   184   182    1
   172   143   142    1
   173   187   188    2
   174   182   183    1
   175   182   181    2
   176   181   180    1
   177   180   179    1
   178   179   178    1
   179   178   175    1
   180   174   175    1
   181   175   176    1
   182   176   177    2
