@<TRIPOS>MOLECULE
tmp/5hu0B01.pdb
 208 197 0 0 0
SMALL
GASTEIGER

@<TRIPOS>ATOM
      1  N          7.2010   37.2160   57.8770 N.3    14  SER14      -0.1202
      2  CA         8.2130   36.4950   58.6710 C.3    14  SER14       0.2020
      3  C          8.8250   35.2820   57.9970 C.2    14  SER14       0.2619
      4  O         10.0060   35.0420   58.1950 O.2    14  SER14      -0.2717
      5  CB         7.6570   36.0880   60.0340 C.3    14  SER14       0.2103
      6  OG         6.5320   35.2370   59.8590 O.3    14  SER14      -0.2182
      7  N          8.0330   34.5210   57.2380 N.am   15  GLY15      -0.1942
      8  CA         8.5380   33.3170   56.5920 C.3    15  GLY15       0.2014
      9  C          9.4850   33.5690   55.4300 C.2    15  GLY15       0.2639
     10  O         10.4160   32.7860   55.2350 O.2    15  GLY15      -0.2714
     11  N          9.2870   34.6680   54.6920 N.am   16  GLN16      -0.1963
     12  CA        10.0650   34.9610   53.4860 C.3    16  GLN16       0.1733
     13  C         11.0100   36.1420   53.5820 C.2    16  GLN16       0.2616
     14  O         11.8880   36.2770   52.7320 O.2    16  GLN16      -0.2715
     15  CB         9.1320   35.1330   52.2750 C.3    16  GLN16       0.0408
     16  CG         8.4330   33.8300   51.8860 C.3    16  GLN16       0.0908
     17  CD         7.7480   33.9360   50.5330 C.2    16  GLN16       0.2608
     18  OE1        7.0470   34.9200   50.2160 O.2    16  GLN16      -0.2717
     19  NE2        7.9320   32.9060   49.7140 N.am   16  GLN16      -0.0878
     20  N         10.8680   36.9440   54.6350 N.am   17  GLY17      -0.1955
     21  CA        11.7290   38.0830   54.9000 C.3    17  GLY17       0.1869
     22  C         11.0870   39.4150   54.6310 C.2    17  GLY17       0.2309
     23  O         10.1830   39.5190   53.8000 O.2    17  GLY17      -0.2863
     24  N         16.5240   42.3240   51.2350 N.3    34  LEU34      -0.1245
     25  CA        16.2150   41.8060   52.5650 C.3    34  LEU34       0.1561
     26  C         16.9180   42.5920   53.6610 C.2    34  LEU34       0.2260
     27  O         18.1340   42.7970   53.5950 O.2    34  LEU34      -0.2867
     28  CB        16.6090   40.3230   52.6740 C.3    34  LEU34       0.0270
     29  CG        16.4070   39.6550   54.0480 C.3    34  LEU34       0.0019
     30  CD1       14.9520   39.2740   54.2410 C.3    34  LEU34       0.0001
     31  CD2       17.2600   38.4070   54.1650 C.3    34  LEU34       0.0001
     32  N         18.5660   42.5190   56.9290 N.3    36  ASP36      -0.1239
     33  CA        19.1680   41.4460   57.7030 C.3    36  ASP36       0.1674
     34  C         20.1230   41.9490   58.8050 C.2    36  ASP36       0.2266
     35  O         21.2880   42.2170   58.5240 O.2    36  ASP36      -0.2867
     36  CB        19.9220   40.4970   56.7440 C.3    36  ASP36       0.1410
     37  CG        20.5480   39.2790   57.4000 C.2    36  ASP36       0.3668
     38  OD1       20.2520   39.0150   58.5930 O.co2  36  ASP36      -0.2456
     39  OD2       21.2990   38.5580   56.7140 O.co2  36  ASP36      -0.2456
     40  N         21.3820   40.1640   61.0540 N.3    38  GLY38      -0.1210
     41  CA        22.2230   39.0340   61.4520 C.3    38  GLY38       0.1956
     42  C         23.4280   38.7520   60.5670 C.2    38  GLY38       0.2612
     43  O         24.0370   37.6790   60.6810 O.2    38  GLY38      -0.2717
     44  N         23.7550   39.6740   59.6390 N.am   39  SER39      -0.1952
     45  CA        24.9280   39.5300   58.7600 C.3    39  SER39       0.1924
     46  C         25.4230   40.9250   58.4000 C.2    39  SER39       0.2314
     47  O         24.7780   41.9020   58.7770 O.2    39  SER39      -0.2863
     48  CB        24.6230   38.7030   57.5160 C.3    39  SER39       0.2116
     49  OG        23.7800   39.4280   56.6450 O.3    39  SER39      -0.2180
     50  N         27.2230   41.8500   55.0800 N.3    41  ASN41      -0.1240
     51  CA        27.5060   42.1070   53.6660 C.3    41  ASN41       0.1653
     52  C         26.2780   42.6300   52.9280 C.2    41  ASN41       0.2266
     53  O         25.1620   42.1300   53.1380 O.2    41  ASN41      -0.2867
     54  CB        27.9280   40.8190   52.9540 C.3    41  ASN41       0.1155
     55  CG        29.3290   40.4040   53.2600 C.2    41  ASN41       0.2627
     56  OD1       29.6070   39.8780   54.3280 O.2    41  ASN41      -0.2716
     57  ND2       30.2680   40.6920   52.3500 N.am   41  ASN41      -0.0877
     58  N         30.6910   32.0830   50.4280 N.3    73  VAL73      -0.1245
     59  CA        30.0460   32.0060   51.7370 C.3    73  VAL73       0.1561
     60  C         29.1610   30.7670   51.8880 C.2    73  VAL73       0.2260
     61  O         27.9580   30.8700   51.6740 O.2    73  VAL73      -0.2867
     62  CB        29.2820   33.3150   52.1160 C.3    73  VAL73       0.0252
     63  CG1       28.7780   33.2580   53.5590 C.3    73  VAL73       0.0019
     64  CG2       30.1750   34.5320   51.9310 C.3    73  VAL73       0.0019
     65  N         27.0940   28.3100   54.2140 N.3    75  TYR75      -0.1241
     66  CA        26.5520   28.4180   55.5640 C.3    75  TYR75       0.1605
     67  C         25.6470   27.2180   55.8250 C.2    75  TYR75       0.2264
     68  O         25.5580   26.3280   54.9780 O.2    75  TYR75      -0.2867
     69  CB        25.9240   29.8080   55.8450 C.3    75  TYR75       0.0534
     70  CG        24.8070   30.1570   54.8900 C.ar   75  TYR75      -0.0201
     71  CD1       25.0780   30.6900   53.6270 C.ar   75  TYR75      -0.0009
     72  CD2       23.4790   29.9690   55.2490 C.ar   75  TYR75      -0.0009
     73  CE1       24.0510   30.9730   52.7290 C.ar   75  TYR75       0.0417
     74  CE2       22.4450   30.2720   54.3700 C.ar   75  TYR75       0.0417
     75  CZ        22.7340   30.7780   53.1150 C.ar   75  TYR75       0.1957
     76  OH        21.6900   31.0300   52.2690 O.3    75  TYR75      -0.2866
     77  N         22.2770   26.5680   56.1320 N.3    77  GLN77      -0.1245
     78  CA        21.1120   26.3280   55.2910 C.3    77  GLN77       0.1566
     79  C         21.3080   26.5870   53.7610 C.2    77  GLN77       0.2260
     80  O         20.3600   26.4150   52.9840 O.2    77  GLN77      -0.2867
     81  CB        19.8990   27.1110   55.8500 C.3    77  GLN77       0.0367
     82  CG        20.1660   28.5720   56.2110 C.3    77  GLN77       0.0905
     83  CD        20.5900   28.8500   57.6480 C.2    77  GLN77       0.2608
     84  OE1       21.6040   28.3550   58.1470 O.2    77  GLN77      -0.2717
     85  NE2       19.8920   29.7580   58.3080 N.am   77  GLN77      -0.0878
     86  N         26.3000   31.0660   49.0740 N.3    80  TRP80      -0.1241
     87  CA        26.3330   32.1200   48.0670 C.3    80  TRP80       0.1605
     88  C         27.7670   32.4420   47.7380 C.2    80  TRP80       0.2264
     89  O         28.6450   32.2960   48.5760 O.2    80  TRP80      -0.2867
     90  CB        25.4850   33.3580   48.3850 C.3    80  TRP80       0.0550
     91  CG        25.9150   34.1400   49.5790 C.ar   80  TRP80       0.0003
     92  CD1       25.4340   34.0110   50.8460 C.ar   80  TRP80       0.0946
     93  CD2       26.7810   35.2870   49.5920 C.ar   80  TRP80       0.0152
     94  NE1       25.9600   34.9880   51.6550 N.ar   80  TRP80      -0.2442
     95  CE2       26.7830   35.7930   50.9090 C.ar   80  TRP80       0.0810
     96  CE3       27.5940   35.9080   48.6310 C.ar   80  TRP80       0.0012
     97  CZ2       27.5620   36.8940   51.2860 C.ar   80  TRP80       0.0191
     98  CZ3       28.3520   37.0090   49.0040 C.ar   80  TRP80       0.0001
     99  CH2       28.3580   37.4680   50.3200 C.ar   80  TRP80       0.0015
    100  N         20.1320   27.5180   47.5670 N.3   111  LYS111     -0.1231
    101  CA        19.0320   27.7320   48.5370 C.3   111  LYS111      0.1693
    102  C         19.1240   29.0950   49.2510 C.2   111  LYS111      0.2592
    103  O         18.8210   29.2060   50.4500 O.2   111  LYS111     -0.2718
    104  CB        18.9460   26.5620   49.5510 C.3   111  LYS111      0.0285
    105  CG        18.7280   25.1850   48.8980 C.3   111  LYS111      0.0035
    106  CD        18.5420   24.0260   49.9200 C.3   111  LYS111      0.0206
    107  CE        19.6750   23.7810   50.9060 C.3   111  LYS111      0.1093
    108  NZ        20.9130   23.2880   50.2410 N.3   111  LYS111     -0.1314
    109  N         19.5460   30.1290   48.5030 N.am  112  PHE112     -0.1976
    110  CA        19.7170   31.4870   49.0320 C.3   112  PHE112      0.1639
    111  C         18.4790   32.3080   48.6880 C.2   112  PHE112      0.2290
    112  O         17.8340   32.8760   49.5830 O.2   112  PHE112     -0.2864
    113  CB        21.0000   32.1380   48.4590 C.3   112  PHE112      0.0560
    114  CG        21.2920   33.5440   48.9350 C.ar  112  PHE112     -0.0200
    115  CD1       21.9760   33.7650   50.1280 C.ar  112  PHE112     -0.0042
    116  CD2       20.9370   34.6470   48.1600 C.ar  112  PHE112     -0.0042
    117  CE1       22.2480   35.0710   50.5630 C.ar  112  PHE112     -0.0003
    118  CE2       21.1980   35.9500   48.6060 C.ar  112  PHE112     -0.0003
    119  CZ        21.8870   36.1520   49.7780 C.ar  112  PHE112     -0.0000
    120  N         14.6510   32.8810   47.7190 N.3   114  ILE114     -0.1245
    121  CA        13.3930   32.1760   48.0340 C.3   114  ILE114      0.1561
    122  C         12.4030   32.4350   46.8990 C.2   114  ILE114      0.2260
    123  O         12.1520   33.5900   46.5590 O.2   114  ILE114     -0.2867
    124  CB        12.8030   32.6200   49.4140 C.3   114  ILE114      0.0252
    125  CG1       13.7900   32.3850   50.5860 C.3   114  ILE114      0.0019
    126  CG2       11.4230   31.9390   49.7040 C.3   114  ILE114      0.0019
    127  CD1       13.4740   33.2350   51.8910 C.3   114  ILE114      0.0001
    128  N         12.5900   39.5020   46.8620 N.3   119  TRP119     -0.1241
    129  CA        13.8530   40.2100   47.0820 C.3   119  TRP119      0.1605
    130  C         14.9800   39.5880   46.2590 C.2   119  TRP119      0.2264
    131  O         14.9960   38.3900   45.9820 O.2   119  TRP119     -0.2867
    132  CB        14.2500   40.4240   48.5450 C.3   119  TRP119      0.0550
    133  CG        14.2140   39.2060   49.4210 C.ar  119  TRP119      0.0003
    134  CD1       13.2140   38.8620   50.2850 C.ar  119  TRP119      0.0946
    135  CD2       15.2580   38.2350   49.6080 C.ar  119  TRP119      0.0152
    136  NE1       13.5660   37.7420   50.9890 N.ar  119  TRP119     -0.2442
    137  CE2       14.8100   37.3260   50.5900 C.ar  119  TRP119      0.0810
    138  CE3       16.5480   38.0580   49.0630 C.ar  119  TRP119      0.0012
    139  CZ2       15.5900   36.2440   51.0210 C.ar  119  TRP119      0.0191
    140  CZ3       17.3120   36.9800   49.4850 C.ar  119  TRP119      0.0001
    141  CH2       16.8420   36.0950   50.4610 C.ar  119  TRP119      0.0015
    142  N         20.4840   40.9620   49.8720 N.3   122  ILE122     -0.1245
    143  CA        20.3930   41.1440   51.3130 C.3   122  ILE122      0.1561
    144  C         21.2460   42.3130   51.7500 C.2   122  ILE122      0.2260
    145  O         22.3110   42.5670   51.1890 O.2   122  ILE122     -0.2867
    146  CB        20.7460   39.8330   52.0970 C.3   122  ILE122      0.0252
    147  CG1       22.2430   39.4960   52.0160 C.3   122  ILE122      0.0019
    148  CG2       19.8670   38.6590   51.6490 C.3   122  ILE122      0.0019
    149  CD1       22.6740   38.2130   52.9050 C.3   122  ILE122      0.0001
    150  N         32.1210   39.2000   55.2990 N.3   132  ARG132     -0.1245
    151  CA        32.8650   38.2110   54.5180 C.3   132  ARG132      0.1563
    152  C         33.5250   38.9270   53.3570 C.2   132  ARG132      0.2260
    153  O         32.8960   39.7990   52.7680 O.2   132  ARG132     -0.2867
    154  CB        31.9460   37.0990   53.9950 C.3   132  ARG132      0.0307
    155  CG        31.2600   36.2970   55.1080 C.3   132  ARG132      0.0489
    156  CD        32.2390   35.5480   55.9880 C.3   132  ARG132      0.2205
    157  NE        31.5410   34.5340   56.7720 N.pl3 132  ARG132     -0.0865
    158  CZ        31.4550   33.2560   56.4290 C.cat 132  ARG132      0.5346
    159  NH1       32.0650   32.8100   55.3350 N.pl3 132  ARG132      0.1354
    160  NH2       30.7790   32.4070   57.1900 N.pl3 132  ARG132      0.1354
    161  N         18.0040   39.1710   65.2050 N.3   232  ASP232     -0.1225
    162  CA        18.2000   38.8670   63.7980 C.3   232  ASP232      0.1805
    163  C         16.9520   38.8810   62.9430 C.2   232  ASP232      0.2598
    164  O         16.2480   37.8800   62.8720 O.2   232  ASP232     -0.2718
    165  CB        18.9060   37.4880   63.6890 C.3   232  ASP232      0.1424
    166  CG        19.3330   37.1110   62.2730 C.2   232  ASP232      0.3668
    167  OD1       19.2530   37.9740   61.3840 O.co2 232  ASP232     -0.2456
    168  OD2       19.7030   35.9430   62.0570 O.co2 232  ASP232     -0.2456
    169  N         16.7290   39.9970   62.2040 N.am  233  SER233     -0.1938
    170  CA        15.6060   40.1400   61.2710 C.3   233  SER233      0.2055
    171  C         15.7570   39.1760   60.0770 C.2   233  SER233      0.2644
    172  O         14.7790   38.9330   59.3890 O.2   233  SER233     -0.2714
    173  CB        15.5030   41.5870   60.7800 C.3   233  SER233      0.2130
    174  OG        16.6830   41.9370   60.0620 O.3   233  SER233     -0.2179
    175  N         16.9540   38.6130   59.8800 N.am  234  GLY234     -0.1939
    176  CA        17.2310   37.6730   58.7920 C.3   234  GLY234      0.2014
    177  C         16.9720   36.2170   59.1190 C.2   234  GLY234      0.2640
    178  O         17.3760   35.3240   58.3590 O.2   234  GLY234     -0.2714
    179  N         16.3070   35.9590   60.2550 N.am  235  THR235     -0.1936
    180  CA        15.8820   34.6170   60.6900 C.3   235  THR235      0.2028
    181  C         14.3790   34.7280   60.9660 C.2   235  THR235      0.2642
    182  O         13.9240   35.7140   61.5440 O.2   235  THR235     -0.2714
    183  CB        16.6200   34.1970   61.9820 C.3   235  THR235      0.1808
    184  OG1       17.9830   33.9140   61.6740 O.3   235  THR235     -0.2208
    185  CG2       15.9910   32.9710   62.6600 C.3   235  THR235      0.0379
    186  N         13.6180   33.7180   60.5690 N.am  236  THR236     -0.1950
    187  CA        12.1720   33.7260   60.8240 C.3   236  THR236      0.1897
    188  C         11.8490   33.5070   62.3060 C.2   236  THR236      0.2313
    189  O         11.1370   34.2960   62.8970 O.2   236  THR236     -0.2863
    190  CB        11.5020   32.5940   60.0160 C.3   236  THR236      0.1794
    191  OG1       11.6710   32.8870   58.6330 O.3   236  THR236     -0.2208
    192  CG2        9.9870   32.4590   60.3340 C.3   236  THR236      0.0378
    193  N         14.8340   31.2230   67.8360 N.3   239  ARG239     -0.1245
    194  CA        15.6470   29.9900   67.9380 C.3   239  ARG239      0.1563
    195  C         16.2900   29.9440   69.3120 C.2   239  ARG239      0.2260
    196  O         16.6970   30.9760   69.8420 O.2   239  ARG239     -0.2867
    197  CB        16.6820   29.8850   66.7990 C.3   239  ARG239      0.0307
    198  CG        16.0170   29.9290   65.4170 C.3   239  ARG239      0.0489
    199  CD        17.0060   29.7770   64.2660 C.3   239  ARG239      0.2205
    200  NE        17.5200   28.4070   64.1580 N.pl3 239  ARG239     -0.0865
    201  CZ        18.8100   28.0940   64.0820 C.cat 239  ARG239      0.5346
    202  NH1       19.1870   26.8260   64.0310 N.pl3 239  ARG239      0.1354
    203  NH2       19.7340   29.0480   64.0650 N.pl3 239  ARG239      0.1354
    204  N         12.4330   37.2390   63.2120 N.3   339  ALA339     -0.1245
    205  CA        11.3380   38.0600   62.7140 C.3   339  ALA339      0.1562
    206  C         10.0430   37.8780   63.5070 C.2   339  ALA339      0.2260
    207  O          9.3940   38.8750   63.7880 O.2   339  ALA339     -0.2867
    208  CB        11.1020   37.7990   61.2400 C.3   339  ALA339      0.0290
@<TRIPOS>BOND
     1   131   130    2
     2   130   129    1
     3   123   122    2
     4   128   129    1
     5   122   121    1
     6   129   132    1
     7   100   101    1
     8   120   121    1
     9    88    87    1
    10    88    89    2
    11   121   124    1
    12    87    90    1
    13    87    86    1
    14   116   118   ar
    15   116   114   ar
    16    90    91    1
    17   113   114    1
    18   113   110    1
    19   109   110    1
    20   109   102   am
    21   101   102    1
    22   101   104    1
    23   132   133    1
    24   118   119   ar
    25    96    98   ar
    26    96    93   ar
    27   111   110    1
    28   111   112    2
    29   105   104    1
    30   105   106    1
    31   114   115   ar
    32    98    99   ar
    33   138   140   ar
    34   138   135   ar
    35   102   103    2
    36   124   126    1
    37   124   125    1
    38   133   135   ar
    39   133   134   ar
    40   140   141   ar
    41    91    93   ar
    42    91    92   ar
    43    93    95   ar
    44   135   137   ar
    45    19    17   am
    46   119   117   ar
    47   142   143    1
    48   106   107    1
    49   115   117   ar
    50    18    17    2
    51   108   107    1
    52   134   136   ar
    53    99    97   ar
    54    58    59    1
    55   141   139   ar
    56    17    16    1
    57   125   127    1
    58   137   136   ar
    59   137   139   ar
    60    92    94   ar
    61    95    97   ar
    62    95    94   ar
    63   145   144    2
    64    24    25    1
    65   143   144    1
    66   143   146    1
    67   148   146    1
    68    61    60    2
    69    59    60    1
    70    59    62    1
    71    16    15    1
    72    64    62    1
    73   147   146    1
    74   147   149    1
    75    62    63    1
    76    76    75    1
    77    15    12    1
    78    57    55   am
    79    25    28    1
    80    25    26    1
    81    28    29    1
    82    73    75   ar
    83    73    71   ar
    84    14    13    2
    85   153   152    2
    86    52    53    2
    87    52    51    1
    88    54    55    1
    89    54    51    1
    90    80    79    2
    91    75    74   ar
    92    55    56    2
    93   152   151    1
    94    12    13    1
    95    12    11    1
    96    13    20   am
    97    27    26    2
    98    71    70   ar
    99    51    50    1
   100    79    78    1
   101    23    22    2
   102   154   151    1
   103   154   155    1
   104    29    31    1
   105    29    30    1
   106    65    66    1
   107    74    72   ar
   108   151   150    1
   109    22    21    1
   110    20    21    1
   111    11     9   am
   112    70    72   ar
   113    70    69    1
   114    68    67    2
   115   155   156    1
   116    10     9    2
   117    78    81    1
   118    78    77    1
   119   159   158    1
   120     9     8    1
   121    66    67    1
   122    66    69    1
   123    81    82    1
   124   156   157    1
   125    82    83    1
   126   158   157    2
   127   158   160    1
   128     8     7    1
   129    49    48    1
   130    39    37   ar
   131    36    37    1
   132    36    33    1
   133    32    33    1
   134     7     3   am
   135    37    38   ar
   136    48    45    1
   137    83    84    2
   138    83    85   am
   139    33    34    1
   140     1     2    1
   141     3     4    2
   142     3     2    1
   143   178   177    2
   144    46    45    1
   145    46    47    2
   146    35    34    2
   147   191   190    1
   148     2     5    1
   149    45    44    1
   150   176   177    1
   151   176   175    1
   152   177   179   am
   153   172   171    2
   154    44    42   am
   155     6     5    1
   156   175   171   am
   157   190   192    1
   158   190   187    1
   159   174   173    1
   160   171   170    1
   161   179   180    1
   162    42    43    2
   163    42    41    1
   164   186   187    1
   165   186   181   am
   166   180   181    1
   167   180   183    1
   168   173   170    1
   169   187   188    1
   170   181   182    2
   171    40    41    1
   172   208   205    1
   173   170   169    1
   174   167   166   ar
   175   184   183    1
   176   183   185    1
   177   168   166   ar
   178   169   163   am
   179   166   165    1
   180   188   189    2
   181   205   204    1
   182   205   206    1
   183   164   163    2
   184   163   162    1
   185   206   207    2
   186   165   162    1
   187   162   161    1
   188   202   201    1
   189   203   201    1
   190   201   200    2
   191   200   199    1
   192   199   198    1
   193   198   197    1
   194   197   194    1
   195   193   194    1
   196   194   195    1
   197   195   196    2
