@<TRIPOS>MOLECULE
tmp/5hu1B00.pdb
 198 191 0 0 0
SMALL
GASTEIGER

@<TRIPOS>ATOM
      1  N          7.1470   37.3090   57.8950 N.3    14  SER14      -0.1202
      2  CA         8.1330   36.5220   58.6260 C.3    14  SER14       0.2020
      3  C          8.5970   35.2480   57.9130 C.2    14  SER14       0.2619
      4  O          9.7380   34.8450   58.1290 O.2    14  SER14      -0.2717
      5  CB         7.6240   36.1980   60.0290 C.3    14  SER14       0.2103
      6  OG         6.4770   35.3640   59.9200 O.3    14  SER14      -0.2182
      7  N          7.7530   34.6440   57.0720 N.am   15  GLY15      -0.1942
      8  CA         8.1740   33.4070   56.4150 C.3    15  GLY15       0.2014
      9  C          9.2680   33.5930   55.3750 C.2    15  GLY15       0.2639
     10  O         10.1240   32.7180   55.2270 O.2    15  GLY15      -0.2714
     11  N          9.2740   34.7600   54.6860 N.am   16  GLN16      -0.1963
     12  CA        10.1980   35.0030   53.5640 C.3    16  GLN16       0.1733
     13  C         11.1180   36.1970   53.7260 C.2    16  GLN16       0.2617
     14  O         12.0620   36.3060   52.9440 O.2    16  GLN16      -0.2715
     15  CB         9.3940   35.1220   52.2670 C.3    16  GLN16       0.0408
     16  CG         8.6880   33.7950   51.9090 C.3    16  GLN16       0.0908
     17  CD         8.0050   33.8090   50.5620 C.2    16  GLN16       0.2608
     18  OE1        7.3090   34.7680   50.1850 O.2    16  GLN16      -0.2717
     19  NE2        8.1250   32.7010   49.8410 N.am   16  GLN16      -0.0878
     20  N         10.8920   37.0240   54.7410 N.am   17  GLY17      -0.1940
     21  CA        11.7330   38.1810   55.0250 C.3    17  GLY17       0.2014
     22  C         11.1090   39.5160   54.7090 C.2    17  GLY17       0.2638
     23  O         10.1990   39.6170   53.8680 O.2    17  GLY17      -0.2714
     24  N         11.6150   40.5470   55.3840 N.am   18  TYR18      -0.1973
     25  CA        11.2270   41.9420   55.1880 C.3    18  TYR18       0.1639
     26  C         12.2900   42.6450   54.3760 C.2    18  TYR18       0.2290
     27  O         13.4890   42.5140   54.6720 O.2    18  TYR18      -0.2864
     28  CB        11.0330   42.6230   56.5460 C.3    18  TYR18       0.0560
     29  CG         9.7690   42.1460   57.2320 C.ar   18  TYR18      -0.0198
     30  CD1        9.7790   41.0330   58.0670 C.ar   18  TYR18      -0.0009
     31  CD2        8.5640   42.7890   57.0200 C.ar   18  TYR18      -0.0009
     32  CE1        8.6120   40.6000   58.7150 C.ar   18  TYR18       0.0417
     33  CE2        7.3830   42.3390   57.6210 C.ar   18  TYR18       0.0417
     34  CZ         7.4160   41.2500   58.4700 C.ar   18  TYR18       0.1957
     35  OH         6.2330   40.8330   59.0520 O.3    18  TYR18      -0.2866
     36  N         16.6580   42.3080   51.3370 N.3    34  LEU34      -0.1245
     37  CA        16.3270   41.8440   52.6820 C.3    34  LEU34       0.1561
     38  C         17.0470   42.6710   53.7470 C.2    34  LEU34       0.2260
     39  O         18.2650   42.8440   53.6710 O.2    34  LEU34      -0.2867
     40  CB        16.7640   40.3780   52.8000 C.3    34  LEU34       0.0270
     41  CG        16.4930   39.7040   54.1440 C.3    34  LEU34       0.0019
     42  CD1       15.0180   39.3590   54.2810 C.3    34  LEU34       0.0001
     43  CD2       17.3120   38.4350   54.2780 C.3    34  LEU34       0.0001
     44  N         18.7080   42.6540   57.0470 N.3    36  ASP36      -0.1239
     45  CA        19.2740   41.5700   57.8630 C.3    36  ASP36       0.1674
     46  C         20.2280   42.0810   58.9510 C.2    36  ASP36       0.2266
     47  O         21.4110   42.3440   58.6850 O.2    36  ASP36      -0.2867
     48  CB        20.0100   40.5960   56.9350 C.3    36  ASP36       0.1410
     49  CG        20.6580   39.3950   57.6030 C.2    36  ASP36       0.3668
     50  OD1       20.3230   39.1080   58.7890 O.co2  36  ASP36      -0.2456
     51  OD2       21.4350   38.6920   56.9160 O.co2  36  ASP36      -0.2456
     52  N         21.4960   40.2880   61.1470 N.3    38  GLY38      -0.1210
     53  CA        22.3230   39.1450   61.5290 C.3    38  GLY38       0.1956
     54  C         23.5180   38.8640   60.6370 C.2    38  GLY38       0.2612
     55  O         24.1040   37.7840   60.7330 O.2    38  GLY38      -0.2717
     56  N         23.8610   39.7990   59.7220 N.am   39  SER39      -0.1952
     57  CA        25.0270   39.6260   58.8460 C.3    39  SER39       0.1924
     58  C         25.5370   41.0140   58.5050 C.2    39  SER39       0.2314
     59  O         24.8800   42.0120   58.8490 O.2    39  SER39      -0.2863
     60  CB        24.6930   38.8330   57.5840 C.3    39  SER39       0.2116
     61  OG        23.8790   39.6000   56.7110 O.3    39  SER39      -0.2180
     62  N         26.9410   29.1040   54.6210 N.3    75  TYR75      -0.1241
     63  CA        26.2470   29.1260   55.9250 C.3    75  TYR75       0.1605
     64  C         25.6100   27.7370   56.0770 C.2    75  TYR75       0.2264
     65  O         25.6260   26.9600   55.1290 O.2    75  TYR75      -0.2867
     66  CB        25.1310   30.1970   55.9690 C.3    75  TYR75       0.0534
     67  CG        25.6210   31.6210   55.8750 C.ar   75  TYR75      -0.0201
     68  CD1       26.2870   32.2220   56.9410 C.ar   75  TYR75      -0.0009
     69  CD2       25.3760   32.3900   54.7390 C.ar   75  TYR75      -0.0009
     70  CE1       26.7310   33.5400   56.8670 C.ar   75  TYR75       0.0417
     71  CE2       25.7840   33.7210   54.6660 C.ar   75  TYR75       0.0417
     72  CZ        26.4540   34.2950   55.7390 C.ar   75  TYR75       0.1957
     73  OH        26.9120   35.5910   55.6770 O.3    75  TYR75      -0.2866
     74  N         22.3790   27.1380   56.4840 N.3    77  GLN77      -0.1231
     75  CA        21.1490   27.3420   55.7380 C.3    77  GLN77       0.1698
     76  C         21.4070   27.3270   54.2130 C.2    77  GLN77       0.2592
     77  O         20.9970   26.3830   53.5270 O.2    77  GLN77      -0.2718
     78  CB        20.4870   28.6710   56.1980 C.3    77  GLN77       0.0381
     79  CG        20.1380   28.7370   57.7090 C.3    77  GLN77       0.0905
     80  CD        21.2450   29.2470   58.6270 C.2    77  GLN77       0.2608
     81  OE1       22.4430   29.1850   58.3240 O.2    77  GLN77      -0.2717
     82  NE2       20.8700   29.7070   59.8180 N.am   77  GLN77      -0.0878
     83  N         22.1140   28.3490   53.7240 N.am   78  GLY78      -0.1957
     84  CA        22.4420   28.5310   52.3140 C.3    78  GLY78       0.1869
     85  C         23.8490   29.0450   52.0800 C.2    78  GLY78       0.2309
     86  O         24.5080   29.5220   53.0090 O.2    78  GLY78      -0.2863
     87  N         26.5850   31.2640   49.2880 N.3    80  TRP80      -0.1241
     88  CA        26.6820   32.1650   48.1430 C.3    80  TRP80       0.1605
     89  C         28.1260   32.4110   47.7780 C.2    80  TRP80       0.2264
     90  O         28.9940   32.3670   48.6470 O.2    80  TRP80      -0.2867
     91  CB        25.8730   33.4630   48.3130 C.3    80  TRP80       0.0550
     92  CG        26.2890   34.3930   49.4130 C.ar   80  TRP80       0.0003
     93  CD1       25.7160   34.5110   50.6440 C.ar   80  TRP80       0.0946
     94  CD2       27.2820   35.4270   49.3340 C.ar   80  TRP80       0.0152
     95  NE1       26.2970   35.5440   51.3460 N.ar   80  TRP80      -0.2442
     96  CE2       27.2610   36.1240   50.5650 C.ar   80  TRP80       0.0810
     97  CE3       28.1950   35.8290   48.3440 C.ar   80  TRP80       0.0012
     98  CZ2       28.1080   37.2060   50.8290 C.ar   80  TRP80       0.0191
     99  CZ3       29.0520   36.8880   48.6150 C.ar   80  TRP80       0.0001
    100  CH2       29.0190   37.5490   49.8510 C.ar   80  TRP80       0.0015
    101  N         20.5400   27.3550   47.9100 N.3   111  LYS111     -0.1231
    102  CA        19.4780   27.5810   48.9090 C.3   111  LYS111      0.1693
    103  C         19.5860   28.9660   49.5630 C.2   111  LYS111      0.2592
    104  O         19.3210   29.1270   50.7540 O.2   111  LYS111     -0.2718
    105  CB        19.4700   26.4480   49.9780 C.3   111  LYS111      0.0285
    106  CG        19.1890   25.0580   49.4010 C.3   111  LYS111      0.0035
    107  CD        18.9590   23.9800   50.4850 C.3   111  LYS111      0.0206
    108  CE        20.2070   23.5350   51.2210 C.3   111  LYS111      0.1093
    109  NZ        21.1700   22.8350   50.3270 N.3   111  LYS111     -0.1314
    110  N         19.9850   29.9760   48.7770 N.am  112  PHE112     -0.1976
    111  CA        20.1430   31.3320   49.2780 C.3   112  PHE112      0.1639
    112  C         18.8830   32.1400   48.9510 C.2   112  PHE112      0.2290
    113  O         18.2260   32.6710   49.8630 O.2   112  PHE112     -0.2864
    114  CB        21.4090   31.9850   48.6700 C.3   112  PHE112      0.0560
    115  CG        21.6460   33.4120   49.1070 C.ar  112  PHE112     -0.0200
    116  CD1       22.2350   33.6910   50.3360 C.ar  112  PHE112     -0.0042
    117  CD2       21.3010   34.4780   48.2800 C.ar  112  PHE112     -0.0042
    118  CE1       22.4570   35.0110   50.7370 C.ar  112  PHE112     -0.0003
    119  CE2       21.5080   35.7970   48.6900 C.ar  112  PHE112     -0.0003
    120  CZ        22.1550   36.0510   49.8840 C.ar  112  PHE112     -0.0000
    121  N         15.0220   32.7790   47.8780 N.3   114  ILE114     -0.1245
    122  CA        13.7370   32.1550   48.2410 C.3   114  ILE114      0.1561
    123  C         12.7500   32.4150   47.1140 C.2   114  ILE114      0.2260
    124  O         12.4930   33.5620   46.7530 O.2   114  ILE114     -0.2867
    125  CB        13.1650   32.7290   49.5760 C.3   114  ILE114      0.0252
    126  CG1       14.0850   32.4690   50.7730 C.3   114  ILE114      0.0019
    127  CG2       11.7260   32.1910   49.8510 C.3   114  ILE114      0.0019
    128  CD1       13.5900   33.2130   52.0950 C.3   114  ILE114      0.0001
    129  N         12.7190   39.5080   47.0090 N.3   119  TRP119     -0.1241
    130  CA        13.9910   40.1890   47.2300 C.3   119  TRP119      0.1605
    131  C         15.1020   39.5460   46.4010 C.2   119  TRP119      0.2264
    132  O         15.0660   38.3470   46.1310 O.2   119  TRP119     -0.2867
    133  CB        14.4010   40.3740   48.7040 C.3   119  TRP119      0.0550
    134  CG        14.3770   39.1660   49.5660 C.ar  119  TRP119      0.0003
    135  CD1       13.3700   38.8050   50.4140 C.ar  119  TRP119      0.0946
    136  CD2       15.4310   38.2210   49.7710 C.ar  119  TRP119      0.0152
    137  NE1       13.7240   37.6890   51.1210 N.ar  119  TRP119     -0.2442
    138  CE2       14.9840   37.2990   50.7430 C.ar  119  TRP119      0.0810
    139  CE3       16.7210   38.0540   49.2210 C.ar  119  TRP119      0.0012
    140  CZ2       15.7640   36.2090   51.1620 C.ar  119  TRP119      0.0191
    141  CZ3       17.5070   36.9980   49.6570 C.ar  119  TRP119      0.0001
    142  CH2       17.0260   36.0760   50.6010 C.ar  119  TRP119      0.0015
    143  N         20.6970   40.9900   50.0040 N.3   122  ILE122     -0.1245
    144  CA        20.6460   41.1540   51.4560 C.3   122  ILE122      0.1561
    145  C         21.4600   42.3370   51.8710 C.2   122  ILE122      0.2260
    146  O         22.5920   42.4990   51.3870 O.2   122  ILE122     -0.2867
    147  CB        21.1380   39.8650   52.1690 C.3   122  ILE122      0.0252
    148  CG1       20.2460   38.6530   51.7890 C.3   122  ILE122      0.0019
    149  CG2       21.1980   40.0570   53.7160 C.3   122  ILE122      0.0019
    150  CD1       20.4850   37.3450   52.5760 C.3   122  ILE122      0.0001
    151  N         18.1450   39.2660   65.3580 N.3   232  ASP232     -0.1225
    152  CA        18.3930   38.9800   63.9450 C.3   232  ASP232      0.1805
    153  C         17.1600   39.0260   63.0670 C.2   232  ASP232      0.2598
    154  O         16.4040   38.0380   63.0060 O.2   232  ASP232     -0.2718
    155  CB        19.0470   37.5940   63.8220 C.3   232  ASP232      0.1424
    156  CG        19.4570   37.2190   62.3990 C.2   232  ASP232      0.3668
    157  OD1       19.3920   38.0960   61.5070 O.co2 232  ASP232     -0.2456
    158  OD2       19.8400   36.0430   62.1750 O.co2 232  ASP232     -0.2456
    159  N         16.9750   40.1560   62.3270 N.am  233  SER233     -0.1938
    160  CA        15.8380   40.2760   61.4020 C.3   233  SER233      0.2055
    161  C         15.9380   39.3100   60.2020 C.2   233  SER233      0.2644
    162  O         14.9710   39.1550   59.4610 O.2   233  SER233     -0.2714
    163  CB        15.6770   41.7180   60.9260 C.3   233  SER233      0.2130
    164  OG        16.8190   42.0890   60.1610 O.3   233  SER233     -0.2179
    165  N         17.1090   38.6790   60.0200 N.am  234  GLY234     -0.1939
    166  CA        17.3480   37.7390   58.9360 C.3   234  GLY234      0.2014
    167  C         17.1000   36.2780   59.2760 C.2   234  GLY234      0.2640
    168  O         17.5510   35.3880   58.5550 O.2   234  GLY234     -0.2714
    169  N         16.3760   36.0210   60.3920 N.am  235  THR235     -0.1936
    170  CA        15.9380   34.6860   60.8330 C.3   235  THR235      0.2028
    171  C         14.4300   34.8200   61.0790 C.2   235  THR235      0.2642
    172  O         13.9970   35.8270   61.6430 O.2   235  THR235     -0.2714
    173  CB        16.6220   34.3150   62.1750 C.3   235  THR235      0.1808
    174  OG1       18.0100   34.0810   61.9270 O.3   235  THR235     -0.2208
    175  CG2       16.0500   33.0730   62.8150 C.3   235  THR235      0.0379
    176  N         13.6500   33.8030   60.7020 N.am  236  THR236     -0.1950
    177  CA        12.2070   33.8450   60.9630 C.3   236  THR236      0.1897
    178  C         11.8890   33.6420   62.4360 C.2   236  THR236      0.2313
    179  O         11.1650   34.4370   63.0360 O.2   236  THR236     -0.2863
    180  CB        11.4870   32.7550   60.1530 C.3   236  THR236      0.1794
    181  OG1       11.6370   33.0040   58.7500 O.3   236  THR236     -0.2208
    182  CG2        9.9930   32.6430   60.5160 C.3   236  THR236      0.0378
    183  N         14.8520   31.3600   68.0210 N.3   239  ARG239     -0.1245
    184  CA        15.6600   30.1260   68.1170 C.3   239  ARG239      0.1563
    185  C         16.3230   30.0780   69.4730 C.2   239  ARG239      0.2260
    186  O         16.7920   31.1050   69.9810 O.2   239  ARG239     -0.2867
    187  CB        16.6840   30.0270   66.9720 C.3   239  ARG239      0.0307
    188  CG        16.0330   30.1670   65.6040 C.3   239  ARG239      0.0489
    189  CD        17.0520   29.9900   64.4930 C.3   239  ARG239      0.2205
    190  NE        17.5070   28.6020   64.4160 N.pl3 239  ARG239     -0.0865
    191  CZ        18.7670   28.2390   64.2060 C.cat 239  ARG239      0.5346
    192  NH1       19.0930   26.9550   64.1690 N.pl3 239  ARG239      0.1354
    193  NH2       19.7170   29.1580   64.0560 N.pl3 239  ARG239      0.1354
    194  N         12.5010   37.3670   63.3340 N.3   336  ALA336     -0.1245
    195  CA        11.4070   38.2170   62.8720 C.3   336  ALA336      0.1562
    196  C         10.1220   38.0530   63.6680 C.2   336  ALA336      0.2260
    197  O          9.4580   39.0560   63.9120 O.2   336  ALA336     -0.2867
    198  CB        11.1330   37.9790   61.3990 C.3   336  ALA336      0.0290
@<TRIPOS>BOND
     1   132   131    2
     2   131   130    1
     3   124   123    2
     4   129   130    1
     5   123   122    1
     6   130   133    1
     7    89    88    1
     8    89    90    2
     9   121   122    1
    10   101   102    1
    11    88    91    1
    12    88    87    1
    13   122   125    1
    14   117   119   ar
    15   117   115   ar
    16    91    92    1
    17    97    99   ar
    18    97    94   ar
    19    99   100   ar
    20   114   115    1
    21   114   111    1
    22   119   120   ar
    23   133   134    1
    24   110   111    1
    25   110   103   am
    26   102   103    1
    27   102   105    1
    28   112   111    1
    29   112   113    2
    30   115   116   ar
    31   139   141   ar
    32   139   136   ar
    33    94    92   ar
    34    94    96   ar
    35   106   105    1
    36   106   107    1
    37    92    93   ar
    38   103   104    2
    39   134   136   ar
    40   134   135   ar
    41   125   127    1
    42   125   126    1
    43   141   142   ar
    44   136   138   ar
    45    19    17   am
    46   100    98   ar
    47   120   118   ar
    48   143   144    1
    49    18    17    2
    50   109   108    1
    51   116   118   ar
    52   135   137   ar
    53   107   108    1
    54    17    16    1
    55    96    98   ar
    56    96    95   ar
    57   142   140   ar
    58    93    95   ar
    59   138   137   ar
    60   138   140   ar
    61   126   128    1
    62    36    37    1
    63   146   145    2
    64   144   145    1
    65   144   147    1
    66   148   147    1
    67   148   150    1
    68    16    15    1
    69    85    84    1
    70    85    86    2
    71   147   149    1
    72    15    12    1
    73    84    83    1
    74    37    40    1
    75    37    38    1
    76    40    41    1
    77    14    13    2
    78    77    76    2
    79    12    13    1
    80    12    11    1
    81    39    38    2
    82    83    76   am
    83    13    20   am
    84    23    22    2
    85    41    43    1
    86    41    42    1
    87    76    75    1
    88    26    27    2
    89    26    25    1
    90    62    63    1
    91    71    69   ar
    92    71    72   ar
    93    11     9   am
    94    22    21    1
    95    22    24   am
    96    69    67   ar
    97    20    21    1
    98    65    64    2
    99    25    24    1
   100    25    28    1
   101    10     9    2
   102     9     8    1
   103    73    72    1
   104    75    78    1
   105    75    74    1
   106    72    70   ar
   107    67    66    1
   108    67    68   ar
   109    63    66    1
   110    63    64    1
   111    78    79    1
   112     8     7    1
   113    28    29    1
   114    61    60    1
   115    70    68   ar
   116    51    49   ar
   117    48    49    1
   118    48    45    1
   119    31    29   ar
   120    31    33   ar
   121    44    45    1
   122     7     3   am
   123    29    30   ar
   124    60    57    1
   125    49    50   ar
   126    33    34   ar
   127    79    80    1
   128    45    46    1
   129     1     2    1
   130     3     4    2
   131     3     2    1
   132    30    32   ar
   133    81    80    2
   134    34    32   ar
   135    34    35    1
   136    58    57    1
   137    58    59    2
   138   168   167    2
   139     2     5    1
   140    80    82   am
   141    47    46    2
   142   181   180    1
   143    57    56    1
   144   166   167    1
   145   166   165    1
   146   167   169   am
   147   162   161    2
   148    56    54   am
   149     6     5    1
   150   165   161   am
   151   180   182    1
   152   180   177    1
   153   164   163    1
   154   161   160    1
   155   169   170    1
   156    54    55    2
   157    54    53    1
   158   176   177    1
   159   176   171   am
   160   170   171    1
   161   170   173    1
   162   163   160    1
   163   177   178    1
   164   171   172    2
   165    52    53    1
   166   198   195    1
   167   160   159    1
   168   157   156   ar
   169   174   173    1
   170   158   156   ar
   171   173   175    1
   172   159   153   am
   173   156   155    1
   174   178   179    2
   175   195   194    1
   176   195   196    1
   177   154   153    2
   178   153   152    1
   179   196   197    2
   180   155   152    1
   181   152   151    1
   182   193   191    1
   183   192   191    1
   184   191   190    2
   185   190   189    1
   186   189   188    1
   187   188   187    1
   188   187   184    1
   189   183   184    1
   190   184   185    1
   191   185   186    2
