@<TRIPOS>MOLECULE
tmp/5hu9A01.pdb
 123 119 0 0 0
SMALL
GASTEIGER

@<TRIPOS>ATOM
      1  N         -0.0960  -22.0900   -4.4850 N.3   162  ARG162     -0.1231
      2  CA        -0.4590  -22.2630   -3.0880 C.3   162  ARG162      0.1694
      3  C         -1.0470  -21.0070   -2.4800 C.2   162  ARG162      0.2592
      4  O         -1.3490  -20.9690   -1.3050 O.2   162  ARG162     -0.2718
      5  CB         0.7670  -22.6620   -2.2720 C.3   162  ARG162      0.0321
      6  CG         1.3010  -24.0710   -2.5850 C.3   162  ARG162      0.0489
      7  CD         0.2890  -25.1220   -2.1110 C.3   162  ARG162      0.2205
      8  NE         0.8820  -26.4550   -1.9680 N.pl3 162  ARG162     -0.0865
      9  CZ         0.9800  -27.3360   -2.9820 C.cat 162  ARG162      0.5346
     10  NH1        0.5580  -26.9990   -4.2000 N.pl3 162  ARG162      0.1354
     11  NH2        1.4840  -28.5400   -2.7600 N.pl3 162  ARG162      0.1354
     12  N         -1.1990  -19.9700   -3.2820 N.am  163  LEU163     -0.1966
     13  CA        -1.7120  -18.7160   -2.7730 C.3   163  LEU163      0.1728
     14  C         -3.1520  -18.8570   -2.3290 C.2   163  LEU163      0.2616
     15  O         -3.9950  -19.2910   -3.0820 O.2   163  LEU163     -0.2715
     16  CB        -1.6110  -17.6210   -3.8190 C.3   163  LEU163      0.0311
     17  CG        -0.2350  -17.1630   -4.2450 C.3   163  LEU163      0.0022
     18  CD1       -0.3900  -16.0340   -5.2350 C.3   163  LEU163      0.0001
     19  CD2        0.5740  -16.7110   -3.0550 C.3   163  LEU163      0.0001
     20  N         -3.4180  -18.4900   -1.0880 N.am  164  MET164     -0.1977
     21  CA        -4.7430  -18.6740   -0.5270 C.3   164  MET164      0.1605
     22  C         -5.6530  -17.4670   -0.6860 C.2   164  MET164      0.2287
     23  O         -5.2000  -16.3880   -1.0260 O.2   164  MET164     -0.2864
     24  CB        -4.6440  -19.0920    0.9340 C.3   164  MET164      0.0413
     25  CG        -5.2770  -20.4440    1.1890 C.3   164  MET164      0.0598
     26  SD        -4.5390  -21.2790    2.5870 S.3   164  MET164     -0.1393
     27  CE        -5.9680  -21.7500    3.5470 C.3   164  MET164      0.0692
     28  N          4.2470  -20.0650   -5.5210 N.3   172  PHE172     -0.1241
     29  CA         3.9660  -18.7350   -5.0180 C.3   172  PHE172      0.1605
     30  C          4.2780  -17.7080   -6.0980 C.2   172  PHE172      0.2264
     31  O          5.2920  -17.1130   -6.0960 O.2   172  PHE172     -0.2867
     32  CB         4.8150  -18.4620   -3.7540 C.3   172  PHE172      0.0534
     33  CG         4.4450  -19.3240   -2.6110 C.ar  172  PHE172     -0.0203
     34  CD1        5.0580  -20.5030   -2.4350 C.ar  172  PHE172     -0.0042
     35  CD2        3.4030  -18.9950   -1.8110 C.ar  172  PHE172     -0.0042
     36  CE1        4.6630  -21.3430   -1.4510 C.ar  172  PHE172     -0.0003
     37  CE2        3.0160  -19.8220   -0.7980 C.ar  172  PHE172     -0.0003
     38  CZ         3.6470  -21.0040   -0.6320 C.ar  172  PHE172     -0.0000
     39  N          4.2450  -14.7360   -7.0490 N.3   174  ILE174     -0.1245
     40  CA         4.1350  -13.3810   -6.5830 C.3   174  ILE174      0.1561
     41  C          4.2160  -12.4190   -7.7600 C.2   174  ILE174      0.2260
     42  O          3.5190  -11.4830   -7.7890 O.2   174  ILE174     -0.2867
     43  CB         5.2650  -13.0720   -5.5800 C.3   174  ILE174      0.0252
     44  CG1        5.2100  -14.0180   -4.3790 C.3   174  ILE174      0.0019
     45  CG2        5.2190  -11.6370   -5.1160 C.3   174  ILE174      0.0019
     46  CD1        3.8840  -14.0560   -3.6680 C.3   174  ILE174      0.0001
     47  N         -2.0890   -9.3980   -3.4930 N.3   182  LEU182     -0.1231
     48  CA        -1.0210   -9.5210   -2.5320 C.3   182  LEU182      0.1693
     49  C         -1.2860   -8.8700   -1.1800 C.2   182  LEU182      0.2592
     50  O         -0.9780   -9.4190   -0.1670 O.2   182  LEU182     -0.2718
     51  CB         0.2260   -8.9160   -3.0840 C.3   182  LEU182      0.0284
     52  CG         0.9190   -9.6630   -4.2010 C.3   182  LEU182      0.0019
     53  CD1        2.1050   -8.8970   -4.6980 C.3   182  LEU182      0.0001
     54  CD2        1.3430  -11.0560   -3.7880 C.3   182  LEU182      0.0001
     55  N         -1.7970   -7.6580   -1.2080 N.am  183  ALA183     -0.1966
     56  CA        -1.9620   -6.9030    0.0070 C.3   183  ALA183      0.1728
     57  C         -3.1830   -7.2650    0.7840 C.2   183  ALA183      0.2616
     58  O         -3.1680   -7.2380    2.0010 O.2   183  ALA183     -0.2715
     59  CB        -1.9400   -5.4260   -0.2810 C.3   183  ALA183      0.0334
     60  N         -4.2710   -7.5040    0.0690 N.am  184  TYR184     -0.1960
     61  CA        -5.5420   -7.7580    0.7090 C.3   184  TYR184      0.1771
     62  C         -6.2190   -9.0690    0.3340 C.2   184  TYR184      0.2619
     63  O         -7.3510   -9.2970    0.7000 O.2   184  TYR184     -0.2715
     64  CB        -6.4580   -6.5540    0.5140 C.3   184  TYR184      0.0574
     65  CG        -5.8410   -5.2980    1.0820 C.ar  184  TYR184     -0.0198
     66  CD1       -5.8470   -5.0580    2.4480 C.ar  184  TYR184     -0.0009
     67  CD2       -5.2320   -4.3730    0.2650 C.ar  184  TYR184     -0.0009
     68  CE1       -5.2760   -3.9220    2.9780 C.ar  184  TYR184      0.0417
     69  CE2       -4.6560   -3.2340    0.7820 C.ar  184  TYR184      0.0417
     70  CZ        -4.6840   -3.0090    2.1450 C.ar  184  TYR184      0.1957
     71  OH        -4.1060   -1.8790    2.6760 O.3   184  TYR184     -0.2866
     72  N         -5.5210   -9.9050   -0.4210 N.am  185  ASN185     -0.1972
     73  CA        -6.0350  -11.2150   -0.7810 C.3   185  ASN185      0.1688
     74  C         -7.3230  -11.1740   -1.5820 C.2   185  ASN185      0.2292
     75  O         -8.1340  -12.0830   -1.5010 O.2   185  ASN185     -0.2864
     76  CB        -6.2490  -12.0520    0.4730 C.3   185  ASN185      0.1181
     77  CG        -5.1620  -13.0720    0.6690 C.2   185  ASN185      0.2629
     78  OD1       -5.1990  -14.1530    0.0820 O.2   185  ASN185     -0.2716
     79  ND2       -4.1750  -12.7330    1.4880 N.am  185  ASN185     -0.0877
     80  N         11.8230  -11.4030   -4.8160 N.3   216  LEU216     -0.1231
     81  CA        10.3950  -11.4700   -4.6350 C.3   216  LEU216      0.1693
     82  C          9.9260  -10.4550   -3.6500 C.2   216  LEU216      0.2592
     83  O          8.8970   -9.9220   -3.7830 O.2   216  LEU216     -0.2718
     84  CB         9.9370  -12.8270   -4.1530 C.3   216  LEU216      0.0284
     85  CG        10.0180  -14.0110   -5.0480 C.3   216  LEU216      0.0019
     86  CD1        9.5630  -15.1710   -4.2120 C.3   216  LEU216      0.0001
     87  CD2        9.0550  -13.7760   -6.1800 C.3   216  LEU216      0.0001
     88  N         10.7090  -10.2270   -2.6290 N.am  217  SER217     -0.1952
     89  CA        10.3330   -9.3340   -1.5870 C.3   217  SER217      0.1924
     90  C         10.3230   -7.8830   -1.9900 C.2   217  SER217      0.2314
     91  O          9.8660   -7.0610   -1.2320 O.2   217  SER217     -0.2863
     92  CB        11.2410   -9.5280   -0.3770 C.3   217  SER217      0.2116
     93  OG        12.5490   -9.1430   -0.6270 O.3   217  SER217     -0.2180
     94  N          6.3770   -5.9320   -4.6250 N.3   220  TYR220     -0.1227
     95  CA         5.2270   -5.1690   -4.2760 C.3   220  TYR220      0.1736
     96  C          5.5800   -3.6850   -4.1560 C.2   220  TYR220      0.2595
     97  O          4.8650   -2.8560   -4.6040 O.2   220  TYR220     -0.2718
     98  CB         4.6120   -5.6680   -2.9730 C.3   220  TYR220      0.0548
     99  CG         3.4030   -4.8870   -2.5620 C.ar  220  TYR220     -0.0200
    100  CD1        2.1480   -5.2360   -2.9630 C.ar  220  TYR220     -0.0009
    101  CD2        3.5330   -3.7640   -1.8180 C.ar  220  TYR220     -0.0009
    102  CE1        1.0630   -4.5060   -2.6130 C.ar  220  TYR220      0.0417
    103  CE2        2.4510   -3.0280   -1.4790 C.ar  220  TYR220      0.0417
    104  CZ         1.2270   -3.3960   -1.8700 C.ar  220  TYR220      0.1957
    105  OH         0.1380   -2.6770   -1.5170 O.3   220  TYR220     -0.2866
    106  N          6.6980   -3.4110   -3.5310 N.am  221  GLU221     -0.1979
    107  CA         7.1170   -2.0460   -3.3220 C.3   221  GLU221      0.1602
    108  C          7.3660   -1.3500   -4.6450 C.2   221  GLU221      0.2287
    109  O          6.9720   -0.2320   -4.8250 O.2   221  GLU221     -0.2864
    110  CB         8.3850   -2.0130   -2.4890 C.3   221  GLU221      0.0415
    111  CG         8.3190   -2.8320   -1.1960 C.3   221  GLU221      0.1163
    112  CD         7.3380   -2.2790   -0.1630 C.2   221  GLU221      0.3649
    113  OE1        6.8070   -1.1590   -0.3530 O.co2 221  GLU221     -0.2457
    114  OE2        7.1160   -2.9780    0.8580 O.co2 221  GLU221     -0.2457
    115  N          4.1070   -0.4810   -6.1730 N.3   224  GLU224     -0.1245
    116  CA         3.4410    0.5760   -5.4500 C.3   224  GLU224      0.1567
    117  C          4.0050    1.9440   -5.8210 C.2   224  GLU224      0.2260
    118  O          3.2970    2.9240   -5.8290 O.2   224  GLU224     -0.2867
    119  CB         3.5670    0.3570   -3.9440 C.3   224  GLU224      0.0388
    120  CG         2.5270    1.0980   -3.1440 C.3   224  GLU224      0.1160
    121  CD         2.5630    0.7700   -1.6740 C.2   224  GLU224      0.3649
    122  OE1        3.6020    0.3270   -1.2080 O.co2 224  GLU224     -0.2457
    123  OE2        1.5390    0.9840   -1.0230 O.co2 224  GLU224     -0.2457
@<TRIPOS>BOND
     1    42    41    2
     2    41    40    1
     3    39    40    1
     4    40    43    1
     5    87    85    1
     6   115   116    1
     7    30    31    2
     8    30    29    1
     9   118   117    2
    10   117   116    1
    11    43    45    1
    12    43    44    1
    13    28    29    1
    14   116   119    1
    15    18    17    1
    16    85    86    1
    17    85    84    1
    18    29    32    1
    19   109   108    2
    20    80    81    1
    21    53    52    1
    22   108   107    1
    23    81    84    1
    24    81    82    1
    25    94    95    1
    26    97    96    2
    27     1     2    1
    28    44    46    1
    29    95    96    1
    30    95    98    1
    31    17    16    1
    32    17    19    1
    33    52    54    1
    34    52    51    1
    35    10     9    1
    36    96   106   am
    37   119   120    1
    38    16    13    1
    39    83    82    2
    40    32    33    1
    41    82    88   am
    42   106   107    1
    43    47    48    1
    44   107   110    1
    45    12    13    1
    46    12     3   am
    47   120   121    1
    48     2     3    1
    49     2     5    1
    50    51    48    1
    51    15    14    2
    52     9    11    1
    53     9     8    2
    54    98    99    1
    55   100   102   ar
    56   100    99   ar
    57    13    14    1
    58    88    89    1
    59   102   104   ar
    60    33    34   ar
    61    33    35   ar
    62     6     5    1
    63     6     7    1
    64    99   101   ar
    65    48    49    1
    66   110   111    1
    67     3     4    2
    68    34    36   ar
    69    14    20   am
    70     7     8    1
    71    90    89    1
    72    90    91    2
    73   104   105    1
    74   104   103   ar
    75   101   103   ar
    76    35    37   ar
    77   121   122   ar
    78   121   123   ar
    79    89    92    1
    80    74    75    2
    81    74    73    1
    82    36    38   ar
    83    55    49   am
    84    55    56    1
    85   111   112    1
    86    49    50    2
    87    20    21    1
    88    23    22    2
    89    37    38   ar
    90    73    72    1
    91    73    76    1
    92    22    21    1
    93    93    92    1
    94    21    24    1
    95    72    62   am
    96   113   112   ar
    97    59    56    1
    98   112   114   ar
    99    56    57    1
   100    60    61    1
   101    60    57   am
   102    78    77    2
   103    67    69   ar
   104    67    65   ar
   105    62    63    2
   106    62    61    1
   107    76    77    1
   108    64    61    1
   109    64    65    1
   110    77    79   am
   111    69    70   ar
   112    57    58    2
   113    24    25    1
   114    65    66   ar
   115    25    26    1
   116    70    71    1
   117    70    68   ar
   118    66    68   ar
   119    26    27    1
