@<TRIPOS>MOLECULE
tmp/5hucA00.pdb
 132 126 0 0 0
SMALL
GASTEIGER

@<TRIPOS>ATOM
      1  N         14.6990   38.3770  -19.5130 N.3   113  ARG113     -0.1245
      2  CA        14.4790   38.4760  -18.0820 C.3   113  ARG113      0.1563
      3  C         15.8770   38.5390  -17.4840 C.2   113  ARG113      0.2260
      4  O         16.5210   37.5040  -17.2610 O.2   113  ARG113     -0.2867
      5  CB        13.6980   37.2690  -17.5480 C.3   113  ARG113      0.0307
      6  CG        12.2770   37.1260  -18.0920 C.3   113  ARG113      0.0489
      7  CD        11.5620   35.9290  -17.4760 C.3   113  ARG113      0.2205
      8  NE        11.3310   36.1370  -16.0430 N.pl3 113  ARG113     -0.0865
      9  CZ        10.1520   36.3010  -15.4330 C.cat 113  ARG113      0.5346
     10  NH1        8.9950   36.2420  -16.0860 N.pl3 113  ARG113      0.1354
     11  NH2       10.1290   36.4900  -14.1140 N.pl3 113  ARG113      0.1354
     12  N         15.4110   41.5090  -12.7600 N.3   117  GLN117     -0.1245
     13  CA        14.4220   40.5100  -12.3410 C.3   117  GLN117      0.1566
     14  C         14.8590   39.8020  -11.0530 C.2   117  GLN117      0.2260
     15  O         15.3360   38.6630  -11.0710 O.2   117  GLN117     -0.2867
     16  CB        14.1420   39.5140  -13.4860 C.3   117  GLN117      0.0367
     17  CG        13.0170   38.5130  -13.2310 C.3   117  GLN117      0.0905
     18  CD        11.7170   39.1630  -12.7730 C.2   117  GLN117      0.2608
     19  OE1       11.3190   40.2170  -13.2810 O.2   117  GLN117     -0.2717
     20  NE2       11.0500   38.5360  -11.8060 N.am  117  GLN117     -0.0878
     21  N         10.2300   38.9400   -6.5110 N.3   120  LYS120     -0.1231
     22  CA         9.4330   37.7480   -6.7580 C.3   120  LYS120      0.1678
     23  C          8.1250   37.8380   -5.9500 C.2   120  LYS120      0.2434
     24  O          8.1640   37.7530   -4.7180 O.2   120  LYS120     -0.2733
     25  CB        10.2520   36.5000   -6.3860 C.3   120  LYS120      0.0284
     26  CG         9.5010   35.1730   -6.3960 C.3   120  LYS120      0.0035
     27  CD         8.6610   34.9590   -7.6530 C.3   120  LYS120      0.0206
     28  CE         9.4980   34.7920   -8.9140 C.3   120  LYS120      0.1093
     29  NZ         9.7860   36.0310   -9.6960 N.3   120  LYS120     -0.1314
     30  N          6.9680   38.0250   -6.6360 N.am  121  PRO121     -0.2718
     31  CA         5.6930   38.1350   -5.9090 C.3   121  PRO121      0.1535
     32  C          5.0490   36.8090   -5.4740 C.2   121  PRO121      0.2598
     33  O          4.3620   36.7880   -4.4540 O.2   121  PRO121     -0.2715
     34  CB         4.7900   38.8610   -6.9090 C.3   121  PRO121      0.0310
     35  CG         5.2980   38.4320   -8.2340 C.3   121  PRO121      0.0237
     36  CD         6.7870   38.3070   -8.0770 C.3   121  PRO121      0.0939
     37  N          5.2560   35.7280   -6.2290 N.am  122  ARG122     -0.1978
     38  CA         4.5850   34.4470   -5.9440 C.3   122  ARG122      0.1597
     39  C          4.9840   33.9030   -4.5690 C.2   122  ARG122      0.2287
     40  O          6.0600   33.3230   -4.3990 O.2   122  ARG122     -0.2864
     41  CB         4.8500   33.4090   -7.0490 C.3   122  ARG122      0.0334
     42  CG         3.8840   32.2200   -7.0620 C.3   122  ARG122      0.0492
     43  CD         4.4080   30.9830   -6.3360 C.3   122  ARG122      0.2205
     44  NE         5.1990   30.1010   -7.2020 N.pl3 122  ARG122     -0.0865
     45  CZ         5.6960   28.9130   -6.8410 C.cat 122  ARG122      0.5346
     46  NH1        5.5040   28.4280   -5.6130 N.pl3 122  ARG122      0.1354
     47  NH2        6.3970   28.1960   -7.7190 N.pl3 122  ARG122      0.1354
     48  N          9.8740   42.5260  -13.9770 N.3   235  GLU235     -0.1245
     49  CA         8.5830   42.9490  -13.4580 C.3   235  GLU235      0.1567
     50  C          8.7640   44.1650  -12.5550 C.2   235  GLU235      0.2260
     51  O          9.3690   44.0570  -11.4850 O.2   235  GLU235     -0.2867
     52  CB         7.9040   41.8230  -12.6740 C.3   235  GLU235      0.0388
     53  CG         6.4100   42.0790  -12.4740 C.3   235  GLU235      0.1160
     54  CD         5.8580   41.5560  -11.1670 C.2   235  GLU235      0.3649
     55  OE1        6.2800   40.4660  -10.7400 O.co2 235  GLU235     -0.2457
     56  OE2        4.9920   42.2450  -10.5810 O.co2 235  GLU235     -0.2457
     57  N          7.1390   45.3200  -17.0160 N.3   267  TRP267     -0.1241
     58  CA         5.8100   44.6910  -17.1030 C.3   267  TRP267      0.1605
     59  C          5.1000   44.5550  -15.7550 C.2   267  TRP267      0.2264
     60  O          5.7420   44.3800  -14.7260 O.2   267  TRP267     -0.2867
     61  CB         5.8920   43.3430  -17.8270 C.3   267  TRP267      0.0550
     62  CG         6.2590   42.1570  -16.9940 C.ar  267  TRP267      0.0003
     63  CD1        5.4640   41.5060  -16.0960 C.ar  267  TRP267      0.0946
     64  CD2        7.4950   41.4390  -17.0250 C.ar  267  TRP267      0.0152
     65  NE1        6.1330   40.4440  -15.5490 N.ar  267  TRP267     -0.2442
     66  CE2        7.3830   40.3760  -16.1010 C.ar  267  TRP267      0.0810
     67  CE3        8.6940   41.5960  -17.7340 C.ar  267  TRP267      0.0012
     68  CZ2        8.4280   39.4700  -15.8660 C.ar  267  TRP267      0.0191
     69  CZ3        9.7370   40.6910  -17.5010 C.ar  267  TRP267      0.0001
     70  CH2        9.5930   39.6440  -16.5740 C.ar  267  TRP267      0.0015
     71  N          2.4040   42.6170  -13.1740 N.3   269  GLY269     -0.1210
     72  CA         2.0780   41.2270  -12.8550 C.3   269  GLY269      0.1956
     73  C          0.6000   40.9910  -12.6090 C.2   269  GLY269      0.2612
     74  O         -0.1940   41.9320  -12.5360 O.2   269  GLY269     -0.2717
     75  N          0.2440   39.7160  -12.4780 N.am  270  GLU270     -0.1965
     76  CA        -1.1320   39.3000  -12.2070 C.3   270  GLU270      0.1733
     77  C         -1.6150   39.8000  -10.8390 C.2   270  GLU270      0.2616
     78  O         -2.7430   40.2920  -10.7240 O.2   270  GLU270     -0.2715
     79  CB        -1.2370   37.7680  -12.2950 C.3   270  GLU270      0.0429
     80  CG        -2.6160   37.1640  -12.0230 C.3   270  GLU270      0.1163
     81  CD        -3.5470   37.1790  -13.2220 C.2   270  GLU270      0.3649
     82  OE1       -3.4100   38.0610  -14.0960 O.co2 270  GLU270     -0.2457
     83  OE2       -4.4340   36.3000  -13.2780 O.co2 270  GLU270     -0.2457
     84  N         -0.7630   39.6740   -9.8170 N.am  271  ARG271     -0.1977
     85  CA        -1.1200   40.0860   -8.4530 C.3   271  ARG271      0.1597
     86  C         -1.1360   41.5990   -8.2560 C.2   271  ARG271      0.2287
     87  O         -1.8340   42.0890   -7.3630 O.2   271  ARG271     -0.2864
     88  CB        -0.1780   39.4700   -7.4130 C.3   271  ARG271      0.0334
     89  CG        -0.3920   37.9880   -7.1320 C.3   271  ARG271      0.0492
     90  CD         0.4250   37.1090   -8.0540 C.3   271  ARG271      0.2205
     91  NE         0.3770   35.7010   -7.6780 N.pl3 271  ARG271     -0.0865
     92  CZ         0.9730   34.7160   -8.3550 C.cat 271  ARG271      0.5346
     93  NH1        1.6780   34.9680   -9.4620 N.pl3 271  ARG271      0.1354
     94  NH2        0.8630   33.4630   -7.9230 N.pl3 271  ARG271      0.1354
     95  N          0.5110   41.1500  -17.4180 N.3   293  LYS293     -0.1245
     96  CA         0.1790   39.7300  -17.3090 C.3   293  LYS293      0.1561
     97  C         -1.3320   39.5540  -17.1540 C.2   293  LYS293      0.2260
     98  O         -1.9590   40.2340  -16.3360 O.2   293  LYS293     -0.2867
     99  CB         0.9290   39.0760  -16.1420 C.3   293  LYS293      0.0271
    100  CG         2.4420   39.0390  -16.3090 C.3   293  LYS293      0.0035
    101  CD         2.8480   38.2270  -17.5270 C.3   293  LYS293      0.0206
    102  CE         4.3130   37.8330  -17.5010 C.3   293  LYS293      0.1093
    103  NZ         4.5740   36.6070  -16.6990 N.3   293  LYS293     -0.1314
    104  N         -1.4220   34.3420  -19.9170 N.3   324  ARG324     -0.1245
    105  CA        -0.9660   33.2210  -19.0800 C.3   324  ARG324      0.1563
    106  C         -2.1950   32.5460  -18.4830 C.2   324  ARG324      0.2260
    107  O         -2.5470   32.7740  -17.3240 O.2   324  ARG324     -0.2867
    108  CB         0.0210   33.6710  -17.9830 C.3   324  ARG324      0.0307
    109  CG        -0.3350   34.9640  -17.2500 C.3   324  ARG324      0.0489
    110  CD        -0.1180   34.8610  -15.7490 C.3   324  ARG324      0.2205
    111  NE        -1.1360   34.0140  -15.1200 N.pl3 324  ARG324     -0.0865
    112  CZ        -1.3450   33.8970  -13.8070 C.cat 324  ARG324      0.5346
    113  NH1       -0.6080   34.5760  -12.9300 N.pl3 324  ARG324      0.1354
    114  NH2       -2.3110   33.0920  -13.3590 N.pl3 324  ARG324      0.1354
    115  N          3.4960   30.6330  -16.2840 N.3   356  HIS356     -0.1241
    116  CA         2.8370   30.9620  -15.0060 C.3   356  HIS356      0.1621
    117  C          1.3580   30.5420  -14.9150 C.2   356  HIS356      0.2264
    118  O          0.7540   30.6590  -13.8450 O.2   356  HIS356     -0.2867
    119  CB         2.9950   32.4600  -14.6870 C.3   356  HIS356      0.0745
    120  CG         4.4210   32.8860  -14.5010 C.ar  356  HIS356      0.0817
    121  ND1        5.1330   33.5470  -15.4780 N.ar  356  HIS356     -0.2268
    122  CD2        5.2710   32.7290  -13.4580 C.ar  356  HIS356      0.1154
    123  CE1        6.3580   33.7820  -15.0440 C.ar  356  HIS356      0.1986
    124  NE2        6.4710   33.2940  -13.8220 N.ar  356  HIS356     -0.2212
    125  N         10.2540   29.7550   -9.7240 N.3   428  ASP428     -0.1239
    126  CA         9.4960   28.8660  -10.6270 C.3   428  ASP428      0.1674
    127  C         10.4160   27.8950  -11.3640 C.2   428  ASP428      0.2266
    128  O         11.6060   28.1700  -11.5080 O.2   428  ASP428     -0.2867
    129  CB         8.7020   29.6610  -11.6700 C.3   428  ASP428      0.1410
    130  CG         7.6780   30.6010  -11.0540 C.2   428  ASP428      0.3668
    131  OD1        6.9150   30.1600  -10.1640 O.co2 428  ASP428     -0.2456
    132  OD2        7.6250   31.7770  -11.4800 O.co2 428  ASP428     -0.2456
@<TRIPOS>BOND
     1   104   105    1
     2     1     2    1
     3   105   106    1
     4   105   108    1
     5   106   107    2
     6     6     5    1
     7     6     7    1
     8     2     5    1
     9     2     3    1
    10   108   109    1
    11    61    58    1
    12    61    62    1
    13    67    69   ar
    14    67    64   ar
    15   101   102    1
    16   101   100    1
    17   102   103    1
    18    69    70   ar
    19     3     4    2
    20     7     8    1
    21    95    96    1
    22    96    97    1
    23    96    99    1
    24   109   110    1
    25    97    98    2
    26    58    57    1
    27    58    59    1
    28    64    62   ar
    29    64    66   ar
    30    62    63   ar
    31    70    68   ar
    32   100    99    1
    33   115   116    1
    34    66    68   ar
    35    66    65   ar
    36    63    65   ar
    37    10     9    1
    38     8     9    2
    39    59    60    2
    40   110   111    1
    41   121   123   ar
    42   121   120   ar
    43     9    11    1
    44   111   112    2
    45   123   124   ar
    46   116   117    1
    47   116   119    1
    48   117   118    2
    49   119   120    1
    50   120   122   ar
    51    82    81   ar
    52    48    49    1
    53   124   122   ar
    54   112   114    1
    55   112   113    1
    56    16    17    1
    57    16    13    1
    58    49    52    1
    59    49    50    1
    60    19    18    2
    61    83    81   ar
    62    17    18    1
    63    81    80    1
    64    71    72    1
    65    72    73    1
    66    18    20   am
    67    12    13    1
    68    52    53    1
    69    73    74    2
    70    73    75   am
    71    50    51    2
    72    75    76    1
    73    53    54    1
    74    13    14    1
    75    79    76    1
    76    79    80    1
    77    76    77    1
    78   129   130    1
    79   129   126    1
    80   128   127    2
    81   132   130   ar
    82   127   126    1
    83    54    55   ar
    84    54    56   ar
    85    15    14    2
    86   130   131   ar
    87    77    78    2
    88    77    84   am
    89   126   125    1
    90    84    85    1
    91    29    28    1
    92    93    92    1
    93    28    27    1
    94    85    86    1
    95    85    88    1
    96    92    94    1
    97    92    91    2
    98    86    87    2
    99    35    36    1
   100    35    34    1
   101    36    30    1
   102    90    91    1
   103    90    89    1
   104    47    45    1
   105    27    26    1
   106    88    89    1
   107    44    45    2
   108    44    43    1
   109    42    41    1
   110    42    43    1
   111    41    38    1
   112    34    31    1
   113    45    46    1
   114    22    21    1
   115    22    25    1
   116    22    23    1
   117    30    23   am
   118    30    31    1
   119    26    25    1
   120    37    38    1
   121    37    32   am
   122    23    24    2
   123    38    39    1
   124    31    32    1
   125    32    33    2
   126    39    40    2
