@<TRIPOS>MOLECULE
tmp/5hucA02.pdb
 100 95 0 0 0
SMALL
GASTEIGER

@<TRIPOS>ATOM
      1  N         17.7420   53.9870  -26.5610 N.3    50  GLU50      -0.1245
      2  CA        17.5630   52.5420  -26.7340 C.3    50  GLU50       0.1567
      3  C         16.1130   52.1340  -26.5020 C.2    50  GLU50       0.2260
      4  O         15.6340   51.1790  -27.1130 O.2    50  GLU50      -0.2867
      5  CB        18.4340   51.7630  -25.7580 C.3    50  GLU50       0.0388
      6  CG        19.9210   51.9810  -25.9260 C.3    50  GLU50       0.1160
      7  CD        20.7380   51.2510  -24.8830 C.2    50  GLU50       0.3649
      8  OE1       20.3560   51.2400  -23.6930 O.co2  50  GLU50      -0.2457
      9  OE2       21.7790   50.6820  -25.2580 O.co2  50  GLU50      -0.2457
     10  N         14.2410   53.3090  -29.6100 N.3    53  GLU53      -0.1245
     11  CA        14.5500   52.3140  -30.6350 C.3    53  GLU53       0.1567
     12  C         13.7500   51.0180  -30.4450 C.2    53  GLU53       0.2260
     13  O         13.3250   50.4110  -31.4260 O.2    53  GLU53      -0.2867
     14  CB        16.0640   52.0280  -30.6470 C.3    53  GLU53       0.0388
     15  CG        16.5610   51.0240  -31.6910 C.3    53  GLU53       0.1160
     16  CD        16.2690   51.4160  -33.1370 C.2    53  GLU53       0.3649
     17  OE1       15.9840   52.6040  -33.4130 O.co2  53  GLU53      -0.2457
     18  OE2       16.3370   50.5260  -34.0140 O.co2  53  GLU53      -0.2457
     19  N         23.9210   43.7480  -17.3220 N.3   167  MET167     -0.1245
     20  CA        23.6820   44.4460  -18.5860 C.3   167  MET167      0.1570
     21  C         24.9890   44.8480  -19.2590 C.2   167  MET167      0.2261
     22  O         25.0730   44.8240  -20.4810 O.2   167  MET167     -0.2867
     23  CB        22.7720   45.6750  -18.4080 C.3   167  MET167      0.0387
     24  CG        22.1830   46.1990  -19.7170 C.3   167  MET167      0.0595
     25  SD        21.0870   45.0040  -20.5120 S.3   167  MET167     -0.1393
     26  CE        21.3150   45.3690  -22.2410 C.3   167  MET167      0.0692
     27  N         26.0320   41.6190  -21.0840 N.3   170  VAL170     -0.1231
     28  CA        25.2390   41.2200  -22.2710 C.3   170  VAL170      0.1692
     29  C         25.5610   42.1260  -23.4510 C.2   170  VAL170      0.2591
     30  O         25.6590   41.6540  -24.5840 O.2   170  VAL170     -0.2718
     31  CB        23.6920   41.1120  -22.0410 C.3   170  VAL170      0.0266
     32  CG1       23.3750   40.2930  -20.7930 C.3   170  VAL170      0.0020
     33  CG2       23.0010   42.4680  -21.9890 C.3   170  VAL170      0.0020
     34  N         25.7300   43.4190  -23.1740 N.am  171  ARG171     -0.1980
     35  CA        26.2280   44.3730  -24.1660 C.3   171  ARG171      0.1597
     36  C         27.5780   43.9240  -24.7060 C.2   171  ARG171      0.2287
     37  O         27.7900   43.9140  -25.9170 O.2   171  ARG171     -0.2864
     38  CB        26.3780   45.7680  -23.5590 C.3   171  ARG171      0.0334
     39  CG        25.0700   46.4740  -23.2470 C.3   171  ARG171      0.0492
     40  CD        25.3250   47.7710  -22.4900 C.3   171  ARG171      0.2205
     41  NE        24.1290   48.2930  -21.8270 N.pl3 171  ARG171     -0.0865
     42  CZ        23.0930   48.8640  -22.4420 C.cat 171  ARG171      0.5346
     43  NH1       23.0610   48.9940  -23.7640 N.pl3 171  ARG171      0.1354
     44  NH2       22.0640   49.3030  -21.7240 N.pl3 171  ARG171      0.1354
     45  N         27.2780   40.5410  -26.7580 N.3   174  THR174     -0.1203
     46  CA        26.6180   40.7490  -28.0510 C.3   174  THR174      0.1994
     47  C         27.4980   41.4700  -29.0830 C.2   174  THR174      0.2618
     48  O         27.4560   41.1300  -30.2680 O.2   174  THR174     -0.2717
     49  CB        25.2780   41.4950  -27.8860 C.3   174  THR174      0.1784
     50  OG1       25.4540   42.6350  -27.0370 O.3   174  THR174     -0.2211
     51  CG2       24.2270   40.5750  -27.2730 C.3   174  THR174      0.0376
     52  N         28.2900   42.4460  -28.6330 N.am  175  SER175     -0.1951
     53  CA        29.2180   43.1820  -29.5120 C.3   175  SER175      0.1924
     54  C         30.4930   42.3970  -29.8500 C.2   175  SER175      0.2314
     55  O         31.0380   42.5480  -30.9430 O.2   175  SER175     -0.2863
     56  CB        29.6020   44.5320  -28.8940 C.3   175  SER175      0.2116
     57  OG        30.5810   44.3830  -27.8770 O.3   175  SER175     -0.2180
     58  N         24.0230   41.3130  -32.4570 N.3   228  ALA228     -0.1231
     59  CA        22.5800   41.5060  -32.2950 C.3   228  ALA228      0.1694
     60  C         22.2600   42.3530  -31.0640 C.2   228  ALA228      0.2592
     61  O         23.1480   42.6960  -30.2840 O.2   228  ALA228     -0.2718
     62  CB        21.8900   40.1560  -32.1950 C.3   228  ALA228      0.0304
     63  N         20.9800   42.6810  -30.9060 N.am  229  ASP229     -0.1960
     64  CA        20.4940   43.4690  -29.7790 C.3   229  ASP229      0.1840
     65  C         19.6390   42.6110  -28.8530 C.2   229  ASP229      0.2622
     66  O         18.5620   42.1560  -29.2450 O.2   229  ASP229     -0.2715
     67  CB        19.6670   44.6530  -30.2860 C.3   229  ASP229      0.1450
     68  CG        20.5020   45.6860  -31.0280 C.2   229  ASP229      0.3671
     69  OD1       21.7490   45.6360  -30.9530 O.co2 229  ASP229     -0.2456
     70  OD2       19.9000   46.5700  -31.6710 O.co2 229  ASP229     -0.2456
     71  N         20.1440   42.3840  -27.6390 N.am  230  ILE230     -0.1963
     72  CA        19.3710   41.8090  -26.5360 C.3   230  ILE230      0.1727
     73  C         18.9560   42.9490  -25.6020 C.2   230  ILE230      0.2616
     74  O         19.8030   43.5820  -24.9760 O.2   230  ILE230     -0.2715
     75  CB        20.1930   40.7580  -25.7520 C.3   230  ILE230      0.0290
     76  CG1       20.4400   39.5290  -26.6300 C.3   230  ILE230      0.0022
     77  CG2       19.4840   40.3450  -24.4610 C.3   230  ILE230      0.0023
     78  CD1       21.4110   38.5270  -26.0460 C.3   230  ILE230      0.0001
     79  N         17.6530   43.2000  -25.5120 N.am  231  TYR231     -0.1974
     80  CA        17.1080   44.1870  -24.5760 C.3   231  TYR231      0.1639
     81  C         16.8670   43.4660  -23.2550 C.2   231  TYR231      0.2290
     82  O         17.0070   42.2410  -23.1820 O.2   231  TYR231     -0.2864
     83  CB        15.8090   44.7820  -25.1170 C.3   231  TYR231      0.0560
     84  CG        15.9580   45.5470  -26.4210 C.ar  231  TYR231     -0.0198
     85  CD1       16.0200   44.8850  -27.6450 C.ar  231  TYR231     -0.0009
     86  CD2       15.9990   46.9420  -26.4310 C.ar  231  TYR231     -0.0009
     87  CE1       16.1410   45.5910  -28.8410 C.ar  231  TYR231      0.0417
     88  CE2       16.1180   47.6560  -27.6190 C.ar  231  TYR231      0.0417
     89  CZ        16.1870   46.9840  -28.8200 C.ar  231  TYR231      0.1957
     90  OH        16.3100   47.7030  -29.9950 O.3   231  TYR231     -0.2866
     91  N         14.7510   48.3540  -20.2380 N.3   264  HIS264     -0.1241
     92  CA        14.1570   48.8250  -21.4870 C.3   264  HIS264      0.1621
     93  C         12.6310   48.7000  -21.3930 C.2   264  HIS264      0.2264
     94  O         11.9170   49.7060  -21.4330 O.2   264  HIS264     -0.2867
     95  CB        14.7060   48.0410  -22.6880 C.3   264  HIS264      0.0745
     96  CG        16.1360   48.3550  -23.0180 C.ar  264  HIS264      0.0817
     97  ND1       17.1380   47.4060  -22.9980 N.ar  264  HIS264     -0.2268
     98  CD2       16.7300   49.5140  -23.3860 C.ar  264  HIS264      0.1154
     99  CE1       18.2840   47.9650  -23.3340 C.ar  264  HIS264      0.1986
    100  NE2       18.0650   49.2450  -23.5750 N.ar  264  HIS264     -0.2212
@<TRIPOS>BOND
     1    18    16   ar
     2    17    16   ar
     3    16    15    1
     4    58    59    1
     5    59    62    1
     6    59    60    1
     7    15    14    1
     8    70    68   ar
     9    13    12    2
    10    60    63   am
    11    60    61    2
    12    68    69   ar
    13    68    67    1
    14    55    54    2
    15    63    64    1
    16    14    11    1
    17    11    12    1
    18    11    10    1
    19    67    64    1
    20    48    47    2
    21    90    89    1
    22    54    53    1
    23    64    65    1
    24    53    56    1
    25    53    52    1
    26    66    65    2
    27    47    52   am
    28    47    46    1
    29    56    57    1
    30    65    71   am
    31    87    89   ar
    32    87    85   ar
    33    89    88   ar
    34    46    49    1
    35    46    45    1
    36    49    51    1
    37    49    50    1
    38    85    84   ar
    39    71    72    1
    40    88    86   ar
    41     4     3    2
    42     2     1    1
    43     2     3    1
    44     2     5    1
    45    76    78    1
    46    76    75    1
    47    72    75    1
    48    72    73    1
    49    86    84   ar
    50    84    83    1
    51     6     5    1
    52     6     7    1
    53    37    36    2
    54    75    77    1
    55    73    79   am
    56    73    74    2
    57    79    80    1
    58     9     7   ar
    59    83    80    1
    60     7     8   ar
    61    36    35    1
    62    30    29    2
    63    80    81    1
    64    35    38    1
    65    35    34    1
    66    43    42    1
    67   100    98   ar
    68   100    99   ar
    69    38    39    1
    70    29    34   am
    71    29    28    1
    72    98    96   ar
    73    99    97   ar
    74    81    82    2
    75    39    40    1
    76    96    97   ar
    77    96    95    1
    78    95    92    1
    79    40    41    1
    80    42    41    2
    81    42    44    1
    82    28    31    1
    83    28    27    1
    84    26    25    1
    85    31    33    1
    86    31    32    1
    87    92    93    1
    88    92    91    1
    89    94    93    2
    90    25    24    1
    91    22    21    2
    92    24    23    1
    93    21    20    1
    94    20    23    1
    95    20    19    1
