@<TRIPOS>MOLECULE
tmp/5hudC06.pdb
 82 78 0 0 0
SMALL
GASTEIGER

@<TRIPOS>ATOM
      1  N         46.5070   93.8750   48.6180 N.3    64  LYS64      -0.1245
      2  CA        46.2860   92.4160   48.5020 C.3    64  LYS64       0.1561
      3  C         46.4670   91.6460   49.8100 C.2    64  LYS64       0.2260
      4  O         45.6340   90.7960   50.1450 O.2    64  LYS64      -0.2867
      5  CB        47.1970   91.7830   47.4320 C.3    64  LYS64       0.0271
      6  CG        47.0100   92.2840   46.0060 C.3    64  LYS64       0.0035
      7  CD        45.5430   92.5020   45.6770 C.3    64  LYS64       0.0206
      8  CE        45.3190   92.8600   44.2090 C.3    64  LYS64       0.1093
      9  NZ        43.9060   93.2140   43.8500 N.3    64  LYS64      -0.1314
     10  N         43.6390   91.9630   51.9960 N.3    67  ASP67      -0.1239
     11  CA        42.5590   91.0220   51.6600 C.3    67  ASP67       0.1674
     12  C         42.8190   89.6300   52.2270 C.2    67  ASP67       0.2266
     13  O         41.8970   88.9600   52.6950 O.2    67  ASP67      -0.2867
     14  CB        42.3700   90.8970   50.1510 C.3    67  ASP67       0.1410
     15  CG        41.9450   92.1900   49.4910 C.2    67  ASP67       0.3668
     16  OD1       41.4230   93.0890   50.1730 O.co2  67  ASP67      -0.2456
     17  OD2       42.1310   92.2810   48.2580 O.co2  67  ASP67      -0.2456
     18  N         39.8130   87.0350   52.7190 N.3    72  LYS72      -0.1231
     19  CA        39.3250   87.1360   51.3430 C.3    72  LYS72       0.1693
     20  C         40.3490   86.7130   50.2950 C.2    72  LYS72       0.2591
     21  O         40.0750   86.8020   49.1090 O.2    72  LYS72      -0.2718
     22  CB        38.8550   88.5700   51.1010 C.3    72  LYS72       0.0285
     23  CG        37.7390   88.9490   52.0700 C.3    72  LYS72       0.0035
     24  CD        37.0720   90.2760   51.7490 C.3    72  LYS72       0.0206
     25  CE        37.9220   91.4530   52.1850 C.3    72  LYS72       0.1093
     26  NZ        37.1390   92.7120   52.0340 N.3    72  LYS72      -0.1314
     27  N         41.5240   86.2600   50.7290 N.am   73  ALA73      -0.1980
     28  CA        42.5820   85.7990   49.8160 C.3    73  ALA73       0.1597
     29  C         43.5590   84.8870   50.5500 C.2    73  ALA73       0.2287
     30  O         43.5230   84.8220   51.7640 O.2    73  ALA73      -0.2864
     31  CB        43.3010   86.9790   49.2080 C.3    73  ALA73       0.0319
     32  N         41.3840   84.5420   45.4990 N.3   114  PRO114     -0.2102
     33  CA        42.6650   84.8370   44.8770 C.3   114  PRO114      0.1504
     34  C         43.8290   84.3360   45.7020 C.2   114  PRO114      0.2576
     35  O         43.7290   84.2280   46.9190 O.2   114  PRO114     -0.2718
     36  CB        42.6870   86.3690   44.8400 C.3   114  PRO114      0.0282
     37  CG        41.2340   86.7610   44.8080 C.3   114  PRO114      0.0208
     38  CD        40.6080   85.7790   45.7420 C.3   114  PRO114      0.0893
     39  N         44.9080   83.9900   45.0230 N.am  115  VAL115     -0.1966
     40  CA        46.1270   83.6150   45.6770 C.3   115  VAL115      0.1727
     41  C         47.1560   84.6780   45.3410 C.2   115  VAL115      0.2616
     42  O         47.3470   85.0040   44.1650 O.2   115  VAL115     -0.2715
     43  CB        46.5880   82.2250   45.2180 C.3   115  VAL115      0.0290
     44  CG1       47.9610   81.8890   45.7930 C.3   115  VAL115      0.0023
     45  CG2       45.5600   81.1870   45.6340 C.3   115  VAL115      0.0023
     46  N         47.7870   85.2370   46.3730 N.am  116  ILE116     -0.1963
     47  CA        48.8840   86.1820   46.1860 C.3   116  ILE116      0.1727
     48  C         50.1710   85.3620   46.1260 C.2   116  ILE116      0.2616
     49  O         50.4020   84.4590   46.9590 O.2   116  ILE116     -0.2715
     50  CB        48.9640   87.2590   47.3060 C.3   116  ILE116      0.0290
     51  CG1       47.5970   87.8590   47.6070 C.3   116  ILE116      0.0022
     52  CG2       49.9350   88.3790   46.9630 C.3   116  ILE116      0.0023
     53  CD1       46.7930   88.2820   46.3960 C.3   116  ILE116      0.0001
     54  N         51.0010   85.7000   45.1460 N.am  117  LYS117     -0.1977
     55  CA        52.1080   84.8700   44.7170 C.3   117  LYS117      0.1596
     56  C         53.4070   85.5970   44.9680 C.2   117  LYS117      0.2287
     57  O         53.7500   86.6050   44.3300 O.2   117  LYS117     -0.2864
     58  CB        51.9540   84.5480   43.2300 C.3   117  LYS117      0.0298
     59  CG        50.7400   83.6870   42.9160 C.3   117  LYS117      0.0038
     60  CD        50.3990   83.7630   41.4430 C.3   117  LYS117      0.0206
     61  CE        49.4270   84.8840   41.1390 C.3   117  LYS117      0.1093
     62  NZ        48.0090   84.4200   41.2700 N.3   117  LYS117     -0.1314
     63  N         50.5580   88.5700   38.6810 N.3   236  ASP236     -0.1239
     64  CA        51.6250   89.2460   39.3890 C.3   236  ASP236      0.1674
     65  C         52.3090   88.2640   40.3120 C.2   236  ASP236      0.2266
     66  O         51.6190   87.5940   41.1100 O.2   236  ASP236     -0.2867
     67  CB        51.0580   90.4230   40.1740 C.3   236  ASP236      0.1410
     68  CG        50.5610   91.5200   39.2590 C.2   236  ASP236      0.3668
     69  OD1       51.2850   91.8700   38.3010 O.co2 236  ASP236     -0.2456
     70  OD2       49.4510   92.0350   39.4790 O.co2 236  ASP236     -0.2456
     71  N         55.2740   88.4730   43.1430 N.3   238  TYR238     -0.1241
     72  CA        55.9880   89.4150   43.9980 C.3   238  TYR238      0.1605
     73  C         57.2870   88.7710   44.4940 C.2   238  TYR238      0.2264
     74  O         57.3280   87.5750   44.6350 O.2   238  TYR238     -0.2867
     75  CB        55.0750   89.7920   45.1410 C.3   238  TYR238      0.0534
     76  CG        53.8630   90.5990   44.7030 C.ar  238  TYR238     -0.0201
     77  CD1       52.6450   89.9710   44.3300 C.ar  238  TYR238     -0.0009
     78  CD2       53.9190   91.9960   44.6840 C.ar  238  TYR238     -0.0009
     79  CE1       51.5380   90.7130   43.9580 C.ar  238  TYR238      0.0417
     80  CE2       52.8210   92.7480   44.3050 C.ar  238  TYR238      0.0417
     81  CZ        51.6480   92.1180   43.9190 C.ar  238  TYR238      0.1957
     82  OH        50.6000   92.9390   43.5480 O.3   238  TYR238     -0.2866
@<TRIPOS>BOND
     1    69    68   ar
     2    63    64    1
     3    68    70   ar
     4    68    67    1
     5    64    67    1
     6    64    65    1
     7    65    66    2
     8    61    62    1
     9    61    60    1
    10    60    59    1
    11    59    58    1
    12    71    72    1
    13    58    55    1
    14    82    81    1
    15     9     8    1
    16    81    79   ar
    17    81    80   ar
    18    79    77   ar
    19    72    73    1
    20    72    75    1
    21    42    41    2
    22     8     7    1
    23    80    78   ar
    24    57    56    2
    25    77    76   ar
    26    73    74    2
    27    78    76   ar
    28    76    75    1
    29    55    56    1
    30    55    54    1
    31    37    36    1
    32    37    38    1
    33    36    33    1
    34    33    32    1
    35    33    34    1
    36    39    40    1
    37    39    34   am
    38    54    48   am
    39    43    45    1
    40    43    40    1
    41    43    44    1
    42    41    40    1
    43    41    46   am
    44    32    38    1
    45     7     6    1
    46    34    35    2
    47     6     5    1
    48    48    47    1
    49    48    49    2
    50    47    46    1
    51    47    50    1
    52    53    51    1
    53    52    50    1
    54    50    51    1
    55     5     2    1
    56    17    15   ar
    57     2     1    1
    58     2     3    1
    59    21    20    2
    60    31    28    1
    61    15    14    1
    62    15    16   ar
    63     3     4    2
    64    28    29    1
    65    28    27    1
    66    14    11    1
    67    20    27   am
    68    20    19    1
    69    29    30    2
    70    22    19    1
    71    22    23    1
    72    19    18    1
    73    11    10    1
    74    11    12    1
    75    24    23    1
    76    24    25    1
    77    26    25    1
    78    12    13    2
