@<TRIPOS>MOLECULE
tmp/5hudD03.pdb
 94 89 0 0 0
SMALL
GASTEIGER

@<TRIPOS>ATOM
      1  N         58.1480   87.8960   24.0750 N.3    58  GLU58      -0.1245
      2  CA        57.9690   89.3640   23.9680 C.3    58  GLU58       0.1567
      3  C         58.3400   89.8540   22.5740 C.2    58  GLU58       0.2260
      4  O         57.6530   90.6890   21.9960 O.2    58  GLU58      -0.2867
      5  CB        58.8570   90.1310   24.9330 C.3    58  GLU58       0.0388
      6  CG        58.6520   89.8080   26.3820 C.3    58  GLU58       0.1160
      7  CD        59.5640   90.6360   27.2020 C.2    58  GLU58       0.3649
      8  OE1       60.6260   90.1550   27.6220 O.co2  58  GLU58      -0.2457
      9  OE2       59.2320   91.8140   27.3810 O.co2  58  GLU58      -0.2457
     10  N         55.7170   89.0070   20.0350 N.3    61  GLU61      -0.1245
     11  CA        54.6070   89.9480   20.1740 C.3    61  GLU61       0.1567
     12  C         54.9090   91.2980   19.5030 C.2    61  GLU61       0.2260
     13  O         54.1100   91.8050   18.7350 O.2    61  GLU61      -0.2867
     14  CB        54.2780   90.1250   21.6630 C.3    61  GLU61       0.0388
     15  CG        52.9480   90.8130   21.9250 C.3    61  GLU61       0.1160
     16  CD        51.7780   90.1500   21.2080 C.2    61  GLU61       0.3649
     17  OE1       50.9660   90.8760   20.6000 O.co2  61  GLU61      -0.2457
     18  OE2       51.7060   88.8890   21.2230 O.co2  61  GLU61      -0.2457
     19  N         65.8610   97.6630   32.4930 N.3   175  MET175     -0.1245
     20  CA        64.6770   97.0040   31.9400 C.3   175  MET175      0.1570
     21  C         63.7320   96.5910   33.0710 C.2   175  MET175      0.2261
     22  O         62.5020   96.7230   32.9230 O.2   175  MET175     -0.2867
     23  CB        65.0090   95.8140   31.0250 C.3   175  MET175      0.0387
     24  CG        63.8160   95.3220   30.1890 C.3   175  MET175      0.0595
     25  SD        63.3520   96.5240   28.9490 S.3   175  MET175     -0.1393
     26  CE        61.5910   96.2490   28.7450 C.3   175  MET175      0.0692
     27  N         61.8320   99.7530   33.9900 N.3   178  VAL178     -0.1231
     28  CA        60.8830  100.0390   32.9060 C.3   178  VAL178      0.1692
     29  C         59.5890   99.1470   33.0130 C.2   178  VAL178      0.2591
     30  O         58.4450   99.6120   32.9470 O.2   178  VAL178     -0.2718
     31  CB        61.6120   99.8630   31.5570 C.3   178  VAL178      0.0266
     32  CG1       60.6760   99.8530   30.3570 C.3   178  VAL178      0.0020
     33  CG2       62.6200  100.9660   31.3720 C.3   178  VAL178      0.0020
     34  N         59.7990   97.8500   33.1700 N.am  179  ARG179     -0.1980
     35  CA        58.6830   96.9080   33.4080 C.3   179  ARG179      0.1597
     36  C         57.8430   97.2870   34.6710 C.2   179  ARG179      0.2287
     37  O         56.6210   97.3730   34.5940 O.2   179  ARG179     -0.2864
     38  CB        59.1860   95.4600   33.5020 C.3   179  ARG179      0.0334
     39  CG        59.8110   94.8800   32.2350 C.3   179  ARG179      0.0492
     40  CD        60.3780   93.4730   32.4910 C.3   179  ARG179      0.2205
     41  NE        61.2370   92.9810   31.4090 N.pl3 179  ARG179     -0.0865
     42  CZ        60.8180   92.5980   30.1950 C.cat 179  ARG179      0.5346
     43  NH1       59.5230   92.6270   29.8610 N.pl3 179  ARG179      0.1354
     44  NH2       61.6990   92.1550   29.2970 N.pl3 179  ARG179      0.1354
     45  N         55.8320  100.7940   34.1120 N.3   182  THR182     -0.1218
     46  CA        54.7490  100.6680   33.1490 C.3   182  THR182      0.1862
     47  C         53.6230   99.7560   33.6240 C.2   182  THR182      0.2287
     48  O         52.5510   99.8540   33.0770 O.2   182  THR182     -0.2866
     49  CB        55.2510  100.0620   31.8650 C.3   182  THR182      0.1770
     50  OG1       55.8880   98.8490   32.2020 O.3   182  THR182     -0.2211
     51  CG2       56.2410  100.9720   31.1640 C.3   182  THR182      0.0375
     52  N         50.8420   99.9610   29.9690 N.3   236  ALA236     -0.1231
     53  CA        51.2640   99.8680   28.5840 C.3   236  ALA236      0.1694
     54  C         52.6130   99.1990   28.4430 C.2   236  ALA236      0.2592
     55  O         53.3880   99.1310   29.3580 O.2   236  ALA236     -0.2718
     56  CB        51.3230  101.2570   27.9710 C.3   236  ALA236      0.0304
     57  N         52.8950   98.7190   27.2500 N.am  237  ASP237     -0.1960
     58  CA        54.1620   98.0670   26.9600 C.3   237  ASP237      0.1840
     59  C         55.1530   99.0540   26.3550 C.2   237  ASP237      0.2622
     60  O         54.8400   99.7280   25.3540 O.2   237  ASP237     -0.2715
     61  CB        53.9190   96.9240   26.0110 C.3   237  ASP237      0.1450
     62  CG        53.0810   95.8450   26.6380 C.2   237  ASP237      0.3671
     63  OD1       53.4360   95.3870   27.7320 O.co2 237  ASP237     -0.2456
     64  OD2       52.0460   95.4760   26.0510 O.co2 237  ASP237     -0.2456
     65  N         56.3200   99.1400   26.9940 N.am  238  ILE238     -0.1963
     66  CA        57.4750   99.7950   26.4380 C.3   238  ILE238      0.1727
     67  C         58.5160   98.7610   26.0550 C.2   238  ILE238      0.2616
     68  O         58.9330   97.9720   26.8800 O.2   238  ILE238     -0.2715
     69  CB        58.1060  100.7870   27.4400 C.3   238  ILE238      0.0290
     70  CG1       57.1750  101.9830   27.6100 C.3   238  ILE238      0.0022
     71  CG2       59.4710  101.2790   26.9440 C.3   238  ILE238      0.0023
     72  CD1       57.6750  103.0490   28.5480 C.3   238  ILE238      0.0001
     73  N         58.9950   98.8610   24.8120 N.am  239  TYR239     -0.1974
     74  CA        59.9640   97.9490   24.2560 C.3   239  TYR239      0.1639
     75  C         61.3380   98.6040   24.3090 C.2   239  TYR239      0.2290
     76  O         61.4240   99.7680   24.0500 O.2   239  TYR239     -0.2864
     77  CB        59.5640   97.6090   22.8280 C.3   239  TYR239      0.0560
     78  CG        58.3210   96.7540   22.7770 C.ar  239  TYR239     -0.0198
     79  CD1       57.0330   97.3330   22.6690 C.ar  239  TYR239     -0.0009
     80  CD2       58.4140   95.3640   22.8500 C.ar  239  TYR239     -0.0009
     81  CE1       55.8990   96.5440   22.6200 C.ar  239  TYR239      0.0417
     82  CE2       57.2850   94.5720   22.7980 C.ar  239  TYR239      0.0417
     83  CZ        56.0250   95.1620   22.7110 C.ar  239  TYR239      0.1957
     84  OH        54.8900   94.3620   22.6680 O.3   239  TYR239     -0.2866
     85  N         64.6320   93.9660   22.6120 N.3   272  HIS272     -0.1241
     86  CA        63.5640   93.5250   21.7100 C.3   272  HIS272      0.1621
     87  C         63.9490   93.8400   20.2930 C.2   272  HIS272      0.2264
     88  O         63.8360   92.9880   19.4450 O.2   272  HIS272     -0.2867
     89  CB        62.2050   94.1930   21.9850 C.3   272  HIS272      0.0745
     90  CG        61.6540   93.9080   23.3340 C.ar  272  HIS272      0.0817
     91  ND1       61.6290   94.8550   24.3300 N.ar  272  HIS272     -0.2268
     92  CD2       61.0700   92.8010   23.8520 C.ar  272  HIS272      0.1154
     93  CE1       61.0700   94.3450   25.4140 C.ar  272  HIS272      0.1986
     94  NE2       60.7410   93.0910   25.1550 N.ar  272  HIS272     -0.2212
@<TRIPOS>BOND
     1    13    12    2
     2    88    87    2
     3    12    11    1
     4    10    11    1
     5    11    14    1
     6    87    86    1
     7    17    16   ar
     8    16    18   ar
     9    16    15    1
    10    14    15    1
    11    86    89    1
    12    86    85    1
    13    89    90    1
    14     4     3    2
    15     3     2    1
    16    81    79   ar
    17    81    83   ar
    18    84    83    1
    19    79    78   ar
    20    83    82   ar
    21    78    77    1
    22    78    80   ar
    23    82    80   ar
    24    77    74    1
    25    90    92   ar
    26    90    91   ar
    27    92    94   ar
    28     2     1    1
    29     2     5    1
    30    76    75    2
    31    74    75    1
    32    74    73    1
    33    91    93   ar
    34    73    67   am
    35     5     6    1
    36    94    93   ar
    37    60    59    2
    38    61    62    1
    39    61    58    1
    40    64    62   ar
    41    67    66    1
    42    67    68    2
    43    59    58    1
    44    59    65   am
    45     6     7    1
    46    66    65    1
    47    66    69    1
    48    62    63   ar
    49    71    69    1
    50    58    57    1
    51     7     9   ar
    52     7     8   ar
    53    57    54   am
    54    69    70    1
    55    70    72    1
    56    56    53    1
    57    54    53    1
    58    54    55    2
    59    53    52    1
    60    26    25    1
    61    25    24    1
    62    44    42    1
    63    43    42    1
    64    24    23    1
    65    42    41    2
    66    32    31    1
    67    23    20    1
    68    51    49    1
    69    33    31    1
    70    41    40    1
    71    31    28    1
    72    49    50    1
    73    49    46    1
    74    20    19    1
    75    20    21    1
    76    39    40    1
    77    39    38    1
    78    28    29    1
    79    28    27    1
    80    22    21    2
    81    30    29    2
    82    29    34   am
    83    48    47    2
    84    46    47    1
    85    46    45    1
    86    34    35    1
    87    35    38    1
    88    35    36    1
    89    37    36    2
