@<TRIPOS>MOLECULE
tmp/5hudC03.pdb
 83 80 0 0 0
SMALL
GASTEIGER

@<TRIPOS>ATOM
      1  N         50.3210   95.5630   49.6060 N.3    62  LYS62      -0.1231
      2  CA        49.7090   95.8630   50.9310 C.3    62  LYS62       0.1693
      3  C         48.1990   95.7520   50.8500 C.2    62  LYS62       0.2591
      4  O         47.5960   95.1990   51.7390 O.2    62  LYS62      -0.2718
      5  CB        50.0860   97.2640   51.4510 C.3    62  LYS62       0.0285
      6  CG        51.5720   97.4570   51.7690 C.3    62  LYS62       0.0035
      7  CD        51.9720   97.3970   53.2610 C.3    62  LYS62       0.0206
      8  CE        52.0060   98.7540   53.9590 C.3    62  LYS62       0.1093
      9  NZ        52.6660   99.9020   53.2460 N.3    62  LYS62      -0.1314
     10  N         47.6030   96.2440   49.7690 N.am   63  GLN63      -0.1979
     11  CA        46.1540   96.1270   49.5650 C.3    63  GLN63       0.1601
     12  C         45.7660   94.6470   49.4160 C.2    63  GLN63       0.2287
     13  O         44.8640   94.2020   50.0810 O.2    63  GLN63      -0.2864
     14  CB        45.6680   97.0010   48.3870 C.3    63  GLN63       0.0394
     15  CG        44.2900   97.6500   48.5730 C.3    63  GLN63       0.0908
     16  CD        44.0210   98.8010   47.5860 C.2    63  GLN63       0.2608
     17  OE1       44.8180   99.7440   47.4800 O.2    63  GLN63      -0.2717
     18  NE2       42.8960   98.7290   46.8630 N.am   63  GLN63      -0.0878
     19  N         46.1800   92.8320   52.7390 N.3    66  ALA66      -0.1231
     20  CA        45.0720   93.1520   53.5980 C.3    66  ALA66       0.1694
     21  C         43.8810   92.2630   53.2670 C.2    66  ALA66       0.2592
     22  O         43.1930   91.8200   54.1750 O.2    66  ALA66      -0.2718
     23  CB        44.6980   94.6150   53.4960 C.3    66  ALA66       0.0304
     24  N         43.6390   91.9630   51.9960 N.am   67  ASP67      -0.1974
     25  CA        42.5590   91.0220   51.6600 C.3    67  ASP67       0.1709
     26  C         42.8190   89.6300   52.2270 C.2    67  ASP67       0.2293
     27  O         41.8970   88.9600   52.6950 O.2    67  ASP67      -0.2864
     28  CB        42.3700   90.8970   50.1510 C.3    67  ASP67       0.1436
     29  CG        41.9450   92.1900   49.4910 C.2    67  ASP67       0.3671
     30  OD1       41.4230   93.0890   50.1730 O.co2  67  ASP67      -0.2456
     31  OD2       42.1310   92.2810   48.2580 O.co2  67  ASP67      -0.2456
     32  N         42.1120   89.5860   55.9540 N.3    70  ASN70      -0.1240
     33  CA        40.6800   89.6930   56.2420 C.3    70  ASN70       0.1653
     34  C         39.8440   88.4940   55.7580 C.2    70  ASN70       0.2266
     35  O         38.5960   88.5580   55.7070 O.2    70  ASN70      -0.2867
     36  CB        40.1210   90.9960   55.6220 C.3    70  ASN70       0.1155
     37  CG        40.4920   92.2640   56.4040 C.2    70  ASN70       0.2627
     38  OD1       40.6230   92.2750   57.6380 O.2    70  ASN70      -0.2716
     39  ND2       40.6370   93.3480   55.6730 N.am   70  ASN70      -0.0877
     40  N         39.8130   87.0350   52.7190 N.3    72  LYS72      -0.1245
     41  CA        39.3250   87.1360   51.3430 C.3    72  LYS72       0.1561
     42  C         40.3490   86.7130   50.2950 C.2    72  LYS72       0.2260
     43  O         40.0750   86.8020   49.1090 O.2    72  LYS72      -0.2867
     44  CB        38.8550   88.5700   51.1010 C.3    72  LYS72       0.0271
     45  CG        37.7390   88.9490   52.0700 C.3    72  LYS72       0.0035
     46  CD        37.0720   90.2760   51.7490 C.3    72  LYS72       0.0206
     47  CE        37.9220   91.4530   52.1850 C.3    72  LYS72       0.1093
     48  NZ        37.1390   92.7120   52.0340 N.3    72  LYS72      -0.1314
     49  N         50.1050  100.5090   63.8420 N.3   320  ASN320     -0.1225
     50  CA        48.9350  101.2700   63.3670 C.3   320  ASN320      0.1785
     51  C         47.7680  100.4130   62.9230 C.2   320  ASN320      0.2597
     52  O         46.8410  100.9010   62.2620 O.2   320  ASN320     -0.2718
     53  CB        49.3460  102.2310   62.2580 C.3   320  ASN320      0.1169
     54  CG        50.2710  103.3270   62.7700 C.2   320  ASN320      0.2627
     55  OD1       51.4180  103.4460   62.3450 O.2   320  ASN320     -0.2716
     56  ND2       49.7680  104.1240   63.7220 N.am  320  ASN320     -0.0877
     57  N         47.8090   99.1330   63.3040 N.am  321  PHE321     -0.1962
     58  CA        46.6820   98.2450   63.1540 C.3   321  PHE321      0.1771
     59  C         46.2430   98.1320   61.7010 C.2   321  PHE321      0.2619
     60  O         45.0750   98.3420   61.3630 O.2   321  PHE321     -0.2715
     61  CB        45.5880   98.6710   64.1340 C.3   321  PHE321      0.0574
     62  CG        45.9360   98.3120   65.5440 C.ar  321  PHE321     -0.0200
     63  CD1       46.5940   99.2130   66.3780 C.ar  321  PHE321     -0.0042
     64  CD2       45.7030   97.0020   66.0240 C.ar  321  PHE321     -0.0042
     65  CE1       46.9340   98.8450   67.6750 C.ar  321  PHE321     -0.0003
     66  CE2       46.0560   96.6430   67.3130 C.ar  321  PHE321     -0.0003
     67  CZ        46.6840   97.5560   68.1350 C.ar  321  PHE321     -0.0000
     68  N         47.2090   97.8080   60.8460 N.am  322  GLU322     -0.1964
     69  CA        46.9440   97.7090   59.4130 C.3   322  GLU322      0.1718
     70  C         46.8410   96.2400   58.9930 C.2   322  GLU322      0.2458
     71  O         47.8510   95.5510   59.0310 O.2   322  GLU322     -0.2730
     72  CB        48.0540   98.4420   58.6250 C.3   322  GLU322      0.0428
     73  CG        48.0720   99.9500   58.8850 C.3   322  GLU322      0.1163
     74  CD        49.3130  100.6610   58.3580 C.2   322  GLU322      0.3649
     75  OE1       49.1830  101.4220   57.3610 O.co2 322  GLU322     -0.2457
     76  OE2       50.4060  100.4730   58.9400 O.co2 322  GLU322     -0.2457
     77  N         45.6340   95.7530   58.6240 N.am  323  PRO323     -0.2727
     78  CA        45.5140   94.3660   58.1740 C.3   323  PRO323      0.1402
     79  C         46.5450   93.9370   57.1220 C.2   323  PRO323      0.2269
     80  O         46.7520   94.6460   56.1470 O.2   323  PRO323     -0.2865
     81  CB        44.0920   94.3120   57.6010 C.3   323  PRO323      0.0296
     82  CG        43.3100   95.2680   58.4720 C.3   323  PRO323      0.0237
     83  CD        44.3100   96.2940   58.9950 C.3   323  PRO323      0.0939
@<TRIPOS>BOND
     1    18    16   am
     2    17    16    2
     3    16    15    1
     4    31    29   ar
     5    14    15    1
     6    14    11    1
     7    43    42    2
     8    12    11    1
     9    12    13    2
    10    29    28    1
    11    29    30   ar
    12    11    10    1
    13     1     2    1
    14    10     3   am
    15    28    25    1
    16    42    41    1
    17     3     2    1
    18     3     4    2
    19     2     5    1
    20    44    41    1
    21    44    45    1
    22    41    40    1
    23     5     6    1
    24    25    24    1
    25    25    26    1
    26    46    45    1
    27    46    47    1
    28     6     7    1
    29    24    21   am
    30    48    47    1
    31    26    27    2
    32    19    20    1
    33     9     8    1
    34     7     8    1
    35    21    20    1
    36    21    22    2
    37    23    20    1
    38    36    33    1
    39    36    37    1
    40    39    37   am
    41    35    34    2
    42    34    33    1
    43    32    33    1
    44    80    79    2
    45    37    38    2
    46    79    78    1
    47    75    74   ar
    48    81    78    1
    49    81    82    1
    50    78    77    1
    51    74    73    1
    52    74    76   ar
    53    82    83    1
    54    77    70   am
    55    77    83    1
    56    72    73    1
    57    72    69    1
    58    70    71    2
    59    70    69    1
    60    69    68    1
    61    68    59   am
    62    60    59    2
    63    59    58    1
    64    53    54    1
    65    53    50    1
    66    52    51    2
    67    55    54    2
    68    54    56   am
    69    51    57   am
    70    51    50    1
    71    58    57    1
    72    58    61    1
    73    50    49    1
    74    61    62    1
    75    62    64   ar
    76    62    63   ar
    77    64    66   ar
    78    63    65   ar
    79    66    67   ar
    80    65    67   ar
