@<TRIPOS>MOLECULE
tmp/5hudE00.pdb
 117 108 0 0 0
SMALL
GASTEIGER

@<TRIPOS>ATOM
      1  N         27.3090   42.7910   43.9330 N.3    29  ARG29      -0.1245
      2  CA        26.2970   43.8460   43.7400 C.3    29  ARG29       0.1563
      3  C         26.1820   44.3080   42.2700 C.2    29  ARG29       0.2260
      4  O         25.1050   44.3600   41.7140 O.2    29  ARG29      -0.2867
      5  CB        26.5960   45.0510   44.6400 C.3    29  ARG29       0.0307
      6  CG        25.3890   45.9530   44.8450 C.3    29  ARG29       0.0489
      7  CD        25.7870   47.3810   45.1670 C.3    29  ARG29       0.2205
      8  NE        24.5950   48.2260   45.2860 N.pl3  29  ARG29      -0.0865
      9  CZ        23.9370   48.7820   44.2640 C.cat  29  ARG29       0.5346
     10  NH1       22.8490   49.5030   44.5150 N.pl3  29  ARG29       0.1354
     11  NH2       24.3280   48.6000   42.9900 N.pl3  29  ARG29       0.1354
     12  N         23.1180   44.1640   39.6520 N.3    33  SER33      -0.1217
     13  CA        22.5370   45.3740   39.1160 C.3    33  SER33       0.1889
     14  C         22.4570   45.2620   37.6160 C.2    33  SER33       0.2288
     15  O         21.3940   45.4470   37.0510 O.2    33  SER33      -0.2866
     16  CB        23.3380   46.6120   39.5110 C.3    33  SER33       0.2089
     17  OG        22.7520   47.7800   38.9600 O.3    33  SER33      -0.2183
     18  N         19.7630   42.9030   36.5350 N.3    36  ILE36      -0.1231
     19  CA        18.4460   43.5650   36.6200 C.3    36  ILE36       0.1692
     20  C         18.2260   44.4770   35.4130 C.2    36  ILE36       0.2592
     21  O         17.1180   44.5470   34.8790 O.2    36  ILE36      -0.2718
     22  CB        18.2900   44.4100   37.8980 C.3    36  ILE36       0.0266
     23  CG1       18.2640   43.5130   39.1340 C.3    36  ILE36       0.0019
     24  CG2       16.9930   45.2170   37.8670 C.3    36  ILE36       0.0020
     25  CD1       18.3950   44.2580   40.4450 C.3    36  ILE36       0.0001
     26  N         19.2840   45.1860   35.0170 N.am   37  GLY37      -0.1957
     27  CA        19.2360   46.1250   33.9050 C.3    37  GLY37       0.1869
     28  C         18.9150   45.4660   32.5880 C.2    37  GLY37       0.2309
     29  O         18.0720   45.9580   31.8330 O.2    37  GLY37      -0.2863
     30  N         15.1900   44.1000   32.6240 N.3    40  ARG40      -0.1245
     31  CA        14.2100   45.1640   32.4050 C.3    40  ARG40       0.1563
     32  C         14.2500   45.7210   30.9760 C.2    40  ARG40       0.2260
     33  O         13.1900   46.0140   30.4020 O.2    40  ARG40      -0.2867
     34  CB        14.3750   46.3070   33.4120 C.3    40  ARG40       0.0307
     35  CG        13.3590   47.4430   33.2160 C.3    40  ARG40       0.0489
     36  CD        13.4290   48.5360   34.2740 C.3    40  ARG40       0.2205
     37  NE        14.8110   48.9510   34.5420 N.pl3  40  ARG40      -0.0865
     38  CZ        15.4940   48.7170   35.6610 C.cat  40  ARG40       0.5346
     39  NH1       16.7520   49.1400   35.7490 N.pl3  40  ARG40       0.1354
     40  NH2       14.9480   48.0850   36.6930 N.pl3  40  ARG40       0.1354
     41  N         16.4010   51.8500   31.1970 N.3    47  ARG47      -0.1231
     42  CA        17.7070   51.5600   31.7980 C.3    47  ARG47       0.1694
     43  C         17.7050   51.8990   33.3050 C.2    47  ARG47       0.2592
     44  O         18.1270   51.0820   34.1190 O.2    47  ARG47      -0.2718
     45  CB        18.8070   52.3220   31.0540 C.3    47  ARG47       0.0321
     46  CG        20.2100   51.9840   31.4940 C.3    47  ARG47       0.0489
     47  CD        21.2510   52.7060   30.6750 C.3    47  ARG47       0.2205
     48  NE        21.2260   52.2500   29.2900 N.pl3  47  ARG47      -0.0865
     49  CZ        21.8090   51.1400   28.8260 C.cat  47  ARG47       0.5346
     50  NH1       22.4800   50.3120   29.6230 N.pl3  47  ARG47       0.1354
     51  NH2       21.7150   50.8470   27.5340 N.pl3  47  ARG47       0.1354
     52  N         17.1880   53.0740   33.6620 N.am   48  LEU48      -0.1966
     53  CA        17.2350   53.5850   35.0340 C.3    48  LEU48       0.1728
     54  C         15.8350   53.7070   35.6390 C.2    48  LEU48       0.2616
     55  O         14.8530   53.9500   34.9270 O.2    48  LEU48      -0.2715
     56  CB        17.8840   54.9720   35.0640 C.3    48  LEU48       0.0311
     57  CG        19.1460   55.2060   34.2320 C.3    48  LEU48       0.0022
     58  CD1       19.3480   56.6930   33.9990 C.3    48  LEU48       0.0001
     59  CD2       20.3640   54.6100   34.8920 C.3    48  LEU48       0.0001
     60  N         15.7650   53.5530   36.9580 N.am   49  VAL49      -0.1977
     61  CA        14.5520   53.7920   37.7180 C.3    49  VAL49       0.1596
     62  C         14.9470   54.7880   38.7980 C.2    49  VAL49       0.2287
     63  O         15.7600   54.4570   39.6580 O.2    49  VAL49      -0.2864
     64  CB        13.9920   52.4870   38.3260 C.3    49  VAL49       0.0276
     65  CG1       12.6810   52.7340   39.0790 C.3    49  VAL49       0.0022
     66  CG2       13.7880   51.4570   37.2190 C.3    49  VAL49       0.0022
     67  N         13.9600   54.5210   42.7060 N.3    52  ARG52      -0.1231
     68  CA        14.7400   53.4590   43.2880 C.3    52  ARG52       0.1694
     69  C         16.1410   53.9570   43.6030 C.2    52  ARG52       0.2591
     70  O         16.6360   53.6980   44.6920 O.2    52  ARG52      -0.2718
     71  CB        14.7650   52.2360   42.3560 C.3    52  ARG52       0.0321
     72  CG        15.6260   51.0620   42.8120 C.3    52  ARG52       0.0489
     73  CD        15.2670   50.5030   44.1820 C.3    52  ARG52       0.2205
     74  NE        16.2370   49.4680   44.5600 N.pl3  52  ARG52      -0.0865
     75  CZ        16.3320   48.8720   45.7540 C.cat  52  ARG52       0.5346
     76  NH1       17.2840   47.9620   45.9500 N.pl3  52  ARG52       0.1354
     77  NH2       15.5070   49.1740   46.7520 N.pl3  52  ARG52       0.1354
     78  N         16.7640   54.6800   42.6700 N.am   53  GLU53      -0.1979
     79  CA        18.1070   55.2610   42.9000 C.3    53  GLU53       0.1602
     80  C         18.1210   56.2780   44.0400 C.2    53  GLU53       0.2287
     81  O         18.9700   56.2130   44.9300 O.2    53  GLU53      -0.2864
     82  CB        18.6580   55.9110   41.6370 C.3    53  GLU53       0.0415
     83  CG        18.8850   54.9070   40.5160 C.3    53  GLU53       0.1163
     84  CD        19.9240   55.3400   39.5080 C.2    53  GLU53       0.3649
     85  OE1       20.4450   56.4650   39.6110 O.co2  53  GLU53      -0.2457
     86  OE2       20.2370   54.5350   38.6090 O.co2  53  GLU53      -0.2457
     87  N         17.8870   54.4580   47.6160 N.3    56  ILE56      -0.1245
     88  CA        19.2010   53.9290   48.0250 C.3    56  ILE56       0.1561
     89  C         20.1310   55.0500   48.5000 C.2    56  ILE56       0.2260
     90  O         20.6540   54.9790   49.6170 O.2    56  ILE56      -0.2867
     91  CB        19.8990   53.1690   46.8850 C.3    56  ILE56       0.0252
     92  CG1       19.1350   51.8710   46.5580 C.3    56  ILE56       0.0019
     93  CG2       21.3480   52.8480   47.2440 C.3    56  ILE56       0.0019
     94  CD1       19.4040   51.3380   45.1570 C.3    56  ILE56       0.0001
     95  N         25.9240   52.9010   41.8860 N.3    76  LEU76      -0.1245
     96  CA        24.9480   53.0790   40.8030 C.3    76  LEU76       0.1561
     97  C         25.6400   53.1800   39.4450 C.2    76  LEU76       0.2260
     98  O         25.2620   52.4950   38.4890 O.2    76  LEU76      -0.2867
     99  CB        24.0690   54.2830   41.0580 C.3    76  LEU76       0.0270
    100  CG        23.1890   54.1060   42.2900 C.3    76  LEU76       0.0019
    101  CD1       22.4310   55.3930   42.6260 C.3    76  LEU76       0.0001
    102  CD2       22.2350   52.9390   42.1210 C.3    76  LEU76       0.0001
    103  N         26.7230   49.7920   38.6380 N.3    79  GLY79      -0.1210
    104  CA        25.5960   48.9480   38.2770 C.3    79  GLY79       0.1956
    105  C         25.0780   49.2180   36.8730 C.2    79  GLY79       0.2611
    106  O         25.1710   48.3660   35.9880 O.2    79  GLY79      -0.2717
    107  N         24.5740   50.4310   36.6660 N.am   80  ARG80      -0.1979
    108  CA        23.8220   50.7600   35.4520 C.3    80  ARG80       0.1597
    109  C         24.6240   51.6050   34.4670 C.2    80  ARG80       0.2287
    110  O         24.1060   51.9790   33.4300 O.2    80  ARG80      -0.2864
    111  CB        22.4520   51.4000   35.7870 C.3    80  ARG80       0.0334
    112  CG        22.4060   52.4640   36.8950 C.3    80  ARG80       0.0492
    113  CD        23.1920   53.7320   36.5650 C.3    80  ARG80       0.2205
    114  NE        22.7050   54.8780   37.3370 N.pl3  80  ARG80      -0.0865
    115  CZ        23.3550   56.0290   37.5410 C.cat  80  ARG80       0.5346
    116  NH1       24.5860   56.2310   37.0620 N.pl3  80  ARG80       0.1354
    117  NH2       22.7710   56.9920   38.2620 N.pl3  80  ARG80       0.1354
@<TRIPOS>BOND
     1    51    49    1
     2    49    48    2
     3    49    50    1
     4    48    47    1
     5    33    32    2
     6    47    46    1
     7    32    31    1
     8    45    46    1
     9    45    42    1
    10    41    42    1
    11    42    43    1
    12    29    28    2
    13    31    30    1
    14    31    34    1
    15    28    27    1
    16    35    34    1
    17    35    36    1
    18    43    52   am
    19    43    44    2
    20   110   109    2
    21    52    53    1
    22    27    26    1
    23    58    57    1
    24    57    59    1
    25    57    56    1
    26    36    37    1
    27   109   108    1
    28    37    38    2
    29    21    20    2
    30    55    54    2
    31    26    20   am
    32    53    56    1
    33    53    54    1
    34    20    19    1
    35   108   111    1
    36   108   107    1
    37    54    60   am
    38    38    39    1
    39    38    40    1
    40   111   112    1
    41   106   105    2
    42    18    19    1
    43   113   112    1
    44   113   114    1
    45    19    22    1
    46   107   105   am
    47   105   104    1
    48    60    61    1
    49    15    14    2
    50   116   115    1
    51    66    64    1
    52   114   115    2
    53   115   117    1
    54    14    13    1
    55    61    64    1
    56    61    62    1
    57    24    22    1
    58    22    23    1
    59   104   103    1
    60    64    65    1
    61    98    97    2
    62    86    84   ar
    63    62    63    2
    64    17    16    1
    65    13    16    1
    66    13    12    1
    67    23    25    1
    68    97    96    1
    69    84    85   ar
    70    84    83    1
    71    83    82    1
    72    96    99    1
    73    96    95    1
    74    99   100    1
    75    82    79    1
    76     4     3    2
    77   102   100    1
    78     3     2    1
    79   100   101    1
    80    71    72    1
    81    71    68    1
    82    78    79    1
    83    78    69   am
    84    67    68    1
    85    72    73    1
    86    79    80    1
    87    11     9    1
    88    68    69    1
    89    69    70    2
    90     2     1    1
    91     2     5    1
    92    80    81    2
    93    73    74    1
    94     9    10    1
    95     9     8    2
    96    74    75    2
    97     5     6    1
    98     6     7    1
    99    94    92    1
   100     7     8    1
   101    75    76    1
   102    75    77    1
   103    92    91    1
   104    91    93    1
   105    91    88    1
   106    87    88    1
   107    88    89    1
   108    89    90    2
