@<TRIPOS>MOLECULE
tmp/5hudD07.pdb
 74 71 0 0 0
SMALL
GASTEIGER

@<TRIPOS>ATOM
      1  N         68.4810   86.6190   29.9900 N.3    52  PRO52      -0.2116
      2  CA        68.4950   87.6270   28.9460 C.3    52  PRO52       0.1372
      3  C         67.7620   88.9090   29.4170 C.2    52  PRO52       0.2244
      4  O         67.0960   88.8910   30.4800 O.2    52  PRO52      -0.2868
      5  CB        67.7270   86.9460   27.8140 C.3    52  PRO52       0.0268
      6  CG        66.6970   86.1520   28.5210 C.3    52  PRO52       0.0207
      7  CD        67.3280   85.7200   29.8350 C.3    52  PRO52       0.0892
      8  N         62.6020   88.2230   26.9510 N.3    55  VAL55      -0.1231
      9  CA        62.3410   86.8540   26.5110 C.3    55  VAL55       0.1692
     10  C         61.7570   86.8330   25.0980 C.2    55  VAL55       0.2592
     11  O         61.0840   87.7870   24.6940 O.2    55  VAL55      -0.2718
     12  CB        61.4680   86.0560   27.5150 C.3    55  VAL55       0.0266
     13  CG1       62.1170   86.0400   28.8930 C.3    55  VAL55       0.0020
     14  CG2       60.0700   86.6150   27.5920 C.3    55  VAL55       0.0020
     15  N         61.9970   85.7200   24.3830 N.am   56  ALA56      -0.1966
     16  CA        61.6040   85.5300   23.0120 C.3    56  ALA56       0.1713
     17  C         60.1290   85.7890   22.7890 C.2    56  ALA56       0.2458
     18  O         59.7780   86.4490   21.8200 O.2    56  ALA56      -0.2730
     19  CB        61.9540   84.1230   22.5200 C.3    56  ALA56       0.0333
     20  N         59.2450   85.2550   23.6550 N.am   57  PRO57      -0.2727
     21  CA        57.8210   85.5250   23.3650 C.3    57  PRO57       0.1402
     22  C         57.4690   87.0560   23.2940 C.2    57  PRO57       0.2269
     23  O         56.6590   87.4430   22.4600 O.2    57  PRO57      -0.2865
     24  CB        57.0950   84.7850   24.4670 C.3    57  PRO57       0.0296
     25  CG        58.0060   83.6730   24.7690 C.3    57  PRO57       0.0237
     26  CD        59.3810   84.2630   24.7240 C.3    57  PRO57       0.0939
     27  N         70.4320   83.7300   22.0020 N.3   255  ARG255     -0.1231
     28  CA        69.6970   82.6360   22.6450 C.3   255  ARG255      0.1694
     29  C         68.8220   81.8970   21.6230 C.2   255  ARG255      0.2592
     30  O         68.2670   82.4950   20.6890 O.2   255  ARG255     -0.2718
     31  CB        68.8080   83.1660   23.7780 C.3   255  ARG255      0.0321
     32  CG        69.5400   83.8420   24.9420 C.3   255  ARG255      0.0489
     33  CD        70.3040   82.8840   25.8200 C.3   255  ARG255      0.2205
     34  NE        70.9320   83.6080   26.9070 N.pl3 255  ARG255     -0.0865
     35  CZ        72.0610   84.3010   26.8330 C.cat 255  ARG255      0.5346
     36  NH1       72.7890   84.3330   25.7190 N.pl3 255  ARG255      0.1354
     37  NH2       72.5010   84.9660   27.9120 N.pl3 255  ARG255      0.1354
     38  N         68.7040   80.5880   21.8200 N.am  256  LEU256     -0.1966
     39  CA        67.7650   79.7600   21.0930 C.3   256  LEU256      0.1728
     40  C         66.4470   79.8290   21.7690 C.2   256  LEU256      0.2616
     41  O         66.3790   79.8870   22.9690 O.2   256  LEU256     -0.2715
     42  CB        68.2320   78.3380   21.0830 C.3   256  LEU256      0.0311
     43  CG        69.1800   78.1100   19.9060 C.3   256  LEU256      0.0022
     44  CD1       70.2570   77.0910   20.2870 C.3   256  LEU256      0.0001
     45  CD2       68.3910   77.6670   18.6670 C.3   256  LEU256      0.0001
     46  N         65.3860   79.8320   20.9730 N.am  257  ALA257     -0.1963
     47  CA        64.0090   79.8850   21.4780 C.3   257  ALA257      0.1728
     48  C         63.1890   78.9750   20.6350 C.2   257  ALA257      0.2616
     49  O         63.2770   79.0260   19.4080 O.2   257  ALA257     -0.2715
     50  CB        63.4490   81.2940   21.3880 C.3   257  ALA257      0.0334
     51  N         62.3860   78.1530   21.2810 N.am  258  THR258     -0.1951
     52  CA        61.4410   77.2890   20.5840 C.3   258  THR258      0.1897
     53  C         59.9830   77.7030   20.9140 C.2   258  THR258      0.2313
     54  O         59.6340   77.8830   22.0770 O.2   258  THR258     -0.2863
     55  CB        61.7500   75.8220   20.9140 C.3   258  THR258      0.1794
     56  OG1       63.1400   75.5770   20.6520 O.3   258  THR258     -0.2208
     57  CG2       60.8810   74.8750   20.0720 C.3   258  THR258      0.0378
     58  N         62.3580   76.4140   15.8510 N.3   264  GLU264     -0.1245
     59  CA        63.5510   76.8280   16.5970 C.3   264  GLU264      0.1567
     60  C         64.2550   78.0510   15.9480 C.2   264  GLU264      0.2260
     61  O         64.7020   77.9610   14.8130 O.2   264  GLU264     -0.2867
     62  CB        64.4820   75.6150   16.7570 C.3   264  GLU264      0.0388
     63  CG        65.6220   75.8220   17.7420 C.3   264  GLU264      0.1160
     64  CD        66.0720   74.5450   18.4430 C.2   264  GLU264      0.3649
     65  OE1       66.0410   73.4550   17.8270 O.co2 264  GLU264     -0.2457
     66  OE2       66.4840   74.6320   19.6240 O.co2 264  GLU264     -0.2457
     67  N         68.9610   88.4870   22.5150 N.3   269  LEU269     -0.1245
     68  CA        68.0520   88.7770   23.5900 C.3   269  LEU269      0.1561
     69  C         68.6160   89.8250   24.5970 C.2   269  LEU269      0.2260
     70  O         68.1230   89.9220   25.7590 O.2   269  LEU269     -0.2867
     71  CB        67.5950   87.4560   24.2640 C.3   269  LEU269      0.0270
     72  CG        66.6090   86.4810   23.5650 C.3   269  LEU269      0.0019
     73  CD1       66.1100   85.3560   24.4930 C.3   269  LEU269      0.0001
     74  CD2       65.4150   87.2150   22.9700 C.3   269  LEU269      0.0001
@<TRIPOS>BOND
     1    61    60    2
     2    58    59    1
     3    60    59    1
     4    59    62    1
     5    62    63    1
     6    63    64    1
     7    65    64   ar
     8    64    66   ar
     9    45    43    1
    10    49    48    2
    11    43    44    1
    12    43    42    1
    13    57    55    1
    14    52    55    1
    15    52    53    1
    16    52    51    1
    17    48    51   am
    18    48    47    1
    19    56    55    1
    20    30    29    2
    21    53    54    2
    22    46    47    1
    23    46    40   am
    24    42    39    1
    25    39    40    1
    26    39    38    1
    27    50    47    1
    28    29    38   am
    29    29    28    1
    30    40    41    2
    31    18    17    2
    32    27    28    1
    33    23    22    2
    34    67    68    1
    35    19    16    1
    36    28    31    1
    37    17    16    1
    38    17    20   am
    39    74    72    1
    40    16    15    1
    41    22    21    1
    42    21    20    1
    43    21    24    1
    44    72    71    1
    45    72    73    1
    46    68    71    1
    47    68    69    1
    48    20    26    1
    49    31    32    1
    50    15    10   am
    51    24    25    1
    52    69    70    2
    53    11    10    2
    54    26    25    1
    55    32    33    1
    56    10     9    1
    57    36    35    1
    58    33    34    1
    59     9     8    1
    60     9    12    1
    61    35    34    2
    62    35    37    1
    63    12    14    1
    64    12    13    1
    65     5     6    1
    66     5     2    1
    67     6     7    1
    68     2     3    1
    69     2     1    1
    70     3     4    2
    71     7     1    1
