@<TRIPOS>MOLECULE
tmp/5hudB00.pdb
 100 95 0 0 0
SMALL
GASTEIGER

@<TRIPOS>ATOM
      1  N         18.3980   89.7830   15.0270 N.3    45  GLU45      -0.1245
      2  CA        18.3450   88.7870   16.0970 C.3    45  GLU45       0.1567
      3  C         18.3780   87.3850   15.5280 C.2    45  GLU45       0.2260
      4  O         19.1330   86.5270   16.0010 O.2    45  GLU45      -0.2867
      5  CB        17.0580   88.9050   16.9310 C.3    45  GLU45       0.0388
      6  CG        16.8410   90.1990   17.7120 C.3    45  GLU45       0.1160
      7  CD        15.5810   90.1160   18.5530 C.2    45  GLU45       0.3649
      8  OE1       14.4610   90.3190   18.0480 O.co2  45  GLU45      -0.2457
      9  OE2       15.6900   89.7900   19.7420 O.co2  45  GLU45      -0.2457
     10  N         21.7350   86.5490   14.3510 N.3    48  GLU48      -0.1245
     11  CA        22.5670   86.1790   15.5000 C.3    48  GLU48       0.1567
     12  C         22.2570   84.7560   15.9690 C.2    48  GLU48       0.2260
     13  O         23.1770   84.0020   16.2510 O.2    48  GLU48      -0.2867
     14  CB        22.4300   87.1930   16.6470 C.3    48  GLU48       0.0388
     15  CG        23.3660   86.9890   17.8500 C.3    48  GLU48       0.1160
     16  CD        24.8640   87.1240   17.5490 C.2    48  GLU48       0.3649
     17  OE1       25.2350   87.6340   16.4690 O.co2  48  GLU48      -0.2457
     18  OE2       25.6930   86.7230   18.4100 O.co2  48  GLU48      -0.2457
     19  N          6.8180   88.6370   24.9750 N.3   162  MET162     -0.1245
     20  CA         8.1910   88.7830   24.4950 C.3   162  MET162      0.1570
     21  C          8.8180   90.0830   25.0260 C.2   162  MET162      0.2261
     22  O         10.0080   90.1130   25.3420 O.2   162  MET162     -0.2867
     23  CB         8.2970   88.6780   22.9720 C.3   162  MET162      0.0387
     24  CG         9.7470   88.5470   22.4890 C.3   162  MET162      0.0595
     25  SD        10.4910   87.0030   23.0110 S.3   162  MET162     -0.1393
     26  CE        12.2330   87.3550   22.7980 C.3   162  MET162      0.0692
     27  N          9.8540   89.0370   28.5120 N.3   165  VAL165     -0.1231
     28  CA        11.0110   88.1310   28.4360 C.3   165  VAL165      0.1692
     29  C         12.2880   88.9490   28.2550 C.2   165  VAL165      0.2591
     30  O         13.2720   88.6960   28.9240 O.2   165  VAL165     -0.2718
     31  CB        10.8760   87.0820   27.2880 C.3   165  VAL165      0.0266
     32  CG1       12.2020   86.3400   27.0430 C.3   165  VAL165      0.0020
     33  CG2        9.7680   86.0780   27.5850 C.3   165  VAL165      0.0020
     34  N         12.2570   89.9170   27.3460 N.am  166  ARG166     -0.1980
     35  CA        13.3920   90.8180   27.1490 C.3   166  ARG166      0.1597
     36  C         13.6720   91.6420   28.4150 C.2   166  ARG166      0.2287
     37  O         14.8180   91.7130   28.8600 O.2   166  ARG166     -0.2864
     38  CB        13.1400   91.7680   25.9850 C.3   166  ARG166      0.0334
     39  CG        12.9910   91.0940   24.6360 C.3   166  ARG166      0.0492
     40  CD        12.4860   92.0680   23.5900 C.3   166  ARG166      0.2205
     41  NE        12.1700   91.4120   22.3330 N.pl3 166  ARG166     -0.0865
     42  CZ        13.0570   90.9730   21.4390 C.cat 166  ARG166      0.5346
     43  NH1       14.3870   91.0940   21.6490 N.pl3 166  ARG166      0.1354
     44  NH2       12.6140   90.4140   20.3000 N.pl3 166  ARG166      0.1354
     45  N         15.2900   89.3810   31.1940 N.3   169  THR169     -0.1203
     46  CA        16.6350   88.9150   30.9120 C.3   169  THR169      0.1994
     47  C         17.6940   90.0230   30.8740 C.2   169  THR169      0.2618
     48  O         18.8660   89.7100   30.9150 O.2   169  THR169     -0.2717
     49  CB        16.6990   88.1430   29.5910 C.3   169  THR169      0.1784
     50  OG1       16.0990   88.9310   28.5630 O.3   169  THR169     -0.2211
     51  CG2       15.9870   86.8030   29.7190 C.3   169  THR169      0.0376
     52  N         17.2860   91.2940   30.7730 N.am  170  SER170     -0.1951
     53  CA        18.2110   92.4150   30.7960 C.3   170  SER170      0.1924
     54  C         18.2950   93.1240   32.1420 C.2   170  SER170      0.2314
     55  O         19.1080   94.0190   32.2910 O.2   170  SER170     -0.2863
     56  CB        17.8230   93.4330   29.7190 C.3   170  SER170      0.2116
     57  OG        16.7010   94.2090   30.1130 O.3   170  SER170     -0.2180
     58  N         21.3780   87.4370   29.7740 N.3   223  ALA223     -0.1231
     59  CA        21.4000   86.3220   28.8460 C.3   223  ALA223      0.1694
     60  C         20.3300   86.5220   27.8100 C.2   223  ALA223      0.2592
     61  O         19.3500   87.2030   28.0650 O.2   223  ALA223     -0.2718
     62  CB        21.1790   85.0150   29.5840 C.3   223  ALA223      0.0304
     63  N         20.5390   85.9380   26.6380 N.am  224  ASP224     -0.1960
     64  CA        19.5500   85.9590   25.5610 C.3   224  ASP224      0.1840
     65  C         18.6320   84.7450   25.5710 C.2   224  ASP224      0.2622
     66  O         19.1120   83.5970   25.5350 O.2   224  ASP224     -0.2715
     67  CB        20.2600   86.0780   24.2140 C.3   224  ASP224      0.1450
     68  CG        21.0110   87.3970   24.0750 C.2   224  ASP224      0.3671
     69  OD1       20.5910   88.4020   24.6950 O.co2 224  ASP224     -0.2456
     70  OD2       22.0260   87.4300   23.3660 O.co2 224  ASP224     -0.2456
     71  N         17.3190   85.0050   25.6250 N.am  225  ILE225     -0.1963
     72  CA        16.3110   83.9690   25.4010 C.3   225  ILE225      0.1727
     73  C         15.6220   84.2510   24.0770 C.2   225  ILE225      0.2616
     74  O         15.0710   85.3240   23.8770 O.2   225  ILE225     -0.2715
     75  CB        15.2830   83.9030   26.5460 C.3   225  ILE225      0.0290
     76  CG1       15.9660   83.3980   27.8220 C.3   225  ILE225      0.0022
     77  CG2       14.1350   82.9700   26.1850 C.3   225  ILE225      0.0023
     78  CD1       15.1250   83.4880   29.0750 C.3   225  ILE225      0.0001
     79  N         15.6700   83.2730   23.1790 N.am  226  TYR226     -0.1974
     80  CA        15.0030   83.3400   21.8870 C.3   226  TYR226      0.1639
     81  C         13.6280   82.7040   22.0130 C.2   226  TYR226      0.2290
     82  O         13.4740   81.7340   22.7530 O.2   226  TYR226     -0.2864
     83  CB        15.8460   82.5920   20.8560 C.3   226  TYR226      0.0560
     84  CG        17.2050   83.2360   20.6500 C.ar  226  TYR226     -0.0198
     85  CD1       18.3350   82.8120   21.3760 C.ar  226  TYR226     -0.0009
     86  CD2       17.3550   84.2910   19.7590 C.ar  226  TYR226     -0.0009
     87  CE1       19.5860   83.4260   21.1940 C.ar  226  TYR226      0.0417
     88  CE2       18.5790   84.9190   19.5780 C.ar  226  TYR226      0.0417
     89  CZ        19.6920   84.4940   20.2910 C.ar  226  TYR226      0.1957
     90  OH        20.8810   85.1380   20.0740 O.3   226  TYR226     -0.2866
     91  N         11.8930   83.8610   16.6810 N.3   259  HIS259     -0.1241
     92  CA        13.2380   83.5680   16.2000 C.3   259  HIS259      0.1621
     93  C         13.3020   82.2030   15.5080 C.2   259  HIS259      0.2264
     94  O         13.8920   82.0920   14.4500 O.2   259  HIS259     -0.2867
     95  CB        14.2700   83.5860   17.3200 C.3   259  HIS259      0.0745
     96  CG        14.3820   84.8920   18.0290 C.ar  259  HIS259      0.0817
     97  ND1       13.8760   85.0760   19.2890 N.ar  259  HIS259     -0.2268
     98  CD2       14.9920   86.0570   17.6930 C.ar  259  HIS259      0.1154
     99  CE1       14.1450   86.3020   19.7030 C.ar  259  HIS259      0.1986
    100  NE2       14.8200   86.9190   18.7490 N.ar  259  HIS259     -0.2212
@<TRIPOS>BOND
     1    10    11    1
     2    94    93    2
     3     1     2    1
     4    11    12    1
     5    11    14    1
     6    93    92    1
     7     3     4    2
     8     3     2    1
     9    12    13    2
    10     2     5    1
    11    92    91    1
    12    92    95    1
    13    17    16   ar
    14    14    15    1
    15     5     6    1
    16    95    96    1
    17    16    15    1
    18    16    18   ar
    19    98    96   ar
    20    98   100   ar
    21     6     7    1
    22    96    97   ar
    23     8     7   ar
    24     7     9   ar
    25   100    99   ar
    26    97    99   ar
    27    88    86   ar
    28    88    89   ar
    29    86    84   ar
    30    90    89    1
    31    89    87   ar
    32    44    42    1
    33    84    83    1
    34    84    85   ar
    35    83    80    1
    36    87    85   ar
    37    42    43    1
    38    42    41    2
    39    80    81    1
    40    80    79    1
    41    81    82    2
    42    41    40    1
    43    24    23    1
    44    24    25    1
    45    26    25    1
    46    23    20    1
    47    79    73   am
    48    70    68   ar
    49    40    39    1
    50    74    73    2
    51    68    67    1
    52    68    69   ar
    53    73    72    1
    54    67    64    1
    55    20    19    1
    56    20    21    1
    57    39    38    1
    58    21    22    2
    59    72    71    1
    60    72    75    1
    61    66    65    2
    62    64    65    1
    63    64    63    1
    64    65    71   am
    65    38    35    1
    66    77    75    1
    67    75    76    1
    68    63    60   am
    69    32    31    1
    70    35    34    1
    71    35    36    1
    72    31    33    1
    73    31    28    1
    74    34    29   am
    75    60    61    2
    76    60    59    1
    77    76    78    1
    78    29    28    1
    79    29    30    2
    80    36    37    2
    81    28    27    1
    82    50    49    1
    83    59    62    1
    84    59    58    1
    85    49    51    1
    86    49    46    1
    87    56    57    1
    88    56    53    1
    89    52    53    1
    90    52    47   am
    91    53    54    1
    92    47    46    1
    93    47    48    2
    94    46    45    1
    95    54    55    2
