@<TRIPOS>MOLECULE
tmp/5hudD06.pdb
 103 94 0 0 0
SMALL
GASTEIGER

@<TRIPOS>ATOM
      1  N         55.9730  108.1700   27.1960 N.3   102  LEU102     -0.1245
      2  CA        54.5740  107.7720   27.3930 C.3   102  LEU102      0.1561
      3  C         53.6640  108.9750   27.1350 C.2   102  LEU102      0.2260
      4  O         52.6410  108.8670   26.4690 O.2   102  LEU102     -0.2867
      5  CB        54.3540  107.2000   28.8080 C.3   102  LEU102      0.0270
      6  CG        54.8920  105.7790   29.0720 C.3   102  LEU102      0.0019
      7  CD1       54.9490  105.4960   30.5500 C.3   102  LEU102      0.0001
      8  CD2       54.0660  104.6920   28.3960 C.3   102  LEU102      0.0001
      9  N         53.5060  109.5860   23.4170 N.3   105  ALA105     -0.1231
     10  CA        52.6820  108.5510   22.8100 C.3   105  ALA105      0.1694
     11  C         51.1490  108.7390   22.9020 C.2   105  ALA105      0.2591
     12  O         50.4160  108.1960   22.0780 O.2   105  ALA105     -0.2718
     13  CB        53.0560  107.2020   23.3920 C.3   105  ALA105      0.0304
     14  N         50.6600  109.4400   23.9200 N.am  106  VAL106     -0.1980
     15  CA        49.1930  109.6370   24.0730 C.3   106  VAL106      0.1595
     16  C         48.7280  110.6220   23.0150 C.2   106  VAL106      0.2287
     17  O         47.7350  110.3610   22.3150 O.2   106  VAL106     -0.2864
     18  CB        48.7250  109.9970   25.5180 C.3   106  VAL106      0.0276
     19  CG1       49.5640  111.0690   26.1360 C.3   106  VAL106      0.0022
     20  CG2       47.2700  110.4520   25.5590 C.3   106  VAL106      0.0022
     21  N         48.9980  108.9210   19.6500 N.3   109  THR109     -0.1218
     22  CA        47.8970  107.9780   19.4680 C.3   109  THR109      0.1862
     23  C         46.6520  108.7310   19.0250 C.2   109  THR109      0.2287
     24  O         45.9860  108.2970   18.0800 O.2   109  THR109     -0.2866
     25  CB        47.5680  107.1850   20.7390 C.3   109  THR109      0.1770
     26  OG1       48.6860  106.3530   21.0650 O.3   109  THR109     -0.2211
     27  CG2       46.3330  106.3050   20.5470 C.3   109  THR109      0.0375
     28  N         47.0250  102.6620   17.3280 N.3   115  PRO115     -0.2102
     29  CA        47.9930  102.3800   18.4100 C.3   115  PRO115      0.1504
     30  C         49.3830  102.9290   18.1100 C.2   115  PRO115      0.2575
     31  O         49.7520  103.1120   16.9510 O.2   115  PRO115     -0.2718
     32  CB        48.0400  100.8530   18.4530 C.3   115  PRO115      0.0282
     33  CG        46.7150  100.4150   17.8950 C.3   115  PRO115      0.0208
     34  CD        46.3740  101.4360   16.8430 C.3   115  PRO115      0.0893
     35  N         50.1200  103.2450   19.1540 N.am  116  VAL116     -0.1980
     36  CA        51.5020  103.6440   19.0010 C.3   116  VAL116      0.1595
     37  C         52.3040  102.6280   19.7800 C.2   116  VAL116      0.2287
     38  O         52.0060  102.3750   20.9390 O.2   116  VAL116     -0.2864
     39  CB        51.7710  105.0470   19.5590 C.3   116  VAL116      0.0276
     40  CG1       53.2680  105.3080   19.7130 C.3   116  VAL116      0.0022
     41  CG2       51.1190  106.0950   18.6710 C.3   116  VAL116      0.0022
     42  N         55.7070  101.7340   21.5100 N.3   118  LYS118     -0.1245
     43  CA        56.5640  102.5580   22.3530 C.3   118  LYS118      0.1561
     44  C         57.8480  101.7900   22.5240 C.2   118  LYS118      0.2260
     45  O         57.8930  100.7400   23.1850 O.2   118  LYS118     -0.2867
     46  CB        55.8810  102.7910   23.6970 C.3   118  LYS118      0.0271
     47  CG        54.5820  103.5920   23.5760 C.3   118  LYS118      0.0035
     48  CD        53.6030  103.3380   24.7090 C.3   118  LYS118      0.0206
     49  CE        52.3860  102.5560   24.2290 C.3   118  LYS118      0.1093
     50  NZ        51.3300  103.3770   23.5150 N.3   118  LYS118     -0.1314
     51  N         52.3090  104.3630   33.5000 N.3   187  ALA187     -0.1245
     52  CA        51.7410  104.2600   32.2050 C.3   187  ALA187      0.1562
     53  C         50.2150  104.3980   32.2240 C.2   187  ALA187      0.2260
     54  O         49.5720  104.0650   31.2220 O.2   187  ALA187     -0.2867
     55  CB        52.1640  102.9470   31.5890 C.3   187  ALA187      0.0290
     56  N         46.8740  106.0730   31.5110 N.3   189  LEU189     -0.1245
     57  CA        46.4640  107.0450   30.4780 C.3   189  LEU189      0.1561
     58  C         46.0230  108.3850   31.0600 C.2   189  LEU189      0.2260
     59  O         46.3750  109.4410   30.5250 O.2   189  LEU189     -0.2867
     60  CB        45.3370  106.4790   29.6130 C.3   189  LEU189      0.0270
     61  CG        44.8520  107.3150   28.4200 C.3   189  LEU189      0.0019
     62  CD1       45.9710  107.6700   27.4480 C.3   189  LEU189      0.0001
     63  CD2       43.7320  106.5660   27.6970 C.3   189  LEU189      0.0001
     64  N         49.0370  110.3110   32.7800 N.3   192  LEU192     -0.1245
     65  CA        49.7750  110.8550   31.6140 C.3   192  LEU192      0.1561
     66  C         49.1520  112.1010   30.9940 C.2   192  LEU192      0.2260
     67  O         49.8560  113.0540   30.6530 O.2   192  LEU192     -0.2867
     68  CB        49.9060  109.7820   30.5230 C.3   192  LEU192      0.0270
     69  CG        50.7880  108.5670   30.8360 C.3   192  LEU192      0.0019
     70  CD1       50.5150  107.4760   29.7980 C.3   192  LEU192      0.0001
     71  CD2       52.2540  108.9610   30.8760 C.3   192  LEU192      0.0001
     72  N         42.5370   98.1620   29.8520 N.3   232  SER232     -0.1202
     73  CA        43.7910   98.3360   29.1200 C.3   232  SER232      0.2020
     74  C         44.4430   99.7060   29.3190 C.2   232  SER232      0.2618
     75  O         45.5810   99.9250   28.8780 O.2   232  SER232     -0.2717
     76  CB        43.5310   98.1440   27.6200 C.3   232  SER232      0.2103
     77  OG        42.5610   99.0740   27.1500 O.3   232  SER232     -0.2182
     78  N         43.7180  100.6220   29.9610 N.am  233  LEU233     -0.1979
     79  CA        44.1140  102.0190   30.0550 C.3   233  LEU233      0.1596
     80  C         45.0600  102.3290   31.2280 C.2   233  LEU233      0.2287
     81  O         45.5960  103.4280   31.2930 O.2   233  LEU233     -0.2864
     82  CB        42.8550  102.8940   30.1130 C.3   233  LEU233      0.0297
     83  CG        41.8210  102.6570   28.9970 C.3   233  LEU233      0.0022
     84  CD1       40.5700  103.5070   29.1930 C.3   233  LEU233      0.0001
     85  CD2       42.4260  102.9290   27.6230 C.3   233  LEU233      0.0001
     86  N         47.9040  100.4770   32.1000 N.3   235  ALA235     -0.1231
     87  CA        49.2950  100.0820   31.8110 C.3   235  ALA235      0.1694
     88  C         49.5750  100.1450   30.3260 C.2   235  ALA235      0.2592
     89  O         48.6700  100.3730   29.5310 O.2   235  ALA235     -0.2718
     90  CB        49.5710   98.6760   32.3370 C.3   235  ALA235      0.0304
     91  N         50.8420   99.9610   29.9690 N.am  236  ALA236     -0.1966
     92  CA        51.2640   99.8680   28.5840 C.3   236  ALA236      0.1728
     93  C         52.6130   99.1990   28.4430 C.2   236  ALA236      0.2616
     94  O         53.3880   99.1310   29.3580 O.2   236  ALA236     -0.2715
     95  CB        51.3230  101.2570   27.9710 C.3   236  ALA236      0.0334
     96  N         52.8950   98.7190   27.2500 N.am  237  ASP237     -0.1971
     97  CA        54.1620   98.0670   26.9600 C.3   237  ASP237      0.1709
     98  C         55.1530   99.0540   26.3550 C.2   237  ASP237      0.2293
     99  O         54.8400   99.7280   25.3540 O.2   237  ASP237     -0.2864
    100  CB        53.9190   96.9240   26.0110 C.3   237  ASP237      0.1436
    101  CG        53.0810   95.8450   26.6380 C.2   237  ASP237      0.3671
    102  OD1       53.4360   95.3870   27.7320 O.co2 237  ASP237     -0.2456
    103  OD2       52.0460   95.4760   26.0510 O.co2 237  ASP237     -0.2456
@<TRIPOS>BOND
     1    34    28    1
     2    34    33    1
     3    31    30    2
     4    28    29    1
     5    33    32    1
     6    24    23    2
     7    30    29    1
     8    30    35   am
     9    29    32    1
    10    41    39    1
    11    36    35    1
    12    36    39    1
    13    36    37    1
    14    23    22    1
    15    22    21    1
    16    22    25    1
    17    39    40    1
    18    37    38    2
    19    27    25    1
    20    25    26    1
    21    42    43    1
    22    12    11    2
    23    17    16    2
    24    43    44    1
    25    43    46    1
    26    44    45    2
    27    10    11    1
    28    10    13    1
    29    10     9    1
    30    11    14   am
    31    16    15    1
    32    50    49    1
    33    47    46    1
    34    47    48    1
    35    14    15    1
    36    15    18    1
    37    49    48    1
    38    99    98    2
    39    18    20    1
    40    18    19    1
    41   100   101    1
    42   100    97    1
    43   103   101   ar
    44    98    97    1
    45     4     3    2
    46   101   102   ar
    47    97    96    1
    48     3     2    1
    49    77    76    1
    50     1     2    1
    51    96    93   am
    52     2     5    1
    53    62    61    1
    54    76    73    1
    55    85    83    1
    56    63    61    1
    57    95    92    1
    58     8     6    1
    59    61    60    1
    60    93    92    1
    61    93    94    2
    62    92    91    1
    63     5     6    1
    64    75    74    2
    65    83    84    1
    66    83    82    1
    67     6     7    1
    68    73    74    1
    69    73    72    1
    70    74    78   am
    71    89    88    2
    72    60    57    1
    73    70    69    1
    74    78    79    1
    75    91    88   am
    76    79    82    1
    77    79    80    1
    78    88    87    1
    79    57    58    1
    80    57    56    1
    81    68    69    1
    82    68    65    1
    83    59    58    2
    84    67    66    2
    85    69    71    1
    86    66    65    1
    87    54    53    2
    88    80    81    2
    89    55    52    1
    90    65    64    1
    91    87    86    1
    92    87    90    1
    93    52    53    1
    94    52    51    1
