@<TRIPOS>MOLECULE
tmp/5hueA02.pdb
 87 82 0 0 0
SMALL
GASTEIGER

@<TRIPOS>ATOM
      1  N        -50.8290  -27.3720   40.1040 N.3    15  ILE15      -0.1231
      2  CA       -50.6900  -26.6430   41.3760 C.3    15  ILE15       0.1692
      3  C        -49.8230  -27.4390   42.3570 C.2    15  ILE15       0.2593
      4  O        -48.8940  -26.8870   42.9440 O.2    15  ILE15      -0.2718
      5  CB       -52.0740  -26.3300   42.0120 C.3    15  ILE15       0.0266
      6  CG1      -52.8780  -25.3550   41.1350 C.3    15  ILE15       0.0019
      7  CG2      -51.9330  -25.7730   43.4250 C.3    15  ILE15       0.0020
      8  CD1      -52.2230  -24.0100   40.8880 C.3    15  ILE15       0.0001
      9  N        -50.1210  -28.7340   42.4970 N.am   16  SER16      -0.1938
     10  CA       -49.3690  -29.6770   43.3560 C.3    16  SER16       0.2055
     11  C        -47.8430  -29.5620   43.3030 C.2    16  SER16       0.2643
     12  O        -47.1750  -29.7550   44.3130 O.2    16  SER16      -0.2714
     13  CB       -49.7360  -31.1210   42.9990 C.3    16  SER16       0.2130
     14  OG       -51.1160  -31.2450   42.7120 O.3    16  SER16      -0.2179
     15  N        -47.3040  -29.2450   42.1320 N.am   17  ARG17      -0.1963
     16  CA       -45.8510  -29.1820   41.9290 C.3    17  ARG17       0.1729
     17  C        -45.2350  -28.1020   42.8180 C.2    17  ARG17       0.2616
     18  O        -45.9010  -27.1260   43.1370 O.2    17  ARG17      -0.2715
     19  CB       -45.5010  -28.8520   40.4680 C.3    17  ARG17       0.0348
     20  CG       -46.2250  -29.6250   39.3650 C.3    17  ARG17       0.0492
     21  CD       -45.7170  -31.0410   39.1980 C.3    17  ARG17       0.2205
     22  NE       -46.5760  -31.8260   38.3170 N.pl3  17  ARG17      -0.0865
     23  CZ       -46.3440  -33.0870   37.9590 C.cat  17  ARG17       0.5346
     24  NH1      -45.2710  -33.7410   38.4000 N.pl3  17  ARG17       0.1354
     25  NH2      -47.1940  -33.7040   37.1480 N.pl3  17  ARG17       0.1354
     26  N        -43.9740  -28.2780   43.2170 N.am   18  ASP18      -0.1957
     27  CA       -43.2340  -27.2110   43.9050 C.3    18  ASP18       0.1840
     28  C        -42.9150  -26.1140   42.9020 C.2    18  ASP18       0.2621
     29  O        -42.7300  -26.3880   41.7190 O.2    18  ASP18      -0.2715
     30  CB       -41.9330  -27.7230   44.5350 C.3    18  ASP18       0.1450
     31  CG       -41.1560  -26.6200   45.2740 C.2    18  ASP18       0.3671
     32  OD1      -41.7270  -25.9640   46.1820 O.co2  18  ASP18      -0.2456
     33  OD2      -39.9710  -26.4080   44.9370 O.co2  18  ASP18      -0.2456
     34  N        -42.8720  -24.8760   43.3830 N.am   19  ALA19      -0.1977
     35  CA       -42.4960  -23.7270   42.5760 C.3    19  ALA19       0.1597
     36  C        -41.3230  -23.0600   43.2530 C.2    19  ALA19       0.2287
     37  O        -41.4130  -22.7170   44.4270 O.2    19  ALA19      -0.2864
     38  CB       -43.6580  -22.7600   42.4890 C.3    19  ALA19       0.0319
     39  N        -40.6120  -18.4690   44.9630 N.3    22  GLN22      -0.1245
     40  CA       -41.8960  -17.9120   45.3540 C.3    22  GLN22       0.1566
     41  C        -41.7010  -16.9120   46.4720 C.2    22  GLN22       0.2260
     42  O        -40.6480  -16.8960   47.1080 O.2    22  GLN22      -0.2867
     43  CB       -42.8600  -19.0160   45.7900 C.3    22  GLN22       0.0367
     44  CG       -43.3900  -19.8300   44.6280 C.3    22  GLN22       0.0905
     45  CD       -44.0230  -18.9630   43.5600 C.2    22  GLN22       0.2608
     46  OE1      -45.1400  -18.4740   43.7220 O.2    22  GLN22      -0.2717
     47  NE2      -43.3020  -18.7530   42.4660 N.am   22  GLN22      -0.0878
     48  N        -51.2640  -16.4510   53.2150 N.3    27  ARG27      -0.1245
     49  CA       -51.9610  -17.2320   52.1910 C.3    27  ARG27       0.1563
     50  C        -53.4120  -16.7930   52.0240 C.2    27  ARG27       0.2260
     51  O        -53.8810  -16.6350   50.9000 O.2    27  ARG27      -0.2867
     52  CB       -51.9040  -18.7330   52.4940 C.3    27  ARG27       0.0307
     53  CG       -52.2110  -19.5880   51.2720 C.3    27  ARG27       0.0489
     54  CD       -52.1740  -21.0790   51.5540 C.3    27  ARG27       0.2205
     55  NE       -53.4330  -21.5530   52.1330 N.pl3  27  ARG27      -0.0865
     56  CZ       -53.8590  -22.8200   52.1340 C.cat  27  ARG27       0.5346
     57  NH1      -53.1400  -23.8050   51.5820 N.pl3  27  ARG27       0.1354
     58  NH2      -55.0300  -23.1110   52.6960 N.pl3  27  ARG27       0.1354
     59  N        -46.6630  -17.6260   41.2020 N.3   237  VAL237     -0.1245
     60  CA       -47.7600  -18.5860   41.0370 C.3   237  VAL237      0.1561
     61  C        -49.1290  -17.9040   41.0690 C.2   237  VAL237      0.2260
     62  O        -49.8960  -18.0200   40.1150 O.2   237  VAL237     -0.2867
     63  CB       -47.6960  -19.7050   42.1070 C.3   237  VAL237      0.0252
     64  CG1      -48.9680  -20.5620   42.1210 C.3   237  VAL237      0.0019
     65  CG2      -46.4660  -20.5760   41.8830 C.3   237  VAL237      0.0019
     66  N        -51.7300  -17.5460   37.7900 N.3   241  ARG241     -0.1245
     67  CA       -52.9370  -18.3890   37.8400 C.3   241  ARG241      0.1563
     68  C        -54.2220  -17.5720   37.9440 C.2   241  ARG241      0.2260
     69  O        -55.2910  -18.0580   37.5700 O.2   241  ARG241     -0.2867
     70  CB       -52.8700  -19.4300   38.9660 C.3   241  ARG241      0.0307
     71  CG       -53.0490  -18.9020   40.3770 C.3   241  ARG241      0.0489
     72  CD       -53.3130  -20.0360   41.3500 C.3   241  ARG241      0.2205
     73  NE       -54.6610  -20.5880   41.1850 N.pl3 241  ARG241     -0.0865
     74  CZ       -55.2360  -21.4670   42.0110 C.cat 241  ARG241      0.5346
     75  NH1      -54.5960  -21.9230   43.0910 N.pl3 241  ARG241      0.1354
     76  NH2      -56.4700  -21.8930   41.7530 N.pl3 241  ARG241      0.1354
     77  N        -43.7960  -26.4630   39.0270 N.3   276  PHE276     -0.1241
     78  CA       -45.0390  -25.7450   38.6620 C.3   276  PHE276      0.1605
     79  C        -45.0320  -25.1200   37.2680 C.2   276  PHE276      0.2264
     80  O        -45.9950  -25.2640   36.5130 O.2   276  PHE276     -0.2867
     81  CB       -45.3500  -24.6590   39.7180 C.3   276  PHE276      0.0534
     82  CG       -46.4060  -23.6750   39.2930 C.ar  276  PHE276     -0.0203
     83  CD1      -47.7550  -23.9870   39.4120 C.ar  276  PHE276     -0.0042
     84  CD2      -46.0460  -22.4380   38.7600 C.ar  276  PHE276     -0.0042
     85  CE1      -48.7270  -23.0880   39.0100 C.ar  276  PHE276     -0.0003
     86  CE2      -47.0100  -21.5330   38.3530 C.ar  276  PHE276     -0.0003
     87  CZ       -48.3540  -21.8600   38.4780 C.ar  276  PHE276     -0.0000
@<TRIPOS>BOND
     1    80    79    2
     2    25    23    1
     3    79    78    1
     4    69    68    2
     5    66    67    1
     6    67    68    1
     7    67    70    1
     8    23    22    2
     9    23    24    1
    10    22    21    1
    11    86    87   ar
    12    86    84   ar
    13    87    85   ar
    14    78    77    1
    15    78    81    1
    16    84    82   ar
    17    70    71    1
    18    85    83   ar
    19    21    20    1
    20    82    83   ar
    21    82    81    1
    22    20    19    1
    23     1     2    1
    24    62    61    2
    25    71    72    1
    26    19    16    1
    27     8     6    1
    28    60    61    1
    29    60    59    1
    30    60    63    1
    31     6     5    1
    32    73    72    1
    33    73    74    2
    34     2     5    1
    35     2     3    1
    36    29    28    2
    37    76    74    1
    38    65    63    1
    39    16    15    1
    40    16    17    1
    41    74    75    1
    42     5     7    1
    43    63    64    1
    44    15    11   am
    45     3     9   am
    46     3     4    2
    47    47    45   am
    48    38    35    1
    49     9    10    1
    50    35    36    1
    51    35    34    1
    52    14    13    1
    53    17    18    2
    54    17    26   am
    55    28    34   am
    56    28    27    1
    57    13    10    1
    58    26    27    1
    59    36    37    2
    60    11    10    1
    61    11    12    2
    62    45    46    2
    63    45    44    1
    64    27    30    1
    65    30    31    1
    66    44    43    1
    67    33    31   ar
    68    39    40    1
    69    31    32   ar
    70    40    43    1
    71    40    41    1
    72    41    42    2
    73    51    50    2
    74    53    54    1
    75    53    52    1
    76    54    55    1
    77    57    56    1
    78    50    49    1
    79    55    56    2
    80    56    58    1
    81    49    52    1
    82    49    48    1
