@<TRIPOS>MOLECULE
tmp/5hueA05.pdb
 106 102 0 0 0
SMALL
GASTEIGER

@<TRIPOS>ATOM
      1  N        -50.8290  -27.3720   40.1040 N.3    15  ILE15      -0.1245
      2  CA       -50.6900  -26.6430   41.3760 C.3    15  ILE15       0.1561
      3  C        -49.8230  -27.4390   42.3570 C.2    15  ILE15       0.2260
      4  O        -48.8940  -26.8870   42.9440 O.2    15  ILE15      -0.2867
      5  CB       -52.0740  -26.3300   42.0120 C.3    15  ILE15       0.0252
      6  CG1      -52.8780  -25.3550   41.1350 C.3    15  ILE15       0.0019
      7  CG2      -51.9330  -25.7730   43.4250 C.3    15  ILE15       0.0019
      8  CD1      -52.2230  -24.0100   40.8880 C.3    15  ILE15       0.0001
      9  N        -40.6120  -18.4690   44.9630 N.3    22  GLN22      -0.1231
     10  CA       -41.8960  -17.9120   45.3540 C.3    22  GLN22       0.1683
     11  C        -41.7010  -16.9120   46.4720 C.2    22  GLN22       0.2434
     12  O        -40.6480  -16.8960   47.1080 O.2    22  GLN22      -0.2733
     13  CB       -42.8600  -19.0160   45.7900 C.3    22  GLN22       0.0380
     14  CG       -43.3900  -19.8300   44.6280 C.3    22  GLN22       0.0905
     15  CD       -44.0230  -18.9630   43.5600 C.2    22  GLN22       0.2608
     16  OE1      -45.1400  -18.4740   43.7220 O.2    22  GLN22      -0.2717
     17  NE2      -43.3020  -18.7530   42.4660 N.am   22  GLN22      -0.0878
     18  N        -42.7100  -16.0540   46.7010 N.am   23  PRO23      -0.2718
     19  CA       -42.6840  -15.1650   47.8450 C.3    23  PRO23       0.1535
     20  C        -43.3030  -15.8440   49.0660 C.2    23  PRO23       0.2599
     21  O        -44.2460  -16.6330   48.9230 O.2    23  PRO23      -0.2715
     22  CB       -43.5450  -13.9900   47.3770 C.3    23  PRO23       0.0310
     23  CG       -44.5580  -14.6140   46.4870 C.3    23  PRO23       0.0237
     24  CD       -43.9060  -15.8180   45.8640 C.3    23  PRO23       0.0939
     25  N        -42.7570  -15.5520   50.2460 N.am   24  THR24      -0.1937
     26  CA       -43.3720  -15.9590   51.5170 C.3    24  THR24       0.2028
     27  C        -44.2600  -14.8390   52.0900 C.2    24  THR24       0.2642
     28  O        -43.7710  -13.7790   52.4760 O.2    24  THR24      -0.2714
     29  CB       -42.3300  -16.4460   52.5580 C.3    24  THR24       0.1808
     30  OG1      -42.9930  -16.7220   53.7960 O.3    24  THR24      -0.2208
     31  CG2      -41.1810  -15.4380   52.7910 C.3    24  THR24       0.0379
     32  N        -45.5690  -15.0810   52.1230 N.am   25  TRP25      -0.1973
     33  CA       -46.5320  -14.0950   52.6170 C.3    25  TRP25       0.1640
     34  C        -47.8260  -14.7700   53.0780 C.2    25  TRP25       0.2290
     35  O        -47.9590  -15.9890   52.9660 O.2    25  TRP25      -0.2864
     36  CB       -46.7910  -13.0150   51.5480 C.3    25  TRP25       0.0576
     37  CG       -47.2590  -13.4930   50.1590 C.ar   25  TRP25       0.0006
     38  CD1      -47.9590  -14.6320   49.8530 C.ar   25  TRP25       0.0946
     39  CD2      -47.0960  -12.7910   48.9160 C.ar   25  TRP25       0.0152
     40  NE1      -48.2150  -14.6910   48.5020 N.ar   25  TRP25      -0.2442
     41  CE2      -47.7000  -13.5740   47.9050 C.ar   25  TRP25       0.0810
     42  CE3      -46.4860  -11.5820   48.5580 C.ar   25  TRP25       0.0012
     43  CZ2      -47.7100  -13.1890   46.5670 C.ar   25  TRP25       0.0191
     44  CZ3      -46.4970  -11.1990   47.2230 C.ar   25  TRP25       0.0001
     45  CH2      -47.1090  -12.0000   46.2450 C.ar   25  TRP25       0.0015
     46  N        -51.2640  -16.4510   53.2150 N.3    27  ARG27      -0.1245
     47  CA       -51.9610  -17.2320   52.1910 C.3    27  ARG27       0.1563
     48  C        -53.4120  -16.7930   52.0240 C.2    27  ARG27       0.2260
     49  O        -53.8810  -16.6350   50.9000 O.2    27  ARG27      -0.2867
     50  CB       -51.9040  -18.7330   52.4940 C.3    27  ARG27       0.0307
     51  CG       -52.2110  -19.5880   51.2720 C.3    27  ARG27       0.0489
     52  CD       -52.1740  -21.0790   51.5540 C.3    27  ARG27       0.2205
     53  NE       -53.4330  -21.5530   52.1330 N.pl3  27  ARG27      -0.0865
     54  CZ       -53.8590  -22.8200   52.1340 C.cat  27  ARG27       0.5346
     55  NH1      -53.1400  -23.8050   51.5820 N.pl3  27  ARG27       0.1354
     56  NH2      -55.0300  -23.1110   52.6960 N.pl3  27  ARG27       0.1354
     57  N        -53.3670  -13.5050   50.2490 N.3    30  ALA30      -0.1245
     58  CA       -52.9730  -13.6990   48.8460 C.3    30  ALA30       0.1562
     59  C        -54.0410  -14.3930   47.9840 C.2    30  ALA30       0.2260
     60  O        -54.1060  -14.1610   46.7820 O.2    30  ALA30      -0.2867
     61  CB       -51.6520  -14.4520   48.7670 C.3    30  ALA30       0.0290
     62  N        -55.8920  -12.8630   44.6200 N.3    34  ARG34      -0.1245
     63  CA       -56.0690  -13.7040   43.4370 C.3    34  ARG34       0.1563
     64  C        -57.5220  -13.7400   42.9680 C.2    34  ARG34       0.2260
     65  O        -57.7840  -13.6120   41.7770 O.2    34  ARG34      -0.2867
     66  CB       -55.5890  -15.1310   43.7200 C.3    34  ARG34       0.0307
     67  CG       -55.4990  -16.0360   42.4890 C.3    34  ARG34       0.0489
     68  CD       -56.1090  -17.3970   42.7520 C.3    34  ARG34       0.2205
     69  NE       -55.4860  -18.0580   43.8970 N.pl3  34  ARG34      -0.0865
     70  CZ       -56.0690  -18.9870   44.6560 C.cat  34  ARG34       0.5346
     71  NH1      -57.3200  -19.4010   44.4190 N.pl3  34  ARG34       0.1354
     72  NH2      -55.3930  -19.5080   45.6790 N.pl3  34  ARG34       0.1354
     73  N        -44.4100  -15.8570   39.2490 N.3   236  LEU236     -0.1231
     74  CA       -45.1830  -15.8280   40.4890 C.3   236  LEU236      0.1693
     75  C        -46.4590  -16.6450   40.3330 C.2   236  LEU236      0.2592
     76  O        -47.2480  -16.3810   39.4470 O.2   236  LEU236     -0.2718
     77  CB       -45.5010  -14.3700   40.8220 C.3   236  LEU236      0.0284
     78  CG       -45.4750  -13.9690   42.2920 C.3   236  LEU236      0.0019
     79  CD1      -44.7010  -12.6700   42.4730 C.3   236  LEU236      0.0001
     80  CD2      -46.8930  -13.8570   42.8330 C.3   236  LEU236      0.0001
     81  N        -46.6630  -17.6260   41.2020 N.am  237  VAL237     -0.1966
     82  CA       -47.7600  -18.5860   41.0370 C.3   237  VAL237      0.1727
     83  C        -49.1290  -17.9040   41.0690 C.2   237  VAL237      0.2616
     84  O        -49.8960  -18.0200   40.1150 O.2   237  VAL237     -0.2715
     85  CB       -47.6960  -19.7050   42.1070 C.3   237  VAL237      0.0290
     86  CG1      -48.9680  -20.5620   42.1210 C.3   237  VAL237      0.0023
     87  CG2      -46.4660  -20.5760   41.8830 C.3   237  VAL237      0.0023
     88  N        -49.4110  -17.1960   42.1640 N.am  238  ASP238     -0.1971
     89  CA       -50.7290  -16.5690   42.3920 C.3   238  ASP238      0.1709
     90  C        -51.1230  -15.5530   41.3150 C.2   238  ASP238      0.2293
     91  O        -52.2990  -15.4710   40.9500 O.2   238  ASP238     -0.2864
     92  CB       -50.8050  -15.8940   43.7760 C.3   238  ASP238      0.1436
     93  CG       -51.1180  -16.8740   44.9070 C.2   238  ASP238      0.3671
     94  OD1      -52.1490  -17.5910   44.8330 O.co2 238  ASP238     -0.2456
     95  OD2      -50.3520  -16.8880   45.8930 O.co2 238  ASP238     -0.2456
     96  N        -51.7300  -17.5460   37.7900 N.3   241  ARG241     -0.1245
     97  CA       -52.9370  -18.3890   37.8400 C.3   241  ARG241      0.1563
     98  C        -54.2220  -17.5720   37.9440 C.2   241  ARG241      0.2260
     99  O        -55.2910  -18.0580   37.5700 O.2   241  ARG241     -0.2867
    100  CB       -52.8700  -19.4300   38.9660 C.3   241  ARG241      0.0307
    101  CG       -53.0490  -18.9020   40.3770 C.3   241  ARG241      0.0489
    102  CD       -53.3130  -20.0360   41.3500 C.3   241  ARG241      0.2205
    103  NE       -54.6610  -20.5880   41.1850 N.pl3 241  ARG241     -0.0865
    104  CZ       -55.2360  -21.4670   42.0110 C.cat 241  ARG241      0.5346
    105  NH1      -54.5960  -21.9230   43.0910 N.pl3 241  ARG241      0.1354
    106  NH2      -56.4700  -21.8930   41.7530 N.pl3 241  ARG241      0.1354
@<TRIPOS>BOND
     1    99    98    2
     2    96    97    1
     3    97    98    1
     4    97   100    1
     5   100   101    1
     6    73    74    1
     7    76    75    2
     8     1     2    1
     9    84    83    2
    10    75    74    1
    11    75    81   am
    12   101   102    1
    13    74    77    1
    14    77    78    1
    15     8     6    1
    16    91    90    2
    17    82    83    1
    18    82    81    1
    19    82    85    1
    20    83    88   am
    21     6     5    1
    22   103   102    1
    23   103   104    2
    24    90    89    1
    25     2     5    1
    26     2     3    1
    27   106   104    1
    28    65    64    2
    29    87    85    1
    30   104   105    1
    31     5     7    1
    32    85    86    1
    33    88    89    1
    34    78    79    1
    35    78    80    1
    36     3     4    2
    37    89    92    1
    38    17    15   am
    39    67    68    1
    40    67    66    1
    41    68    69    1
    42    64    63    1
    43    63    66    1
    44    63    62    1
    45    15    16    2
    46    15    14    1
    47    92    93    1
    48    69    70    2
    49    71    70    1
    50    14    13    1
    51    70    72    1
    52    94    93   ar
    53    93    95   ar
    54     9    10    1
    55    10    13    1
    56    10    11    1
    57    24    23    1
    58    24    18    1
    59    45    43   ar
    60    45    44   ar
    61    11    18   am
    62    11    12    2
    63    23    22    1
    64    43    41   ar
    65    18    19    1
    66    60    59    2
    67    44    42   ar
    68    22    19    1
    69    19    20    1
    70    41    40   ar
    71    41    39   ar
    72    59    58    1
    73    40    38   ar
    74    42    39   ar
    75    61    58    1
    76    58    57    1
    77    39    37   ar
    78    21    20    2
    79    20    25   am
    80    38    37   ar
    81    37    36    1
    82    25    26    1
    83    49    48    2
    84    51    52    1
    85    51    50    1
    86    26    27    1
    87    26    29    1
    88    36    33    1
    89    52    53    1
    90    55    54    1
    91    48    47    1
    92    27    32   am
    93    27    28    2
    94    32    33    1
    95    53    54    2
    96    54    56    1
    97    47    50    1
    98    47    46    1
    99    29    31    1
   100    29    30    1
   101    33    34    1
   102    35    34    2
