@<TRIPOS>MOLECULE
tmp/5hueA06.pdb
 94 89 0 0 0
SMALL
GASTEIGER

@<TRIPOS>ATOM
      1  N        -55.2500  -11.7280   19.8430 N.3    48  GLU48      -0.1245
      2  CA       -53.9140  -11.1520   19.6970 C.3    48  GLU48       0.1567
      3  C        -52.8280  -12.1800   19.9820 C.2    48  GLU48       0.2260
      4  O        -51.7310  -12.0960   19.4320 O.2    48  GLU48      -0.2867
      5  CB       -53.7330   -9.9700   20.6500 C.3    48  GLU48       0.0388
      6  CG       -54.7180   -8.8370   20.4280 C.3    48  GLU48       0.1160
      7  CD       -54.3520   -7.5900   21.1940 C.2    48  GLU48       0.3649
      8  OE1      -53.8710   -7.7050   22.3440 O.co2  48  GLU48      -0.2457
      9  OE2      -54.5510   -6.4850   20.6410 O.co2  48  GLU48      -0.2457
     10  N        -52.7950  -14.2980   16.8140 N.3    51  GLU51      -0.1245
     11  CA       -51.9580  -13.5120   15.8890 C.3    51  GLU51       0.1567
     12  C        -50.4520  -13.6810   16.1450 C.2    51  GLU51       0.2260
     13  O        -49.6880  -13.8200   15.2030 O.2    51  GLU51      -0.2867
     14  CB       -52.3190  -12.0160   15.9260 C.3    51  GLU51       0.0388
     15  CG       -53.2370  -11.5690   14.8000 C.3    51  GLU51       0.1160
     16  CD       -52.5380  -11.5190   13.4490 C.2    51  GLU51       0.3649
     17  OE1      -51.4790  -10.8600   13.3360 O.co2  51  GLU51      -0.2457
     18  OE2      -53.0550  -12.1380   12.4940 O.co2  51  GLU51      -0.2457
     19  N        -49.5530   -1.0990   28.9400 N.3   165  MET165     -0.1245
     20  CA       -50.0630   -1.6130   27.6600 C.3   165  MET165      0.1570
     21  C        -51.0450   -0.6420   27.0280 C.2   165  MET165      0.2261
     22  O        -50.9820   -0.4190   25.8220 O.2   165  MET165     -0.2867
     23  CB       -50.6930   -3.0070   27.7710 C.3   165  MET165      0.0387
     24  CG       -49.7240   -4.1350   27.4330 C.3   165  MET165      0.0595
     25  SD       -49.1620   -4.1860   25.7160 S.3   165  MET165     -0.1393
     26  CE       -50.5930   -4.8930   24.9120 C.3   165  MET165      0.0692
     27  N        -48.7240    1.7770   25.2970 N.3   168  VAL168     -0.1231
     28  CA       -48.0110    1.3420   24.0680 C.3   168  VAL168      0.1692
     29  C        -48.9970    1.2180   22.9060 C.2   168  VAL168      0.2591
     30  O        -48.6870    1.6300   21.7860 O.2   168  VAL168     -0.2718
     31  CB       -47.1220    0.0660   24.2240 C.3   168  VAL168      0.0266
     32  CG1      -46.3210    0.1180   25.5210 C.3   168  VAL168      0.0020
     33  CG2      -47.9160   -1.2330   24.1220 C.3   168  VAL168      0.0020
     34  N        -50.1870    0.6820   23.1870 N.am  169  ARG169     -0.1980
     35  CA       -51.2580    0.6010   22.1930 C.3   169  ARG169      0.1597
     36  C        -51.6080    1.9840   21.6440 C.2   169  ARG169      0.2287
     37  O        -51.8110    2.1410   20.4410 O.2   169  ARG169     -0.2864
     38  CB       -52.5110   -0.0300   22.7950 C.3   169  ARG169      0.0334
     39  CG       -52.3950   -1.5080   23.1250 C.3   169  ARG169      0.0492
     40  CD       -53.6210   -1.9500   23.9200 C.3   169  ARG169      0.2205
     41  NE       -53.5550   -3.3350   24.3890 N.pl3 169  ARG169     -0.0865
     42  CZ       -53.7020   -4.4150   23.6170 C.cat 169  ARG169      0.5346
     43  NH1      -53.9140   -4.3070   22.3080 N.pl3 169  ARG169      0.1354
     44  NH2      -53.6260   -5.6240   24.1630 N.pl3 169  ARG169      0.1354
     45  N        -48.4860    3.5060   19.7540 N.3   172  THR172     -0.1218
     46  CA       -48.2850    2.8080   18.4910 C.3   172  THR172      0.1862
     47  C        -49.2940    3.2510   17.4140 C.2   172  THR172      0.2287
     48  O        -48.9030    3.4850   16.2680 O.2   172  THR172     -0.2866
     49  CB       -48.3210    1.2850   18.7240 C.3   172  THR172      0.1770
     50  OG1      -47.2830    0.9210   19.6460 O.3   172  THR172     -0.2211
     51  CG2      -48.0860    0.5480   17.4610 C.3   172  THR172      0.0375
     52  N        -47.1570    0.1110   14.0400 N.3   226  ALA226     -0.1231
     53  CA       -46.5450   -1.1860   14.3070 C.3   226  ALA226      0.1694
     54  C        -47.4170   -2.0060   15.2710 C.2   226  ALA226      0.2592
     55  O        -48.5280   -1.6030   15.6130 O.2   226  ALA226     -0.2718
     56  CB       -45.1650   -0.9610   14.8950 C.3   226  ALA226      0.0304
     57  N        -46.9290   -3.1830   15.6500 N.am  227  ASP227     -0.1960
     58  CA       -47.4960   -3.9770   16.7310 C.3   227  ASP227      0.1840
     59  C        -46.3720   -4.3370   17.6860 C.2   227  ASP227      0.2622
     60  O        -45.4610   -5.0770   17.3120 O.2   227  ASP227     -0.2715
     61  CB       -48.1250   -5.2670   16.1860 C.3   227  ASP227      0.1450
     62  CG       -49.5630   -5.0840   15.7130 C.2   227  ASP227      0.3671
     63  OD1      -50.2040   -4.0500   16.0210 O.co2 227  ASP227     -0.2456
     64  OD2      -50.0650   -6.0020   15.0270 O.co2 227  ASP227     -0.2456
     65  N        -46.4240   -3.8030   18.9040 N.am  228  ILE228     -0.1963
     66  CA       -45.4990   -4.1880   19.9640 C.3   228  ILE228      0.1727
     67  C        -46.2400   -5.1420   20.8950 C.2   228  ILE228      0.2616
     68  O        -47.1040   -4.7260   21.6720 O.2   228  ILE228     -0.2715
     69  CB       -44.9630   -2.9640   20.7390 C.3   228  ILE228      0.0290
     70  CG1      -44.0600   -2.1310   19.8290 C.3   228  ILE228      0.0022
     71  CG2      -44.1910   -3.3940   21.9820 C.3   228  ILE228      0.0023
     72  CD1      -43.6230   -0.8100   20.4230 C.3   228  ILE228      0.0001
     73  N        -45.8900   -6.4220   20.8040 N.am  229  TYR229     -0.1974
     74  CA       -46.4060   -7.4440   21.7120 C.3   229  TYR229      0.1639
     75  C        -45.6900   -7.2880   23.0570 C.2   229  TYR229      0.2290
     76  O        -44.7590   -6.4840   23.1630 O.2   229  TYR229     -0.2864
     77  CB       -46.1830   -8.8340   21.1140 C.3   229  TYR229      0.0560
     78  CG       -46.9780   -9.0970   19.8480 C.ar  229  TYR229     -0.0198
     79  CD1      -48.2650   -9.6350   19.9090 C.ar  229  TYR229     -0.0009
     80  CD2      -46.4420   -8.8280   18.5920 C.ar  229  TYR229     -0.0009
     81  CE1      -49.0010   -9.8870   18.7590 C.ar  229  TYR229      0.0417
     82  CE2      -47.1680   -9.0800   17.4280 C.ar  229  TYR229      0.0417
     83  CZ       -48.4520   -9.6110   17.5190 C.ar  229  TYR229      0.1957
     84  OH       -49.1880   -9.8620   16.3760 O.3   229  TYR229     -0.2866
     85  N        -48.9460  -11.4440   26.1780 N.3   262  HIS262     -0.1241
     86  CA       -49.0710  -12.2000   24.9370 C.3   262  HIS262      0.1621
     87  C        -48.2300  -13.4760   25.0360 C.2   262  HIS262      0.2264
     88  O        -48.7540  -14.5820   24.8890 O.2   262  HIS262     -0.2867
     89  CB       -48.6570  -11.3440   23.7350 C.3   262  HIS262      0.0745
     90  CG       -49.6320  -10.2520   23.4120 C.ar  262  HIS262      0.0817
     91  ND1      -49.2810   -8.9200   23.3560 N.ar  262  HIS262     -0.2268
     92  CD2      -50.9580  -10.3000   23.1390 C.ar  262  HIS262      0.1154
     93  CE1      -50.3450   -8.1960   23.0610 C.ar  262  HIS262      0.1986
     94  NE2      -51.3760   -9.0090   22.9250 N.ar  262  HIS262     -0.2212
@<TRIPOS>BOND
     1    18    16   ar
     2    17    16   ar
     3    16    15    1
     4    52    53    1
     5    53    56    1
     6    53    54    1
     7    15    14    1
     8    64    62   ar
     9    13    12    2
    10    54    55    2
    11    54    57   am
    12    57    58    1
    13    62    63   ar
    14    62    61    1
    15    11    14    1
    16    11    12    1
    17    11    10    1
    18    61    58    1
    19    48    47    2
    20    84    83    1
    21    58    59    1
    22    60    59    2
    23    47    46    1
    24    82    83   ar
    25    82    80   ar
    26    51    49    1
    27    83    81   ar
    28    59    65   am
    29    46    49    1
    30    46    45    1
    31    80    78   ar
    32    49    50    1
    33    81    79   ar
    34    65    66    1
    35     4     3    2
    36     2     1    1
    37     2     3    1
    38     2     5    1
    39    70    72    1
    40    70    69    1
    41    78    79   ar
    42    78    77    1
    43    66    69    1
    44    66    67    1
    45     6     5    1
    46     6     7    1
    47    37    36    2
    48     9     7   ar
    49    69    71    1
    50    73    67   am
    51    73    74    1
    52    67    68    2
    53    77    74    1
    54     7     8   ar
    55    36    35    1
    56    74    75    1
    57    30    29    2
    58    35    38    1
    59    35    34    1
    60    43    42    1
    61    38    39    1
    62    29    34   am
    63    29    28    1
    64    94    93   ar
    65    94    92   ar
    66    75    76    2
    67    93    91   ar
    68    39    40    1
    69    92    90   ar
    70    91    90   ar
    71    90    89    1
    72    42    44    1
    73    42    41    2
    74    89    86    1
    75    40    41    1
    76    28    31    1
    77    28    27    1
    78    33    31    1
    79    31    32    1
    80    88    87    2
    81    26    25    1
    82    86    87    1
    83    86    85    1
    84    25    24    1
    85    22    21    2
    86    21    20    1
    87    24    23    1
    88    20    23    1
    89    20    19    1
