@<TRIPOS>MOLECULE
tmp/5huiA01.pdb
 149 143 0 0 0
SMALL
GASTEIGER

@<TRIPOS>ATOM
      1  N         22.7530   12.8230    1.7190 N.3     7  ILE7       -0.1231
      2  CA        22.0720   11.9880    2.7290 C.3     7  ILE7        0.1692
      3  C         22.0820   10.5550    2.2050 C.2     7  ILE7        0.2592
      4  O         21.7990   10.3590    1.0170 O.2     7  ILE7       -0.2718
      5  CB        20.6340   12.5140    3.0050 C.3     7  ILE7        0.0266
      6  CG1       19.9990   11.7150    4.1620 C.3     7  ILE7        0.0019
      7  CG2       19.7720   12.5580    1.7520 C.3     7  ILE7        0.0020
      8  CD1       18.7850   12.4450    4.7760 C.3     7  ILE7        0.0001
      9  N         22.4390    9.6350    3.1010 N.am    8  VAL8       -0.1966
     10  CA        22.5440    8.2200    2.7280 C.3     8  VAL8        0.1727
     11  C         22.2420    7.3950    3.9940 C.2     8  VAL8        0.2616
     12  O         22.4090    7.8920    5.1260 O.2     8  VAL8       -0.2715
     13  CB        23.9660    7.9310    2.2490 C.3     8  VAL8        0.0290
     14  CG1       25.0230    8.0320    3.3730 C.3     8  VAL8        0.0023
     15  CG2       24.0940    6.5670    1.5670 C.3     8  VAL8        0.0023
     16  N         21.8080    6.1660    3.7750 N.am    9  ALA9       -0.1977
     17  CA        21.8060    5.0980    4.7910 C.3     9  ALA9        0.1597
     18  C         22.7610    4.0000    4.3090 C.2     9  ALA9        0.2287
     19  O         22.7090    3.5800    3.1240 O.2     9  ALA9       -0.2864
     20  CB        20.4260    4.5490    4.9780 C.3     9  ALA9        0.0319
     21  N         17.4220   -2.1520   -5.0680 N.3    21  ASP21      -0.1225
     22  CA        16.7160   -1.7780   -3.8070 C.3    21  ASP21       0.1805
     23  C         17.7580   -1.6090   -2.7110 C.2    21  ASP21       0.2597
     24  O         18.9520   -1.5710   -2.9830 O.2    21  ASP21      -0.2718
     25  CB        15.7270   -2.9120   -3.4260 C.3    21  ASP21       0.1424
     26  CG        14.4680   -2.3910   -2.6010 C.2    21  ASP21       0.3668
     27  OD1       14.4940   -1.2590   -1.9840 O.co2  21  ASP21      -0.2456
     28  OD2       13.4380   -3.0900   -2.5710 O.co2  21  ASP21      -0.2456
     29  N         17.2590   -1.3300   -1.5210 N.am   22  LEU22      -0.1979
     30  CA        18.1390   -1.2190   -0.3710 C.3    22  LEU22       0.1596
     31  C         18.5530   -2.6350    0.0140 C.2    22  LEU22       0.2287
     32  O         17.8890   -3.6310   -0.3430 O.2    22  LEU22      -0.2864
     33  CB        17.4380   -0.5060    0.8180 C.3    22  LEU22       0.0297
     34  CG        16.9200    0.9000    0.5150 C.3    22  LEU22       0.0022
     35  CD1       16.6110    1.6840    1.7820 C.3    22  LEU22       0.0001
     36  CD2       17.8060    1.7210   -0.4030 C.3    22  LEU22       0.0001
     37  N         13.2870    5.1640    9.3160 N.3    30  GLU30      -0.1231
     38  CA        14.4400    5.6670    8.5250 C.3    30  GLU30       0.1699
     39  C         13.9030    6.4060    7.3070 C.2    30  GLU30       0.2592
     40  O         14.3750    7.5070    6.9280 O.2    30  GLU30      -0.2718
     41  CB        15.4420    4.5400    8.1940 C.3    30  GLU30       0.0402
     42  CG        16.9030    5.0090    8.0970 C.3    30  GLU30       0.1161
     43  CD        17.1740    5.8360    6.9170 C.2    30  GLU30       0.3649
     44  OE1       17.9230    6.8380    7.1400 O.co2  30  GLU30      -0.2457
     45  OE2       16.7190    5.5350    5.8040 O.co2  30  GLU30      -0.2457
     46  N         12.9690    5.8160    6.5420 N.am   31  PHE31      -0.1976
     47  CA        12.2980    6.5350    5.4820 C.3    31  PHE31       0.1639
     48  C         11.6330    7.8580    5.9290 C.2    31  PHE31       0.2290
     49  O         11.7850    8.8710    5.2410 O.2    31  PHE31      -0.2864
     50  CB        11.1980    5.6670    4.8690 C.3    31  PHE31       0.0560
     51  CG        11.7370    4.6180    3.8930 C.ar   31  PHE31      -0.0200
     52  CD1       12.2150    4.9420    2.6560 C.ar   31  PHE31      -0.0042
     53  CD2       11.7490    3.2060    4.2210 C.ar   31  PHE31      -0.0042
     54  CE1       12.6500    3.9600    1.7460 C.ar   31  PHE31      -0.0003
     55  CE2       12.1850    2.2350    3.3110 C.ar   31  PHE31      -0.0003
     56  CZ        12.6700    2.6220    2.0580 C.ar   31  PHE31      -0.0000
     57  N         12.5890    9.7760    8.2890 N.3    33  TYR33      -0.1227
     58  CA        13.6780   10.7170    8.5320 C.3    33  TYR33       0.1736
     59  C         14.1740   11.2630    7.1950 C.2    33  TYR33       0.2595
     60  O         14.3640   12.4670    7.0110 O.2    33  TYR33      -0.2718
     61  CB        14.8100   10.0420    9.2940 C.3    33  TYR33       0.0548
     62  CG        16.1330   10.8560    9.4380 C.ar   33  TYR33      -0.0200
     63  CD1       16.1790   11.8770   10.3510 C.ar   33  TYR33      -0.0009
     64  CD2       17.2360   10.5930    8.6380 C.ar   33  TYR33      -0.0009
     65  CE1       17.3620   12.5890   10.5230 C.ar   33  TYR33       0.0417
     66  CE2       18.4230   11.3140    8.7900 C.ar   33  TYR33       0.0417
     67  CZ        18.4410   12.2790    9.7420 C.ar   33  TYR33       0.1957
     68  OH        19.6160   13.0120    9.9600 O.3    33  TYR33      -0.2866
     69  N         14.4610   10.4080    6.2150 N.am   34  PHE34      -0.1976
     70  CA        14.8690   10.8210    4.9270 C.3    34  PHE34       0.1639
     71  C         13.8840   11.8660    4.3680 C.2    34  PHE34       0.2290
     72  O         14.3180   12.8990    3.8360 O.2    34  PHE34      -0.2864
     73  CB        15.0270    9.5840    3.9880 C.3    34  PHE34       0.0560
     74  CG        15.1310    9.9580    2.5360 C.ar   34  PHE34      -0.0200
     75  CD1       16.3600   10.3260    2.0240 C.ar   34  PHE34      -0.0042
     76  CD2       14.0450    9.9860    1.6720 C.ar   34  PHE34      -0.0042
     77  CE1       16.5640   10.7400    0.7460 C.ar   34  PHE34      -0.0003
     78  CE2       14.2360   10.3900    0.4020 C.ar   34  PHE34      -0.0003
     79  CZ        15.4480   10.7430   -0.1230 C.ar   34  PHE34      -0.0000
     80  N         18.8230    5.4230   -9.0530 N.3    56  THR56      -0.1218
     81  CA        18.1060    5.7650   -7.9050 C.3    56  THR56       0.1862
     82  C         16.6530    6.1950   -8.1860 C.2    56  THR56       0.2287
     83  O         15.7180    5.7520   -7.5010 O.2    56  THR56      -0.2866
     84  CB        18.8650    6.8560   -7.0890 C.3    56  THR56       0.1770
     85  OG1       20.1060    6.2540   -6.6690 O.3    56  THR56      -0.2211
     86  CG2       18.0590    7.3060   -5.8700 C.3    56  THR56       0.0375
     87  N         14.6050    3.2030   -8.7510 N.3    59  SER59      -0.1202
     88  CA        14.4280    2.4000   -7.5160 C.3    59  SER59       0.2020
     89  C         13.3300    2.8590   -6.6120 C.2    59  SER59       0.2619
     90  O         12.8810    2.0750   -5.7270 O.2    59  SER59      -0.2717
     91  CB        15.7720    2.3200   -6.8390 C.3    59  SER59       0.2103
     92  OG        15.9640    3.4870   -6.0250 O.3    59  SER59      -0.2182
     93  N         12.8650    4.1110   -6.7910 N.am   60  ILE60      -0.1966
     94  CA        11.7180    4.5560   -6.0070 C.3    60  ILE60       0.1712
     95  C         10.4100    3.9710   -6.6050 C.2    60  ILE60       0.2458
     96  O         10.2350    4.0830   -7.7990 O.2    60  ILE60      -0.2730
     97  CB        11.6760    6.1220   -6.0230 C.3    60  ILE60       0.0289
     98  CG1       13.0490    6.6370   -5.4950 C.3    60  ILE60       0.0022
     99  CG2       10.5110    6.6060   -5.1970 C.3    60  ILE60       0.0023
    100  CD1       13.2380    8.1470   -5.8310 C.3    60  ILE60       0.0001
    101  N          9.5040    3.4620   -5.7430 N.am   61  PRO61      -0.2727
    102  CA         8.3020    2.8830   -6.3950 C.3    61  PRO61       0.1402
    103  C          7.5400    4.0000   -7.1610 C.2    61  PRO61       0.2269
    104  O          7.5790    5.1770   -6.6560 O.2    61  PRO61      -0.2865
    105  CB         7.4620    2.4430   -5.2030 C.3    61  PRO61       0.0296
    106  CG         8.4910    2.1800   -4.0510 C.3    61  PRO61       0.0237
    107  CD         9.6650    3.1110   -4.3110 C.3    61  PRO61       0.0939
    108  N          5.4780    6.7450   -5.5620 N.3    64  ASN64      -0.1240
    109  CA         6.2120    7.6630   -4.6940 C.3    64  ASN64       0.1653
    110  C          7.1740    8.6250   -5.4080 C.2    64  ASN64       0.2266
    111  O          7.9000    9.3550   -4.7380 O.2    64  ASN64      -0.2867
    112  CB         6.9950    6.8310   -3.6680 C.3    64  ASN64       0.1155
    113  CG         6.0420    5.9890   -2.8500 C.2    64  ASN64       0.2627
    114  OD1        5.0920    6.5310   -2.2150 O.2    64  ASN64      -0.2716
    115  ND2        6.1280    4.6990   -3.0350 N.am   64  ASN64      -0.0877
    116  N          9.6370   12.4610   -5.6260 N.3    67  LEU67      -0.1245
    117  CA         9.5820   12.6390   -4.1870 C.3    67  LEU67       0.1561
    118  C          8.8530   13.9840   -3.8580 C.2    67  LEU67       0.2260
    119  O          9.2450   15.0820   -4.2630 O.2    67  LEU67      -0.2867
    120  CB        11.0500   12.7460   -3.6900 C.3    67  LEU67       0.0270
    121  CG        11.8290   11.3660   -3.8340 C.3    67  LEU67       0.0019
    122  CD1       13.2720   11.5700   -3.3670 C.3    67  LEU67       0.0001
    123  CD2       11.1320   10.1520   -3.0690 C.3    67  LEU67       0.0001
    124  N         20.8990   12.5810   -3.0310 N.3   115  VAL115     -0.1301
    125  CA        20.2310   11.4050   -2.4210 C.3   115  VAL115      0.1246
    126  C         20.6930   10.0950   -3.0370 C.3   115  VAL115      0.2009
    127  O         20.0410    9.0850   -2.6660 O.3   115  VAL115     -0.2188
    128  CB        18.7250   11.5690   -2.4630 C.3   115  VAL115      0.0202
    129  CG1       18.3130   12.8930   -1.7870 C.3   115  VAL115      0.0016
    130  CG2       18.1810   11.3950   -3.9050 C.3   115  VAL115      0.0016
    131  N         27.4130   10.6510   -5.1320 N.3   121  TYR121     -0.1241
    132  CA        28.0400   10.9390   -3.8130 C.3   121  TYR121      0.1605
    133  C         29.5470   11.1810   -3.8810 C.2   121  TYR121      0.2264
    134  O         30.0630   12.1240   -3.2870 O.2   121  TYR121     -0.2867
    135  CB        27.8450    9.7980   -2.8510 C.3   121  TYR121      0.0534
    136  CG        26.4280    9.5100   -2.3620 C.ar  121  TYR121     -0.0201
    137  CD1       25.6260   10.5170   -1.8110 C.ar  121  TYR121     -0.0009
    138  CD2       25.9540    8.2220   -2.3580 C.ar  121  TYR121     -0.0009
    139  CE1       24.3430   10.2410   -1.3120 C.ar  121  TYR121      0.0417
    140  CE2       24.6720    7.8970   -1.9030 C.ar  121  TYR121      0.0417
    141  CZ        23.8960    8.9110   -1.3440 C.ar  121  TYR121      0.1957
    142  OH        22.7100    8.5880   -0.8110 O.3   121  TYR121     -0.2866
    143  N         23.0450    7.6650    7.8960 N.3   136  THR136     -0.1218
    144  CA        22.4160    6.6800    8.8640 C.3   136  THR136      0.1862
    145  C         23.2960    5.4740    8.8440 C.2   136  THR136      0.2287
    146  O         23.5430    4.8560    7.7750 O.2   136  THR136     -0.2866
    147  CB        21.0200    6.3790    8.4120 C.3   136  THR136      0.1770
    148  OG1       20.1920    7.5480    8.3070 O.3   136  THR136     -0.2211
    149  CG2       20.4230    5.4120    9.4230 C.3   136  THR136      0.0375
@<TRIPOS>BOND
     1    80    81    1
     2    87    88    1
     3    82    81    1
     4    82    83    2
     5    81    84    1
     6    96    95    2
     7    88    91    1
     8    88    89    1
     9   103   104    2
    10   103   102    1
    11    84    85    1
    12    84    86    1
    13    91    92    1
    14    93    89   am
    15    93    94    1
    16    89    90    2
    17    95    94    1
    18    95   101   am
    19   102   101    1
    20   102   105    1
    21    97    94    1
    22    97    98    1
    23    97    99    1
    24   100    98    1
    25   101   107    1
    26   116   117    1
    27   108   109    1
    28   110   111    2
    29   110   109    1
    30   105   106    1
    31   131   132    1
    32    21    22    1
    33   109   112    1
    34   107   106    1
    35   119   118    2
    36   117   118    1
    37   117   120    1
    38   130   128    1
    39   133   132    1
    40   133   134    2
    41   121   120    1
    42   121   122    1
    43   121   123    1
    44   132   135    1
    45    22    25    1
    46    22    23    1
    47   112   113    1
    48    25    26    1
    49   126   127    1
    50   126   125    1
    51   115   113   am
    52   124   125    1
    53    24    23    2
    54   135   136    1
    55   113   114    2
    56    23    29   am
    57    26    28   ar
    58    26    27   ar
    59   128   125    1
    60   128   129    1
    61   136   138   ar
    62   136   137   ar
    63   138   140   ar
    64   140   141   ar
    65   137   139   ar
    66    29    30    1
    67   141   139   ar
    68   141   142    1
    69    36    34    1
    70    30    31    1
    71    30    33    1
    72    32    31    2
    73    79    78   ar
    74    79    77   ar
    75    78    76   ar
    76    34    33    1
    77    34    35    1
    78    77    75   ar
    79     4     3    2
    80    15    13    1
    81    76    74   ar
    82     1     2    1
    83    54    56   ar
    84    54    52   ar
    85     7     5    1
    86    75    74   ar
    87    56    55   ar
    88     3     2    1
    89     3     9   am
    90    13    10    1
    91    13    14    1
    92    74    73    1
    93    52    51   ar
    94    10     9    1
    95    10    11    1
    96     2     5    1
    97     5     6    1
    98    19    18    2
    99    55    53   ar
   100    16    11   am
   101    16    17    1
   102    72    71    2
   103    51    53   ar
   104    51    50    1
   105    73    70    1
   106    11    12    2
   107     6     8    1
   108    18    17    1
   109    71    70    1
   110    17    20    1
   111    50    47    1
   112    70    69    1
   113    49    48    2
   114    47    48    1
   115    47    46    1
   116    45    43   ar
   117    69    59   am
   118    46    39   am
   119    43    44   ar
   120    43    42    1
   121    40    39    2
   122    60    59    2
   123    59    58    1
   124    39    38    1
   125   146   145    2
   126   143   144    1
   127    42    41    1
   128    41    38    1
   129    57    58    1
   130   148   147    1
   131   147   144    1
   132   147   149    1
   133    38    37    1
   134    58    61    1
   135    64    66   ar
   136    64    62   ar
   137    66    67   ar
   138   145   144    1
   139    61    62    1
   140    62    63   ar
   141    67    68    1
   142    67    65   ar
   143    63    65   ar
