@<TRIPOS>MOLECULE
tmp/5huxA00.pdb
 128 121 0 0 0
SMALL
GASTEIGER

@<TRIPOS>ATOM
      1  N         35.4220    7.2720   12.7200 N.3   240  SER240     -0.1202
      2  CA        35.6020    5.8410   12.5620 C.3   240  SER240      0.2020
      3  C         35.4110    5.4480   11.1020 C.2   240  SER240      0.2619
      4  O         34.2950    5.4940   10.5680 O.2   240  SER240     -0.2717
      5  CB        34.6320    5.0680   13.4550 C.3   240  SER240      0.2103
      6  OG        34.6970    3.6820   13.1670 O.3   240  SER240     -0.2182
      7  N         36.5180    5.0820   10.4640 N.am  241  LEU241     -0.1965
      8  CA        36.5170    4.6400    9.0760 C.3   241  LEU241      0.1728
      9  C         36.3840    3.1200    9.0200 C.2   241  LEU241      0.2617
     10  O         37.3300    2.4100    8.6820 O.2   241  LEU241     -0.2715
     11  CB        37.7950    5.1070    8.3680 C.3   241  LEU241      0.0311
     12  CG        37.9670    6.6320    8.2790 C.3   241  LEU241      0.0022
     13  CD1       39.2750    7.0130    7.5930 C.3   241  LEU241      0.0001
     14  CD2       36.7880    7.2610    7.5530 C.3   241  LEU241      0.0001
     15  N         35.2020    2.6280    9.3740 N.am  242  GLY242     -0.1940
     16  CA        34.9600    1.2010    9.4290 C.3   242  GLY242      0.2014
     17  C         34.1470    0.7540    8.2330 C.2   242  GLY242      0.2639
     18  O         34.2520    1.3450    7.1540 O.2   242  GLY242     -0.2714
     19  N         33.3370   -0.2850    8.4230 N.am  243  SER243     -0.1949
     20  CA        32.4280   -0.7560    7.3780 C.3   243  SER243      0.1924
     21  C         31.5330    0.3930    6.9290 C.2   243  SER243      0.2314
     22  O         31.2470    0.5500    5.7440 O.2   243  SER243     -0.2863
     23  CB        31.5860   -1.9270    7.8810 C.3   243  SER243      0.2116
     24  OG        32.4180   -2.9780    8.3320 O.3   243  SER243     -0.2180
     25  N         33.8020    1.5880    4.4060 N.3   281  GLY281     -0.1210
     26  CA        34.7200    0.5580    3.9590 C.3   281  GLY281      0.1956
     27  C         34.0800   -0.6520    3.3020 C.2   281  GLY281      0.2611
     28  O         34.7390   -1.3490    2.5390 O.2   281  GLY281     -0.2717
     29  N         32.8140   -0.9190    3.6090 N.am  282  ALA282     -0.1979
     30  CA        32.1120   -2.0510    3.0060 C.3   282  ALA282      0.1597
     31  C         32.0580   -1.8930    1.4880 C.2   282  ALA282      0.2287
     32  O         32.2330   -2.8590    0.7360 O.2   282  ALA282     -0.2864
     33  CB        30.7080   -2.1820    3.5860 C.3   282  ALA282      0.0319
     34  N         34.2820   -0.2630   -0.2990 N.3   284  LEU284     -0.1231
     35  CA        35.6370   -0.5840   -0.7370 C.3   284  LEU284      0.1693
     36  C         35.8370   -2.0970   -0.8430 C.2   284  LEU284      0.2591
     37  O         36.4160   -2.5920   -1.8100 O.2   284  LEU284     -0.2718
     38  CB        36.6700    0.0120    0.2220 C.3   284  LEU284      0.0284
     39  CG        36.6680    1.5430    0.3640 C.3   284  LEU284      0.0019
     40  CD1       37.6960    1.9910    1.3900 C.3   284  LEU284      0.0001
     41  CD2       36.9150    2.2130   -0.9780 C.3   284  LEU284      0.0001
     42  N         35.3460   -2.8240    0.1540 N.am  285  ARG285     -0.1980
     43  CA        35.5340   -4.2680    0.2230 C.3   285  ARG285      0.1597
     44  C         34.7480   -4.9820   -0.8650 C.2   285  ARG285      0.2287
     45  O         35.0950   -6.0990   -1.2560 O.2   285  ARG285     -0.2864
     46  CB        35.1310   -4.7940    1.6010 C.3   285  ARG285      0.0334
     47  CG        35.2990   -6.3010    1.7760 C.3   285  ARG285      0.0492
     48  CD        35.3850   -6.6720    3.2370 C.3   285  ARG285      0.2205
     49  NE        36.7190   -6.4160    3.7730 N.pl3 285  ARG285     -0.0865
     50  CZ        37.0400   -6.5280    5.0580 C.cat 285  ARG285      0.5346
     51  NH1       36.1190   -6.8860    5.9430 N.pl3 285  ARG285      0.1354
     52  NH2       38.2790   -6.2750    5.4590 N.pl3 285  ARG285      0.1354
     53  N         41.7530   -6.0510    1.5390 N.3   290  ASP290     -0.1239
     54  CA        42.6100   -5.1120    2.2710 C.3   290  ASP290      0.1674
     55  C         44.0190   -4.9770    1.6660 C.2   290  ASP290      0.2266
     56  O         44.5760   -3.8740    1.5870 O.2   290  ASP290     -0.2867
     57  CB        42.7190   -5.5390    3.7420 C.3   290  ASP290      0.1410
     58  CG        41.3960   -5.4280    4.4920 C.2   290  ASP290      0.3668
     59  OD1       40.3570   -5.1520    3.8570 O.co2 290  ASP290     -0.2456
     60  OD2       41.3930   -5.6320    5.7230 O.co2 290  ASP290     -0.2456
     61  N         43.8220   -2.8530   -1.2480 N.3   293  LEU293     -0.1231
     62  CA        43.6330   -1.4710   -0.8120 C.3   293  LEU293      0.1693
     63  C         44.9830   -0.8330   -0.5010 C.2   293  LEU293      0.2591
     64  O         45.2470    0.2980   -0.8990 O.2   293  LEU293     -0.2718
     65  CB        42.7140   -1.3920    0.4100 C.3   293  LEU293      0.0284
     66  CG        41.2230   -1.6380    0.1490 C.3   293  LEU293      0.0019
     67  CD1       40.4170   -1.5130    1.4370 C.3   293  LEU293      0.0001
     68  CD2       40.6880   -0.6890   -0.9320 C.3   293  LEU293      0.0001
     69  N         45.8430   -1.5730    0.1940 N.am  294  GLU294     -0.1979
     70  CA        47.1870   -1.0840    0.4930 C.3   294  GLU294      0.1602
     71  C         48.0100   -0.8400   -0.7790 C.2   294  GLU294      0.2287
     72  O         48.4370    0.3070   -1.0700 O.2   294  GLU294     -0.2864
     73  CB        47.9010   -2.0760    1.4130 C.3   294  GLU294      0.0415
     74  CG        47.2280   -2.1960    2.7720 C.3   294  GLU294      0.1163
     75  CD        47.7720   -3.3270    3.6210 C.2   294  GLU294      0.3649
     76  OE1       48.4770   -4.2030    3.0790 O.co2 294  GLU294     -0.2457
     77  OE2       47.4920   -3.3340    4.8400 O.co2 294  GLU294     -0.2457
     78  N         37.9520    6.8540   -2.6090 N.3   346  LEU346     -0.1245
     79  CA        38.4700    7.5310   -1.4260 C.3   346  LEU346      0.1561
     80  C         38.0630    9.0040   -1.4120 C.2   346  LEU346      0.2260
     81  O         37.7770    9.5680   -0.3570 O.2   346  LEU346     -0.2867
     82  CB        39.9920    7.3900   -1.3540 C.3   346  LEU346      0.0270
     83  CG        40.5070    5.9610   -1.1780 C.3   346  LEU346      0.0019
     84  CD1       42.0220    5.9590   -1.0480 C.3   346  LEU346      0.0001
     85  CD2       39.8670    5.2980    0.0280 C.3   346  LEU346      0.0001
     86  N         39.2390    2.7960   13.2710 N.3   375  GLY375     -0.1210
     87  CA        38.6830    1.8930   12.2750 C.3   375  GLY375      0.1956
     88  C         39.6810    1.3960   11.2450 C.2   375  GLY375      0.2612
     89  O         40.8420    1.8060   11.2270 O.2   375  GLY375     -0.2717
     90  N         39.2160    0.5070   10.3720 N.am  376  GLY376     -0.1942
     91  CA        40.0720   -0.1180    9.3830 C.3   376  GLY376      0.2014
     92  C         40.7600    0.8310    8.4170 C.2   376  GLY376      0.2639
     93  O         41.8200    0.5100    7.8830 O.2   376  GLY376     -0.2714
     94  N         40.1690    1.9980    8.1870 N.am  377  GLY377     -0.1954
     95  CA        40.7350    2.9500    7.2460 C.3   377  GLY377      0.1869
     96  C         41.7060    3.9560    7.8440 C.2   377  GLY377      0.2309
     97  O         42.3110    4.7380    7.1120 O.2   377  GLY377     -0.2863
     98  N         44.7020    3.8810    9.1620 N.3   379  LYS379     -0.1231
     99  CA        46.1220    3.8330    8.8120 C.3   379  LYS379      0.1693
    100  C         46.3910    4.1160    7.3300 C.2   379  LYS379      0.2592
    101  O         47.5390    4.0530    6.8800 O.2   379  LYS379     -0.2718
    102  CB        46.7000    2.4730    9.1740 C.3   379  LYS379      0.0285
    103  CG        46.0730    1.3570    8.3760 C.3   379  LYS379      0.0035
    104  CD        46.6990    0.0150    8.6900 C.3   379  LYS379      0.0206
    105  CE        46.0260   -1.0630    7.8760 C.3   379  LYS379      0.1093
    106  NZ        45.8230   -0.5880    6.4860 N.3   379  LYS379     -0.1314
    107  N         45.3390    4.4140    6.5720 N.am  380  ASN380     -0.1974
    108  CA        45.5040    4.7760    5.1620 C.3   380  ASN380      0.1688
    109  C         45.8920    6.2490    5.0510 C.2   380  ASN380      0.2292
    110  O         45.0370    7.1340    5.1080 O.2   380  ASN380     -0.2864
    111  CB        44.2230    4.4900    4.3690 C.3   380  ASN380      0.1181
    112  CG        44.4230    4.6090    2.8530 C.2   380  ASN380      0.2629
    113  OD1       45.1390    5.4850    2.3680 O.2   380  ASN380     -0.2716
    114  ND2       43.7860    3.7170    2.1060 N.am  380  ASN380     -0.0877
    115  N         44.3870    8.3730    2.0410 N.3   383  TRP383     -0.1241
    116  CA        43.0460    8.7730    2.4510 C.3   383  TRP383      0.1605
    117  C         43.1290    9.8960    3.4980 C.2   383  TRP383      0.2264
    118  O         42.3890   10.8810    3.4260 O.2   383  TRP383     -0.2867
    119  CB        42.2810    7.5570    2.9940 C.3   383  TRP383      0.0550
    120  CG        40.8030    7.7600    3.1580 C.ar  383  TRP383      0.0003
    121  CD1       40.0940    8.8920    2.8800 C.ar  383  TRP383      0.0946
    122  CD2       39.8530    6.7940    3.6250 C.ar  383  TRP383      0.0152
    123  NE1       38.7600    8.6910    3.1470 N.ar  383  TRP383     -0.2442
    124  CE2       38.5860    7.4120    3.6060 C.ar  383  TRP383      0.0810
    125  CE3       39.9490    5.4590    4.0430 C.ar  383  TRP383      0.0012
    126  CZ2       37.4230    6.7490    4.0070 C.ar  383  TRP383      0.0191
    127  CZ3       38.7920    4.8000    4.4370 C.ar  383  TRP383      0.0001
    128  CH2       37.5470    5.4450    4.4170 C.ar  383  TRP383      0.0015
@<TRIPOS>BOND
     1    78    79    1
     2    37    36    2
     3    79    80    1
     4    79    82    1
     5    80    81    2
     6    82    83    1
     7    45    44    2
     8    61    62    1
     9    83    84    1
    10    83    85    1
    11    72    71    2
    12    41    39    1
    13    68    66    1
    14    64    63    2
    15    44    43    1
    16    36    35    1
    17    36    42   am
    18    62    63    1
    19    62    65    1
    20    71    70    1
    21    35    34    1
    22    35    38    1
    23    63    69   am
    24    66    65    1
    25    66    67    1
    26    42    43    1
    27    69    70    1
    28    38    39    1
    29    43    46    1
    30    39    40    1
    31    70    73    1
    32    32    31    2
    33    73    74    1
    34    31    30    1
    35    53    54    1
    36    56    55    2
    37    46    47    1
    38    55    54    1
    39    47    48    1
    40   115   116    1
    41   114   112   am
    42    54    57    1
    43   113   112    2
    44   116   119    1
    45   116   117    1
    46    28    27    2
    47    74    75    1
    48   112   111    1
    49   121   123   ar
    50   121   120   ar
    51   119   120    1
    52    30    33    1
    53    30    29    1
    54    76    75   ar
    55   123   124   ar
    56   120   122   ar
    57    48    49    1
    58    27    29   am
    59    27    26    1
    60   118   117    2
    61   124   122   ar
    62   124   126   ar
    63    75    77   ar
    64   122   125   ar
    65    57    58    1
    66    49    50    2
    67    59    58   ar
    68    26    25    1
    69   126   128   ar
    70   125   127   ar
    71   111   108    1
    72   128   127   ar
    73    58    60   ar
    74   109   110    2
    75   109   108    1
    76    50    52    1
    77    50    51    1
    78   108   107    1
    79    22    21    2
    80   106   105    1
    81   107   100   am
    82   101   100    2
    83    21    20    1
    84    97    96    2
    85    18    17    2
    86    95    96    1
    87    95    94    1
    88   100    99    1
    89    20    23    1
    90    20    19    1
    91    14    12    1
    92    13    12    1
    93   105   104    1
    94    23    24    1
    95    93    92    2
    96    94    92   am
    97    17    19   am
    98    17    16    1
    99    12    11    1
   100    11     8    1
   101   103   104    1
   102   103   102    1
   103    92    91    1
   104    10     9    2
   105    99    98    1
   106    99   102    1
   107     9     8    1
   108     9    15   am
   109     8     7    1
   110    15    16    1
   111    91    90    1
   112    90    88   am
   113     7     3   am
   114     4     3    2
   115     3     2    1
   116    89    88    2
   117    88    87    1
   118    87    86    1
   119     2     1    1
   120     2     5    1
   121     6     5    1
