@<TRIPOS>MOLECULE
tmp/5hv1A00.pdb
 210 199 0 0 0
SMALL
GASTEIGER

@<TRIPOS>ATOM
      1  N        -51.5280   47.6820   15.9930 N.3    22  LYS22      -0.1245
      2  CA       -51.4160   47.1930   17.3580 C.3    22  LYS22       0.1561
      3  C        -52.7200   46.5380   17.7910 C.2    22  LYS22       0.2260
      4  O        -52.7270   45.4280   18.3330 O.2    22  LYS22      -0.2867
      5  CB       -51.0540   48.3380   18.2970 C.3    22  LYS22       0.0271
      6  CG       -50.7570   47.9040   19.7110 C.3    22  LYS22       0.0035
      7  CD       -50.4370   49.1200   20.5440 C.3    22  LYS22       0.0206
      8  CE       -49.1510   49.7220   20.0540 C.3    22  LYS22       0.1093
      9  NZ       -48.9610   51.1160   20.5130 N.3    22  LYS22      -0.1314
     10  N        -54.6290   40.6230   28.0920 N.3    38  PRO38      -0.2116
     11  CA       -55.4910   41.3530   29.0250 C.3    38  PRO38       0.1372
     12  C        -56.6640   41.9730   28.2910 C.2    38  PRO38       0.2244
     13  O        -56.4760   42.5550   27.2250 O.2    38  PRO38      -0.2868
     14  CB       -54.5640   42.4220   29.6070 C.3    38  PRO38       0.0268
     15  CG       -53.1930   41.8580   29.4380 C.3    38  PRO38       0.0207
     16  CD       -53.2360   41.0930   28.1490 C.3    38  PRO38       0.0892
     17  N        -54.3480   50.7400   30.3600 N.3   115  ALA115     -0.1245
     18  CA       -53.3420   51.2800   29.4730 C.3   115  ALA115      0.1562
     19  C        -54.0720   51.9700   28.3320 C.2   115  ALA115      0.2260
     20  O        -55.1080   51.4900   27.8670 O.2   115  ALA115     -0.2867
     21  CB       -52.4140   50.1870   28.9570 C.3   115  ALA115      0.0290
     22  N        -53.2050   53.2570   24.6530 N.3   117  ARG117     -0.1231
     23  CA       -52.1190   53.0340   23.7160 C.3   117  ARG117      0.1694
     24  C        -52.4940   53.4080   22.2890 C.2   117  ARG117      0.2592
     25  O        -53.5500   53.0150   21.7920 O.2   117  ARG117     -0.2718
     26  CB       -51.6870   51.5650   23.7720 C.3   117  ARG117      0.0321
     27  CG       -51.5460   51.0000   25.1810 C.3   117  ARG117      0.0489
     28  CD       -51.5100   49.4780   25.1630 C.3   117  ARG117      0.2205
     29  NE       -50.3330   48.9720   24.4650 N.pl3 117  ARG117     -0.0865
     30  CZ       -50.1090   47.6890   24.2150 C.cat 117  ARG117      0.5346
     31  NH1      -50.9860   46.7760   24.5960 N.pl3 117  ARG117      0.1354
     32  NH2      -49.0080   47.3250   23.5780 N.pl3 117  ARG117      0.1354
     33  N        -51.6150   54.1590   21.6290 N.am  118  SER118     -0.1952
     34  CA       -51.8350   54.5480   20.2390 C.3   118  SER118      0.1924
     35  C        -51.8040   53.3310   19.3170 C.2   118  SER118      0.2314
     36  O        -51.0920   52.3570   19.5670 O.2   118  SER118     -0.2863
     37  CB       -50.7920   55.5740   19.7870 C.3   118  SER118      0.2116
     38  OG       -49.5790   54.9440   19.4220 O.3   118  SER118     -0.2180
     39  N        -45.6530   51.9800   12.5150 N.3   130  PHE130     -0.1227
     40  CA       -45.3290   53.2700   13.1060 C.3   130  PHE130      0.1736
     41  C        -44.6910   53.0160   14.4620 C.2   130  PHE130      0.2595
     42  O        -44.9900   53.6880   15.4480 O.2   130  PHE130     -0.2718
     43  CB       -46.5730   54.1450   13.2310 C.3   130  PHE130      0.0547
     44  CG       -47.1750   54.5330   11.9130 C.ar  130  PHE130     -0.0202
     45  CD1      -48.0670   53.6930   11.2660 C.ar  130  PHE130     -0.0042
     46  CD2      -46.8540   55.7440   11.3260 C.ar  130  PHE130     -0.0042
     47  CE1      -48.6270   54.0550   10.0550 C.ar  130  PHE130     -0.0003
     48  CE2      -47.4080   56.1130   10.1170 C.ar  130  PHE130     -0.0003
     49  CZ       -48.2960   55.2690    9.4800 C.ar  130  PHE130     -0.0000
     50  N        -43.8210   52.0100   14.4860 N.am  131  ALA131     -0.1966
     51  CA       -43.1670   51.5670   15.7040 C.3   131  ALA131      0.1728
     52  C        -42.4120   52.7110   16.3450 C.2   131  ALA131      0.2617
     53  O        -41.6590   53.4190   15.6760 O.2   131  ALA131     -0.2715
     54  CB       -42.2300   50.4050   15.4230 C.3   131  ALA131      0.0334
     55  N        -42.6410   52.8960   17.6410 N.am  132  GLY132     -0.1940
     56  CA       -41.9570   53.9110   18.4180 C.3   132  GLY132      0.2014
     57  C        -42.2360   55.3330   17.9740 C.2   132  GLY132      0.2639
     58  O        -41.3910   56.2070   18.1510 O.2   132  GLY132     -0.2714
     59  N        -43.4210   55.5760   17.4200 N.am  133  GLN133     -0.1963
     60  CA       -43.7340   56.8830   16.8460 C.3   133  GLN133      0.1733
     61  C        -44.7190   57.7030   17.6760 C.2   133  GLN133      0.2616
     62  O        -44.6520   58.9320   17.6850 O.2   133  GLN133     -0.2715
     63  CB       -44.2880   56.7130   15.4320 C.3   133  GLN133      0.0408
     64  CG       -43.6640   57.6430   14.4150 C.3   133  GLN133      0.0908
     65  CD       -42.1470   57.5520   14.4000 C.2   133  GLN133      0.2608
     66  OE1      -41.5700   56.4640   14.4810 O.2   133  GLN133     -0.2717
     67  NE2      -41.4920   58.7020   14.3060 N.am  133  GLN133     -0.0878
     68  N        -45.6280   57.0290   18.3720 N.am  134  HIS134     -0.1959
     69  CA       -46.7060   57.7240   19.0720 C.3   134  HIS134      0.1787
     70  C        -46.8210   57.3090   20.5500 C.2   134  HIS134      0.2620
     71  O        -46.1420   56.3790   20.9960 O.2   134  HIS134     -0.2715
     72  CB       -48.0200   57.4860   18.3240 C.3   134  HIS134      0.0785
     73  CG       -47.9000   57.6630   16.8420 C.ar  134  HIS134      0.0821
     74  ND1      -48.2290   56.6740   15.9400 N.ar  134  HIS134     -0.2267
     75  CD2      -47.4640   58.7120   16.1060 C.ar  134  HIS134      0.1154
     76  CE1      -48.0070   57.1090   14.7120 C.ar  134  HIS134      0.1986
     77  NE2      -47.5430   58.3430   14.7850 N.ar  134  HIS134     -0.2212
     78  N        -47.6890   57.9960   21.2960 N.am  135  ASP135     -0.1957
     79  CA       -47.7330   57.8930   22.7600 C.3   135  ASP135      0.1840
     80  C        -48.5220   56.7210   23.3410 C.2   135  ASP135      0.2622
     81  O        -49.4690   56.2030   22.7420 O.2   135  ASP135     -0.2715
     82  CB       -48.3190   59.1760   23.3620 C.3   135  ASP135      0.1450
     83  CG       -47.3890   60.3740   23.2400 C.2   135  ASP135      0.3671
     84  OD1      -46.2450   60.2140   22.7680 O.co2 135  ASP135     -0.2456
     85  OD2      -47.8110   61.4860   23.6250 O.co2 135  ASP135     -0.2456
     86  N        -48.1150   56.3340   24.5440 N.am  136  THR136     -0.1951
     87  CA       -48.8880   55.4390   25.3780 C.3   136  THR136      0.1897
     88  C        -48.7950   55.9490   26.8010 C.2   136  THR136      0.2313
     89  O        -47.7470   56.4270   27.2420 O.2   136  THR136     -0.2863
     90  CB       -48.3940   53.9910   25.3060 C.3   136  THR136      0.1794
     91  OG1      -48.8350   53.4040   24.0770 O.3   136  THR136     -0.2208
     92  CG2      -48.9390   53.1640   26.4730 C.3   136  THR136      0.0378
     93  N        -49.7680   54.7300   30.7940 N.3   138  LEU138     -0.1245
     94  CA       -50.1130   53.5510   31.5740 C.3   138  LEU138      0.1561
     95  C        -50.8810   53.9070   32.8420 C.2   138  LEU138      0.2260
     96  O        -50.7470   55.0070   33.3870 O.2   138  LEU138     -0.2867
     97  CB       -48.8460   52.7680   31.9300 C.3   138  LEU138      0.0270
     98  CG       -48.0280   52.2110   30.7600 C.3   138  LEU138      0.0019
     99  CD1      -46.6920   51.6600   31.2370 C.3   138  LEU138      0.0001
    100  CD2      -48.8210   51.1290   30.0570 C.3   138  LEU138      0.0001
    101  N        -56.8590   49.1080   27.4540 N.3   183  GLN183     -0.1231
    102  CA       -56.6180   47.7460   27.9230 C.3   183  GLN183      0.1698
    103  C        -56.3470   47.6540   29.4190 C.2   183  GLN183      0.2592
    104  O        -55.6430   48.4910   29.9770 O.2   183  GLN183     -0.2718
    105  CB       -55.4390   47.1470   27.1580 C.3   183  GLN183      0.0381
    106  CG       -55.0400   45.7650   27.6070 C.3   183  GLN183      0.0905
    107  CD       -53.9210   45.2060   26.7740 C.2   183  GLN183      0.2608
    108  OE1      -52.9870   45.9190   26.4170 O.2   183  GLN183     -0.2717
    109  NE2      -54.0190   43.9270   26.4340 N.am  183  GLN183     -0.0878
    110  N        -56.9130   46.6280   30.0540 N.am  184  GLN184     -0.1966
    111  CA       -56.6720   46.3430   31.4690 C.3   184  GLN184      0.1733
    112  C        -55.1800   46.3210   31.7720 C.2   184  GLN184      0.2616
    113  O        -54.3980   45.6960   31.0610 O.2   184  GLN184     -0.2715
    114  CB       -57.2950   44.9970   31.8800 C.3   184  GLN184      0.0408
    115  CG       -58.8170   44.9850   32.0580 C.3   184  GLN184      0.0908
    116  CD       -59.3400   43.6100   32.4630 C.2   184  GLN184      0.2608
    117  OE1      -58.5650   42.6670   32.6240 O.2   184  GLN184     -0.2717
    118  NE2      -60.6540   43.4910   32.6230 N.am  184  GLN184     -0.0878
    119  N        -54.7840   47.0170   32.8260 N.am  185  MET185     -0.1963
    120  CA       -53.3900   47.0080   33.2230 C.3   185  MET185      0.1736
    121  C        -53.0200   45.6850   33.8650 C.2   185  MET185      0.2616
    122  O        -53.7950   45.1080   34.6230 O.2   185  MET185     -0.2715
    123  CB       -53.0910   48.1510   34.1910 C.3   185  MET185      0.0427
    124  CG       -53.0010   49.5120   33.5370 C.3   185  MET185      0.0599
    125  SD       -51.5540   49.7260   32.4880 S.3   185  MET185     -0.1393
    126  CE       -50.2880   49.1720   33.6290 C.3   185  MET185      0.0692
    127  N        -51.8350   45.1940   33.5410 N.am  186  ILE186     -0.1977
    128  CA       -51.2210   44.1590   34.3500 C.3   186  ILE186      0.1596
    129  C        -50.2770   44.8590   35.3200 C.2   186  ILE186      0.2287
    130  O        -49.6190   45.8210   34.9430 O.2   186  ILE186     -0.2864
    131  CB       -50.4510   43.1340   33.5030 C.3   186  ILE186      0.0276
    132  CG1      -51.3990   42.4110   32.5390 C.3   186  ILE186      0.0022
    133  CG2      -49.7420   42.1370   34.4000 C.3   186  ILE186      0.0022
    134  CD1      -52.4610   41.5790   33.2320 C.3   186  ILE186      0.0001
    135  N        -41.4010   42.2290   33.0260 N.3   191  SER191     -0.1217
    136  CA       -41.9250   42.5110   31.6980 C.3   191  SER191      0.1889
    137  C        -40.7770   42.6330   30.7270 C.2   191  SER191      0.2288
    138  O        -39.6250   42.7620   31.1330 O.2   191  SER191     -0.2866
    139  CB       -42.7480   43.7960   31.6870 C.3   191  SER191      0.2089
    140  OG       -41.9510   44.8940   32.0870 O.3   191  SER191     -0.2183
    141  N        -42.8360   47.4170   35.3650 N.3   215  LEU215     -0.1231
    142  CA       -43.5260   47.7290   34.1130 C.3   215  LEU215      0.1693
    143  C        -42.5640   47.9220   32.9520 C.2   215  LEU215      0.2593
    144  O        -41.4190   48.3470   33.1240 O.2   215  LEU215     -0.2718
    145  CB       -44.3960   48.9810   34.2660 C.3   215  LEU215      0.0284
    146  CG       -45.7470   48.8200   34.9610 C.3   215  LEU215      0.0019
    147  CD1      -46.3030   50.1700   35.3660 C.3   215  LEU215      0.0001
    148  CD2      -46.7210   48.1080   34.0460 C.3   215  LEU215      0.0001
    149  N        -43.0580   47.6280   31.7590 N.am  216  GLY216     -0.1942
    150  CA       -42.2140   47.5830   30.5870 C.3   216  GLY216      0.2014
    151  C        -41.7810   48.9210   30.0350 C.2   216  GLY216      0.2638
    152  O        -40.9540   48.9690   29.1290 O.2   216  GLY216     -0.2714
    153  N        -42.3250   50.0070   30.5680 N.am  217  GLU217     -0.1977
    154  CA       -42.0470   51.3250   30.0030 C.3   217  GLU217      0.1602
    155  C        -40.5800   51.7350   30.1320 C.2   217  GLU217      0.2287
    156  O        -40.0460   52.4380   29.2710 O.2   217  GLU217     -0.2864
    157  CB       -42.9380   52.3910   30.6470 C.3   217  GLU217      0.0415
    158  CG       -42.7580   53.8010   30.0590 C.3   217  GLU217      0.1163
    159  CD       -43.2430   53.9440   28.6150 C.2   217  GLU217      0.3649
    160  OE1      -43.6720   52.9410   28.0010 O.co2 217  GLU217     -0.2457
    161  OE2      -43.1930   55.0800   28.0950 O.co2 217  GLU217     -0.2457
    162  N        -38.2840   50.2510   27.4230 N.3   220  VAL220     -0.1245
    163  CA       -38.6720   50.7070   26.0870 C.3   220  VAL220      0.1561
    164  C        -38.4120   52.2090   25.8120 C.2   220  VAL220      0.2260
    165  O        -38.3890   52.6390   24.6500 O.2   220  VAL220     -0.2867
    166  CB       -40.1800   50.3630   25.8450 C.3   220  VAL220      0.0252
    167  CG1      -41.0080   51.5830   25.4260 C.3   220  VAL220      0.0019
    168  CG2      -40.3160   49.2230   24.8450 C.3   220  VAL220      0.0019
    169  N        -44.2860   41.6320   23.0460 N.3   297  GLU297     -0.1245
    170  CA       -44.1990   42.2060   24.3860 C.3   297  GLU297      0.1567
    171  C        -44.9470   41.3480   25.3940 C.2   297  GLU297      0.2260
    172  O        -46.0030   40.7950   25.1000 O.2   297  GLU297     -0.2867
    173  CB       -44.7510   43.6270   24.4020 C.3   297  GLU297      0.0388
    174  CG       -43.8670   44.6140   25.1490 C.3   297  GLU297      0.1160
    175  CD       -43.4540   45.7850   24.2830 C.2   297  GLU297      0.3649
    176  OE1      -42.3820   46.3720   24.5340 O.co2 297  GLU297     -0.2457
    177  OE2      -44.2060   46.1190   23.3460 O.co2 297  GLU297     -0.2457
    178  N        -45.7720   40.2790   29.8540 N.3   299  CYS299     -0.1235
    179  CA       -45.7860   40.5910   31.2720 C.3   299  CYS299      0.1677
    180  C        -45.8090   39.3140   32.1040 C.2   299  CYS299      0.2270
    181  O        -46.4850   38.3410   31.7600 O.2   299  CYS299     -0.2867
    182  CB       -46.9950   41.4690   31.6190 C.3   299  CYS299      0.0956
    183  SG       -46.9630   43.1460   30.9220 S.3   299  CYS299     -0.0801
    184  N        -48.9740   41.3090   25.3800 N.3   308  VAL308     -0.1231
    185  CA       -49.4520   42.6720   25.4400 C.3   308  VAL308      0.1692
    186  C        -49.1620   43.3820   24.1300 C.2   308  VAL308      0.2591
    187  O        -49.7310   44.4270   23.8380 O.2   308  VAL308     -0.2718
    188  CB       -48.8240   43.4010   26.6650 C.3   308  VAL308      0.0266
    189  CG1      -48.0700   44.6640   26.2830 C.3   308  VAL308      0.0020
    190  CG2      -49.8940   43.6960   27.7120 C.3   308  VAL308      0.0020
    191  N        -48.2980   42.7830   23.3200 N.am  309  GLN309     -0.1979
    192  CA       -48.1270   43.2060   21.9280 C.3   309  GLN309      0.1601
    193  C        -47.4620   42.1340   21.0670 C.2   309  GLN309      0.2287
    194  O        -46.5950   41.3970   21.5250 O.2   309  GLN309     -0.2864
    195  CB       -47.3060   44.4890   21.8500 C.3   309  GLN309      0.0394
    196  CG       -47.2820   45.1340   20.4630 C.3   309  GLN309      0.0908
    197  CD       -46.6690   46.5200   20.4760 C.2   309  GLN309      0.2608
    198  OE1      -46.2770   47.0260   21.5230 O.2   309  GLN309     -0.2717
    199  NE2      -46.5890   47.1410   19.3140 N.am  309  GLN309     -0.0878
    200  N        -46.0850   41.6540   16.7930 N.3   311  ARG311     -0.1245
    201  CA       -45.7290   42.4740   15.6550 C.3   311  ARG311      0.1563
    202  C        -44.6400   41.7810   14.8330 C.2   311  ARG311      0.2260
    203  O        -43.6420   41.3420   15.3820 O.2   311  ARG311     -0.2867
    204  CB       -45.2910   43.8480   16.1750 C.3   311  ARG311      0.0307
    205  CG       -44.2500   44.5790   15.3770 C.3   311  ARG311      0.0489
    206  CD       -44.1250   46.0390   15.8490 C.3   311  ARG311      0.2205
    207  NE       -43.2680   46.2090   17.0240 N.pl3 311  ARG311     -0.0865
    208  CZ       -43.2480   47.3040   17.7830 C.cat 311  ARG311      0.5346
    209  NH1      -44.0470   48.3280   17.5030 N.pl3 311  ARG311      0.1354
    210  NH2      -42.4360   47.3720   18.8300 N.pl3 311  ARG311      0.1354
@<TRIPOS>BOND
     1    49    47   ar
     2    49    48   ar
     3    47    45   ar
     4    48    46   ar
     5    45    44   ar
     6    46    44   ar
     7    44    43    1
     8    39    40    1
     9    40    43    1
    10    40    41    1
    11    67    65   am
    12    65    64    1
    13    65    66    2
    14    64    63    1
    15    41    50   am
    16    41    42    2
    17    50    51    1
    18    76    77   ar
    19    76    74   ar
    20    77    75   ar
    21   202   203    2
    22   202   201    1
    23   205   206    1
    24   205   204    1
    25    54    51    1
    26    63    60    1
    27   201   204    1
    28   201   200    1
    29    53    52    2
    30    51    52    1
    31   206   207    1
    32    74    73   ar
    33     1     2    1
    34    75    73   ar
    35    52    55   am
    36    73    72    1
    37    60    59    1
    38    60    61    1
    39   207   208    2
    40     2     3    1
    41     2     5    1
    42    59    57   am
    43   209   208    1
    44    55    56    1
    45    61    62    2
    46    61    68   am
    47   208   210    1
    48     3     4    2
    49    57    58    2
    50    57    56    1
    51     5     6    1
    52    72    69    1
    53    68    69    1
    54    69    70    1
    55   199   197   am
    56    35    36    2
    57    35    34    1
    58    38    37    1
    59     6     7    1
    60    37    34    1
    61     8     9    1
    62     8     7    1
    63    34    33    1
    64   196   197    1
    65   196   195    1
    66   197   198    2
    67    70    71    2
    68    70    78   am
    69   193   194    2
    70   193   192    1
    71    78    79    1
    72    33    24   am
    73    25    24    2
    74   195   192    1
    75   192   191    1
    76    24    23    1
    77    81    80    2
    78    79    80    1
    79    79    82    1
    80    84    83   ar
    81   169   170    1
    82    83    82    1
    83    83    85   ar
    84   191   186   am
    85    80    86   am
    86   177   175   ar
    87    32    30    1
    88    23    26    1
    89    23    22    1
    90    26    27    1
    91   187   186    2
    92    91    90    1
    93   186   185    1
    94    30    29    2
    95    30    31    1
    96   175   176   ar
    97   175   174    1
    98   170   173    1
    99   170   171    1
   100   173   174    1
   101    29    28    1
   102    86    87    1
   103   165   164    2
   104   168   166    1
   105   172   171    2
   106    28    27    1
   107    90    87    1
   108    90    92    1
   109    87    88    1
   110   184   185    1
   111   167   166    1
   112   185   188    1
   113   164   163    1
   114   166   163    1
   115   163   162    1
   116   189   188    1
   117   108   107    2
   118   109   107   am
   119   188   190    1
   120   107   106    1
   121    88    89    2
   122   105   106    1
   123   105   102    1
   124    13    12    2
   125   101   102    1
   126    20    19    2
   127   102   103    1
   128   160   159   ar
   129    10    16    1
   130    10    11    1
   131   161   159   ar
   132    16    15    1
   133    12    11    1
   134    19    18    1
   135   159   158    1
   136    21    18    1
   137    11    14    1
   138   152   151    2
   139   156   155    2
   140   103   104    2
   141   103   110   am
   142    15    14    1
   143    18    17    1
   144   178   179    1
   145   154   155    1
   146   154   153    1
   147   154   157    1
   148   151   153   am
   149   151   150    1
   150   110   111    1
   151   100    98    1
   152   158   157    1
   153   150   149    1
   154   137   138    2
   155   137   136    1
   156    98    99    1
   157    98    97    1
   158    93    94    1
   159   183   182    1
   160   113   112    2
   161   179   182    1
   162   179   180    1
   163   111   112    1
   164   111   114    1
   165    94    97    1
   166    94    95    1
   167   139   136    1
   168   139   140    1
   169   136   135    1
   170   149   143   am
   171   181   180    2
   172   112   119   am
   173   114   115    1
   174   115   116    1
   175   116   118   am
   176   116   117    2
   177   125   124    1
   178   125   126    1
   179   132   134    1
   180   132   131    1
   181   119   120    1
   182    95    96    2
   183   143   144    2
   184   143   142    1
   185   120   121    1
   186   120   123    1
   187   131   128    1
   188   131   133    1
   189   124   123    1
   190   127   121   am
   191   127   128    1
   192   121   122    2
   193   148   146    1
   194   142   145    1
   195   142   141    1
   196   145   146    1
   197   128   129    1
   198   130   129    2
   199   146   147    1
