@<TRIPOS>MOLECULE
tmp/5hv1A01.pdb
 229 215 0 0 0
SMALL
GASTEIGER

@<TRIPOS>ATOM
      1  N        -23.4120   29.2400   -0.2400 N.3   331  ILE331     -0.1231
      2  CA       -22.2930   30.1340   -0.4600 C.3   331  ILE331      0.1692
      3  C        -22.6880   31.3890   -1.2270 C.2   331  ILE331      0.2593
      4  O        -23.4980   31.3160   -2.1580 O.2   331  ILE331     -0.2718
      5  CB       -21.2420   29.4000   -1.2330 C.3   331  ILE331      0.0266
      6  CG1      -20.1360   28.9860   -0.3110 C.3   331  ILE331      0.0019
      7  CG2      -20.6660   30.2230   -2.3600 C.3   331  ILE331      0.0020
      8  CD1      -19.1990   28.0710   -1.0090 C.3   331  ILE331      0.0001
      9  N        -22.0950   32.5240   -0.9020 N.am  332  SER332     -0.1938
     10  CA       -22.5730   33.7430   -1.5090 C.3   332  SER332      0.2055
     11  C        -21.9500   34.0920   -2.8570 C.2   332  SER332      0.2642
     12  O        -20.7490   34.2540   -2.9710 O.2   332  SER332     -0.2714
     13  CB       -22.3530   34.8700   -0.5360 C.3   332  SER332      0.2130
     14  OG       -22.7010   36.0990   -1.1110 O.3   332  SER332     -0.2179
     15  N        -22.7700   34.2390   -3.8850 N.am  333  VAL333     -0.1977
     16  CA       -22.2360   34.6320   -5.1870 C.3   333  VAL333      0.1596
     17  C        -21.6830   36.0460   -5.1730 C.2   333  VAL333      0.2287
     18  O        -20.7180   36.3510   -5.8400 O.2   333  VAL333     -0.2864
     19  CB       -23.2930   34.5590   -6.2700 C.3   333  VAL333      0.0276
     20  CG1      -22.6990   34.8970   -7.5980 C.3   333  VAL333      0.0022
     21  CG2      -23.8660   33.2020   -6.3110 C.3   333  VAL333      0.0022
     22  N        -17.8870   36.5790   -4.5450 N.3   336  GLN336     -0.1231
     23  CA       -16.9090   36.1480   -5.5120 C.3   336  GLN336      0.1698
     24  C        -16.9990   37.0170   -6.7520 C.2   336  GLN336      0.2592
     25  O        -16.0170   37.1880   -7.4900 O.2   336  GLN336     -0.2718
     26  CB       -17.0970   34.6820   -5.8320 C.3   336  GLN336      0.0381
     27  CG       -16.3940   33.7720   -4.8320 C.3   336  GLN336      0.0905
     28  CD       -14.8600   33.8680   -4.9140 C.2   336  GLN336      0.2608
     29  OE1      -14.2020   34.3410   -3.9770 O.2   336  GLN336     -0.2717
     30  NE2      -14.2870   33.4080   -6.0360 N.am  336  GLN336     -0.0878
     31  N        -18.1550   37.6300   -6.9460 N.am  337  GLN337     -0.1979
     32  CA       -18.3560   38.4220   -8.1270 C.3   337  GLN337      0.1601
     33  C        -18.0340   39.8660   -7.8800 C.2   337  GLN337      0.2287
     34  O        -18.1460   40.6890   -8.7730 O.2   337  GLN337     -0.2864
     35  CB       -19.7810   38.2970   -8.5980 C.3   337  GLN337      0.0394
     36  CG       -19.8950   38.4980  -10.0590 C.3   337  GLN337      0.0908
     37  CD       -19.7210   37.2130  -10.7370 C.2   337  GLN337      0.2608
     38  OE1      -19.9680   36.1910  -10.1320 O.2   337  GLN337     -0.2717
     39  NE2      -19.2720   37.2290  -11.9880 N.am  337  GLN337     -0.0878
     40  N        -29.4540   35.5310  -14.6210 N.3   351  TYR351     -0.1241
     41  CA       -28.2090   34.9330  -14.1620 C.3   351  TYR351      0.1605
     42  C        -28.4740   33.4870  -13.8610 C.2   351  TYR351      0.2264
     43  O        -27.6480   32.6270  -14.1090 O.2   351  TYR351     -0.2867
     44  CB       -27.6640   35.6400  -12.9260 C.3   351  TYR351      0.0534
     45  CG       -26.2110   35.3730  -12.6780 C.ar  351  TYR351     -0.0201
     46  CD1      -25.2540   36.3100  -12.9720 C.ar  351  TYR351     -0.0009
     47  CD2      -25.7960   34.1810  -12.1590 C.ar  351  TYR351     -0.0009
     48  CE1      -23.9310   36.0640  -12.7370 C.ar  351  TYR351      0.0417
     49  CE2      -24.4760   33.9230  -11.9260 C.ar  351  TYR351      0.0417
     50  CZ       -23.5470   34.8670  -12.2110 C.ar  351  TYR351      0.1957
     51  OH       -22.2250   34.6080  -11.9680 O.3   351  TYR351     -0.2866
     52  N        -28.5740   31.3000  -16.8560 N.3   354  THR354     -0.1203
     53  CA       -27.2940   31.0290  -17.5220 C.3   354  THR354      0.1994
     54  C        -26.2520   30.2600  -16.7040 C.2   354  THR354      0.2619
     55  O        -25.1530   30.0880  -17.1590 O.2   354  THR354     -0.2717
     56  CB       -26.6290   32.3430  -18.0110 C.3   354  THR354      0.1784
     57  OG1      -25.2770   32.0880  -18.4210 O.3   354  THR354     -0.2211
     58  CG2      -26.5700   33.3100  -16.9250 C.3   354  THR354      0.0376
     59  N        -26.5740   29.7640  -15.5250 N.am  355  THR355     -0.1939
     60  CA       -25.5600   29.0370  -14.7770 C.3   355  THR355      0.2013
     61  C        -25.8550   27.5320  -14.5680 C.2   355  THR355      0.2484
     62  O        -27.0070   27.1240  -14.3490 O.2   355  THR355     -0.2729
     63  CB       -25.3330   29.7120  -13.4180 C.3   355  THR355      0.1807
     64  OG1      -24.0330   29.3780  -12.9150 O.3   355  THR355     -0.2208
     65  CG2      -26.4050   29.3260  -12.4170 C.3   355  THR355      0.0379
     66  N        -24.8030   26.6930  -14.6370 N.am  356  PRO356     -0.2715
     67  CA       -24.9920   25.2800  -14.4110 C.3   356  PRO356      0.1536
     68  C        -24.6890   24.9500  -12.9640 C.2   356  PRO356      0.2598
     69  O        -24.4210   23.8070  -12.6310 O.2   356  PRO356     -0.2715
     70  CB       -23.9740   24.6540  -15.3570 C.3   356  PRO356      0.0310
     71  CG       -22.9810   25.7390  -15.6280 C.3   356  PRO356      0.0237
     72  CD       -23.3840   26.9510  -14.8750 C.3   356  PRO356      0.0939
     73  N        -24.7170   25.9580  -12.1100 N.am  357  ALA357     -0.1978
     74  CA       -24.5240   25.7550  -10.6910 C.3   357  ALA357      0.1597
     75  C        -25.8800   25.5920  -10.0960 C.2   357  ALA357      0.2287
     76  O        -26.8660   25.8730  -10.7530 O.2   357  ALA357     -0.2864
     77  CB       -23.8190   26.9030  -10.0840 C.3   357  ALA357      0.0319
     78  N        -27.7890   27.4200   -8.2220 N.3   359  MET359     -0.1245
     79  CA       -27.8700   28.7260   -7.6030 C.3   359  MET359      0.1570
     80  C        -29.2700   28.9400   -7.1600 C.2   359  MET359      0.2261
     81  O        -30.1810   28.5410   -7.8380 O.2   359  MET359     -0.2867
     82  CB       -27.4360   29.8420   -8.5670 C.3   359  MET359      0.0387
     83  CG       -26.2150   30.6380   -8.1380 C.3   359  MET359      0.0595
     84  SD       -25.6780   31.6250   -9.4650 S.3   359  MET359     -0.1393
     85  CE       -27.1400   32.4690   -9.6490 C.3   359  MET359      0.0692
     86  N        -25.1290   29.8740   -3.8820 N.3   368  VAL368     -0.1245
     87  CA       -24.9720   28.5400   -4.4540 C.3   368  VAL368      0.1561
     88  C        -25.1570   27.5100   -3.3650 C.2   368  VAL368      0.2260
     89  O        -24.5960   27.6550   -2.2830 O.2   368  VAL368     -0.2867
     90  CB       -23.6070   28.3130   -5.1030 C.3   368  VAL368      0.0252
     91  CG1      -23.4690   26.8880   -5.4810 C.3   368  VAL368      0.0019
     92  CG2      -23.4250   29.1760   -6.3230 C.3   368  VAL368      0.0019
     93  N        -24.3890   24.2080   -1.7670 N.3   370  ILE370     -0.1245
     94  CA       -23.3400   23.2190   -1.8900 C.3   370  ILE370      0.1561
     95  C        -23.2450   22.2760   -0.7180 C.2   370  ILE370      0.2260
     96  O        -22.1790   22.0470   -0.1590 O.2   370  ILE370     -0.2867
     97  CB       -22.0110   23.8920   -2.0970 C.3   370  ILE370      0.0252
     98  CG1      -21.8120   24.9960   -1.0710 C.3   370  ILE370      0.0019
     99  CG2      -21.9470   24.4400   -3.5080 C.3   370  ILE370      0.0019
    100  CD1      -20.8490   24.6630    0.0140 C.3   370  ILE370      0.0001
    101  N        -13.6570   20.4850   -1.7890 N.3   383  MET383     -0.1245
    102  CA       -14.1340   21.8140   -1.9090 C.3   383  MET383      0.1570
    103  C        -13.5470   22.7690   -0.9000 C.2   383  MET383      0.2261
    104  O        -13.1930   23.8570   -1.2840 O.2   383  MET383     -0.2867
    105  CB       -15.6320   21.8450   -1.7810 C.3   383  MET383      0.0387
    106  CG       -16.1360   23.1760   -2.1150 C.3   383  MET383      0.0595
    107  SD       -17.2520   23.0810   -3.4880 S.3   383  MET383     -0.1393
    108  CE       -18.6460   23.6580   -2.6210 C.3   383  MET383      0.0692
    109  N        -10.0970   23.8100   -1.9100 N.3   386  SER386     -0.1202
    110  CA       -10.1970   24.5000   -3.1810 C.3   386  SER386      0.2020
    111  C        -10.8260   25.8770   -3.0690 C.2   386  SER386      0.2618
    112  O        -10.3150   26.8250   -3.6270 O.2   386  SER386     -0.2717
    113  CB       -11.0060   23.6790   -4.1590 C.3   386  SER386      0.2103
    114  OG       -12.1600   24.4110   -4.5120 O.3   386  SER386     -0.2182
    115  N        -11.9470   25.9840   -2.3720 N.am  387  LEU387     -0.1979
    116  CA       -12.4970   27.2740   -2.0020 C.3   387  LEU387      0.1596
    117  C        -11.6570   28.0960   -1.0280 C.2   387  LEU387      0.2287
    118  O        -12.0820   29.1420   -0.5750 O.2   387  LEU387     -0.2864
    119  CB       -13.8430   27.0560   -1.3800 C.3   387  LEU387      0.0297
    120  CG       -14.9660   26.9780   -2.3730 C.3   387  LEU387      0.0022
    121  CD1      -16.1870   26.7000   -1.5700 C.3   387  LEU387      0.0001
    122  CD2      -15.0700   28.2870   -3.1470 C.3   387  LEU387      0.0001
    123  N         -9.1730   30.8620   -2.9260 N.3   390  SER390     -0.1217
    124  CA        -9.7390   32.0860   -3.4480 C.3   390  SER390      0.1889
    125  C        -10.2100   32.9400   -2.2930 C.2   390  SER390      0.2288
    126  O        -10.3310   34.1480   -2.4430 O.2   390  SER390     -0.2866
    127  CB       -10.8990   31.7970   -4.3930 C.3   390  SER390      0.2089
    128  OG       -12.0060   31.3400   -3.6550 O.3   390  SER390     -0.2183
    129  N        -19.4880   31.1870  -23.6010 N.3   458  LEU458     -0.1231
    130  CA       -19.0730   31.4170  -22.2380 C.3   458  LEU458      0.1693
    131  C        -18.2960   30.2640  -21.6740 C.2   458  LEU458      0.2592
    132  O        -17.2200   30.4700  -21.1250 O.2   458  LEU458     -0.2718
    133  CB       -20.2820   31.6580  -21.3500 C.3   458  LEU458      0.0284
    134  CG       -19.9750   32.1120  -19.9390 C.3   458  LEU458      0.0019
    135  CD1      -19.0780   33.2880  -20.0650 C.3   458  LEU458      0.0001
    136  CD2      -21.2390   32.5310  -19.2170 C.3   458  LEU458      0.0001
    137  N        -18.8520   29.0600  -21.8380 N.am  459  PHE459     -0.1976
    138  CA       -18.3290   27.8100  -21.2950 C.3   459  PHE459      0.1639
    139  C        -17.5990   26.8840  -22.2700 C.2   459  PHE459      0.2290
    140  O        -17.3580   25.7410  -21.9430 O.2   459  PHE459     -0.2864
    141  CB       -19.4720   27.0250  -20.6930 C.3   459  PHE459      0.0560
    142  CG       -20.2520   27.7870  -19.6980 C.ar  459  PHE459     -0.0200
    143  CD1      -19.6220   28.4900  -18.7080 C.ar  459  PHE459     -0.0042
    144  CD2      -21.6250   27.8120  -19.7530 C.ar  459  PHE459     -0.0042
    145  CE1      -20.3480   29.1910  -17.7810 C.ar  459  PHE459     -0.0003
    146  CE2      -22.3510   28.5270  -18.8190 C.ar  459  PHE459     -0.0003
    147  CZ       -21.7040   29.2120  -17.8390 C.ar  459  PHE459     -0.0000
    148  N        -12.2780   27.9840  -21.3440 N.3   464  ILE464     -0.1245
    149  CA       -11.8790   27.6250  -19.9950 C.3   464  ILE464      0.1561
    150  C        -10.4380   27.1790  -19.9020 C.2   464  ILE464      0.2260
    151  O         -9.7410   27.5250  -18.9570 O.2   464  ILE464     -0.2867
    152  CB       -12.7280   26.5150  -19.4450 C.3   464  ILE464      0.0252
    153  CG1      -14.1880   26.8660  -19.5860 C.3   464  ILE464      0.0019
    154  CG2      -12.4590   26.3460  -18.0020 C.3   464  ILE464      0.0019
    155  CD1      -14.5650   28.0760  -18.8190 C.3   464  ILE464      0.0001
    156  N         -8.5630   30.1670  -19.9680 N.3   467  ILE467     -0.1231
    157  CA        -8.7150   30.9490  -18.7490 C.3   467  ILE467      0.1692
    158  C         -7.7950   30.4430  -17.6620 C.2   467  ILE467      0.2591
    159  O         -6.9980   31.2090  -17.1540 O.2   467  ILE467     -0.2718
    160  CB       -10.1400   30.9210  -18.2120 C.3   467  ILE467      0.0266
    161  CG1      -11.0670   31.7630  -19.0830 C.3   467  ILE467      0.0019
    162  CG2      -10.1610   31.4300  -16.7980 C.3   467  ILE467      0.0020
    163  CD1      -12.5100   31.7630  -18.6390 C.3   467  ILE467      0.0001
    164  N         -7.9140   29.1600  -17.3130 N.am  468  MET468     -0.1979
    165  CA        -7.0880   28.5380  -16.2840 C.3   468  MET468      0.1605
    166  C         -5.6130   28.6270  -16.5630 C.2   468  MET468      0.2287
    167  O         -4.8220   28.6990  -15.6390 O.2   468  MET468     -0.2864
    168  CB        -7.4550   27.0720  -16.1230 C.3   468  MET468      0.0413
    169  CG        -8.7900   26.8700  -15.4670 C.3   468  MET468      0.0598
    170  SD        -8.9240   27.8310  -13.9570 S.3   468  MET468     -0.1393
    171  CE       -10.6910   27.8410  -13.8280 C.3   468  MET468      0.0692
    172  N         -4.3280   31.4490  -14.6930 N.3   471  MET471     -0.1245
    173  CA        -4.4370   31.2060  -13.2570 C.3   471  MET471      0.1570
    174  C         -3.4040   30.1800  -12.8180 C.2   471  MET471      0.2261
    175  O         -2.4510   30.5100  -12.1310 O.2   471  MET471     -0.2867
    176  CB        -5.8530   30.7400  -12.8880 C.3   471  MET471      0.0387
    177  CG        -6.9880   31.6830  -13.3490 C.3   471  MET471      0.0595
    178  SD        -8.6030   31.4490  -12.5370 S.3   471  MET471     -0.1393
    179  CE        -8.1440   30.0630  -11.4720 C.3   471  MET471      0.0692
    180  N         -8.6420   36.3750  -19.2130 N.3   646  ARG646     -0.1245
    181  CA        -9.3490   35.9650  -18.0050 C.3   646  ARG646      0.1563
    182  C        -10.5760   36.8300  -17.7910 C.2   646  ARG646      0.2260
    183  O        -11.5650   36.4170  -17.2010 O.2   646  ARG646     -0.2867
    184  CB        -8.4000   36.0380  -16.8080 C.3   646  ARG646      0.0307
    185  CG        -9.0050   36.4390  -15.5020 C.3   646  ARG646      0.0489
    186  CD        -9.6790   35.2520  -14.9030 C.3   646  ARG646      0.2205
    187  NE       -10.4410   35.5740  -13.7000 N.pl3 646  ARG646     -0.0865
    188  CZ       -11.5670   36.2800  -13.6800 C.cat 646  ARG646      0.5346
    189  NH1      -12.0550   36.7810  -14.8000 N.pl3 646  ARG646      0.1354
    190  NH2      -12.1950   36.4840  -12.5360 N.pl3 646  ARG646      0.1354
    191  N        -14.5360   36.6480  -20.9130 N.3   649  PRO649     -0.2102
    192  CA       -15.8400   36.0010  -20.9740 C.3   649  PRO649      0.1504
    193  C        -16.9320   36.7570  -20.2730 C.2   649  PRO649      0.2575
    194  O        -18.0720   36.6270  -20.6640 O.2   649  PRO649     -0.2718
    195  CB       -15.5890   34.6840  -20.2980 C.3   649  PRO649      0.0282
    196  CG       -14.1990   34.4070  -20.6210 C.3   649  PRO649      0.0208
    197  CD       -13.5080   35.7020  -20.4830 C.3   649  PRO649      0.0893
    198  N        -16.6170   37.5510  -19.2690 N.am  650  LYS650     -0.1980
    199  CA       -17.6770   38.3400  -18.7020 C.3   650  LYS650      0.1596
    200  C        -18.0740   39.4040  -19.6760 C.2   650  LYS650      0.2287
    201  O        -19.2210   39.7890  -19.7620 O.2   650  LYS650     -0.2864
    202  CB       -17.2760   38.9710  -17.4040 C.3   650  LYS650      0.0298
    203  CG       -18.3950   39.7730  -16.7950 C.3   650  LYS650      0.0038
    204  CD       -19.4560   38.8810  -16.2280 C.3   650  LYS650      0.0206
    205  CE       -19.1490   38.5330  -14.8120 C.3   650  LYS650      0.1093
    206  NZ       -19.1710   39.7690  -14.0100 N.3   650  LYS650     -0.1314
    207  N        -20.5090   37.9130  -22.1590 N.3   653  MET653     -0.1245
    208  CA       -21.7660   37.6470  -21.5100 C.3   653  MET653      0.1570
    209  C        -22.6170   38.9140  -21.4850 C.2   653  MET653      0.2261
    210  O        -23.7010   38.9650  -22.0340 O.2   653  MET653     -0.2867
    211  CB       -21.4700   37.1000  -20.1050 C.3   653  MET653      0.0387
    212  CG       -22.6320   36.7890  -19.2220 C.3   653  MET653      0.0595
    213  SD       -22.1050   35.9290  -17.7870 S.3   653  MET653     -0.1393
    214  CE       -23.2670   36.5620  -16.6710 C.3   653  MET653      0.0692
    215  N         -7.6840   36.4680   -7.7270 N.3   803  MET803     -0.1230
    216  CA        -8.1560   35.9880   -9.0350 C.3   803  MET803      0.1702
    217  C         -9.6560   36.2890   -9.3210 C.2   803  MET803      0.2593
    218  O        -10.2970   35.5710  -10.0280 O.2   803  MET803     -0.2718
    219  CB        -7.8790   34.4770   -9.1420 C.3   803  MET803      0.0401
    220  CG        -7.2070   34.0150  -10.4000 C.3   803  MET803      0.0596
    221  SD        -5.6400   34.7780  -10.7970 S.3   803  MET803     -0.1393
    222  CE        -4.6750   34.3290   -9.3980 C.3   803  MET803      0.0692
    223  N        -10.2100   37.3630   -8.7830 N.am  804  THR804     -0.1953
    224  CA       -11.5850   37.7510   -9.0910 C.3   804  THR804      0.1897
    225  C        -11.7480   39.2620   -9.2790 C.2   804  THR804      0.2313
    226  O        -11.7740   39.9890   -8.3040 O.2   804  THR804     -0.2863
    227  CB       -12.5730   37.2980   -7.9760 C.3   804  THR804      0.1794
    228  OG1      -12.5460   38.1920   -6.8550 O.3   804  THR804     -0.2208
    229  CG2      -12.2380   35.8970   -7.5030 C.3   804  THR804      0.0378
@<TRIPOS>BOND
     1   129   130    1
     2   139   140    2
     3   139   138    1
     4   130   131    1
     5   130   133    1
     6   207   208    1
     7   210   209    2
     8   137   131   am
     9   137   138    1
    10   131   132    2
    11   208   209    1
    12   208   211    1
    13   133   134    1
    14   148   149    1
    15   138   141    1
    16   192   191    1
    17   192   195    1
    18   192   193    1
    19   191   197    1
    20   141   142    1
    21   194   193    2
    22   196   197    1
    23   196   195    1
    24   193   198   am
    25   211   212    1
    26   135   134    1
    27   149   150    1
    28   149   152    1
    29   156   157    1
    30   134   136    1
    31   150   151    2
    32   201   200    2
    33   144   142   ar
    34   144   146   ar
    35   142   143   ar
    36   200   199    1
    37   153   152    1
    38   153   155    1
    39   152   154    1
    40   198   199    1
    41   212   213    1
    42   180   181    1
    43   161   163    1
    44   161   160    1
    45   146   147   ar
    46   157   160    1
    47   157   158    1
    48   143   145   ar
    49   199   202    1
    50    57    56    1
    51   160   162    1
    52    56    53    1
    53    56    58    1
    54   181   182    1
    55   181   184    1
    56   147   145   ar
    57   182   183    2
    58   213   214    1
    59   158   164   am
    60   158   159    2
    61    53    52    1
    62    53    54    1
    63   202   203    1
    64   164   165    1
    65    55    54    2
    66   184   185    1
    67   203   204    1
    68    54    59   am
    69   166   165    1
    70   166   167    2
    71   165   168    1
    72   204   205    1
    73   168   169    1
    74    71    70    1
    75    71    72    1
    76    59    60    1
    77   185   186    1
    78   169   170    1
    79    70    67    1
    80   186   187    1
    81    72    66    1
    82   205   206    1
    83   189   188    1
    84    60    61    1
    85    60    63    1
    86   172   173    1
    87    66    61   am
    88    66    67    1
    89    40    41    1
    90    61    62    2
    91    67    68    1
    92    41    42    1
    93    41    44    1
    94    43    42    2
    95   170   171    1
    96   187   188    2
    97   188   190    1
    98    63    64    1
    99    63    65    1
   100   177   176    1
   101   177   178    1
   102   173   176    1
   103   173   174    1
   104    46    48   ar
   105    46    45   ar
   106    68    69    2
   107    68    73   am
   108    44    45    1
   109   174   175    2
   110    48    50   ar
   111    45    47   ar
   112   178   179    1
   113    50    51    1
   114    50    49   ar
   115    47    49   ar
   116    73    74    1
   117    39    37   am
   118   221   220    1
   119   221   222    1
   120    76    75    2
   121    37    38    2
   122    37    36    1
   123    74    75    1
   124    74    77    1
   125   220   219    1
   126    36    35    1
   127   218   217    2
   128    85    84    1
   129    84    83    1
   130   217   216    1
   131   217   223   am
   132   225   224    1
   133   225   226    2
   134   219   216    1
   135   224   223    1
   136   224   227    1
   137   216   215    1
   138    34    33    2
   139    35    32    1
   140    82    83    1
   141    82    79    1
   142    78    79    1
   143    32    33    1
   144    32    31    1
   145   227   229    1
   146   227   228    1
   147    81    80    2
   148    79    80    1
   149    20    19    1
   150    25    24    2
   151    31    24   am
   152    24    23    1
   153    92    90    1
   154    21    19    1
   155    19    16    1
   156    30    28   am
   157    18    17    2
   158    26    23    1
   159    26    27    1
   160    23    22    1
   161    91    90    1
   162    16    17    1
   163    16    15    1
   164    90    87    1
   165    28    27    1
   166    28    29    2
   167   114   113    1
   168    87    86    1
   169    87    88    1
   170   127   128    1
   171   127   124    1
   172   113   110    1
   173    15    11   am
   174   112   111    2
   175    99    97    1
   176   107   108    1
   177   107   106    1
   178   124   123    1
   179   124   125    1
   180    88    89    2
   181   110   111    1
   182   110   109    1
   183   122   120    1
   184   111   115   am
   185    12    11    2
   186    11    10    1
   187   126   125    2
   188   120   121    1
   189   120   119    1
   190   115   116    1
   191     7     5    1
   192     4     3    2
   193   106   105    1
   194    97    94    1
   195    97    98    1
   196   116   119    1
   197   116   117    1
   198   102   101    1
   199   102   105    1
   200   102   103    1
   201    94    93    1
   202    94    95    1
   203    10     9    1
   204    10    13    1
   205   104   103    2
   206     5     2    1
   207     5     6    1
   208     3     9   am
   209     3     2    1
   210    14    13    1
   211    98   100    1
   212   117   118    2
   213     8     6    1
   214    95    96    2
   215     2     1    1
