@<TRIPOS>MOLECULE
tmp/5hv4A00.pdb
 139 132 0 0 0
SMALL
GASTEIGER

@<TRIPOS>ATOM
      1  N         23.6760   16.8330   -2.1500 N.3    93  LEU93      -0.1245
      2  CA        24.9530   17.4970   -2.3570 C.3    93  LEU93       0.1561
      3  C         26.0600   16.7170   -1.6630 C.2    93  LEU93       0.2260
      4  O         25.8470   16.1010   -0.6150 O.2    93  LEU93      -0.2867
      5  CB        24.9290   18.9380   -1.8360 C.3    93  LEU93       0.0270
      6  CG        24.8920   20.0470   -2.8890 C.3    93  LEU93       0.0019
      7  CD1       24.8620   21.4160   -2.2220 C.3    93  LEU93       0.0001
      8  CD2       26.0810   19.9320   -3.8350 C.3    93  LEU93       0.0001
      9  N         30.1660   17.2060   -0.5000 N.3    95  TYR95      -0.1241
     10  CA        31.3350   18.0550   -0.3040 C.3    95  TYR95       0.1605
     11  C         32.5400   17.1730   -0.0090 C.2    95  TYR95       0.2264
     12  O         32.5570   16.4580    0.9980 O.2    95  TYR95      -0.2867
     13  CB        31.1240   19.0450    0.8420 C.3    95  TYR95       0.0534
     14  CG        29.9710   20.0020    0.6530 C.ar   95  TYR95      -0.0201
     15  CD1       30.1480   21.2120   -0.0040 C.ar   95  TYR95      -0.0009
     16  CD2       28.7090   19.7040    1.1490 C.ar   95  TYR95      -0.0009
     17  CE1       29.0960   22.0940   -0.1720 C.ar   95  TYR95       0.0417
     18  CE2       27.6520   20.5780    0.9870 C.ar   95  TYR95       0.0417
     19  CZ        27.8500   21.7710    0.3260 C.ar   95  TYR95       0.1957
     20  OH        26.7990   22.6440    0.1630 O.3    95  TYR95      -0.2866
     21  N         30.3420   25.8470    0.8000 N.3   101  TYR101     -0.1241
     22  CA        29.2530   26.6390    0.2350 C.3   101  TYR101      0.1605
     23  C         29.2350   27.9520    1.0040 C.2   101  TYR101      0.2264
     24  O         28.8180   27.9840    2.1670 O.2   101  TYR101     -0.2867
     25  CB        27.9160   25.9040    0.3490 C.3   101  TYR101      0.0534
     26  CG        26.8330   26.3770   -0.6000 C.ar  101  TYR101     -0.0201
     27  CD1       26.9720   27.5520   -1.3290 C.ar  101  TYR101     -0.0009
     28  CD2       25.6670   25.6400   -0.7660 C.ar  101  TYR101     -0.0009
     29  CE1       25.9780   27.9800   -2.1950 C.ar  101  TYR101      0.0417
     30  CE2       24.6700   26.0590   -1.6280 C.ar  101  TYR101      0.0417
     31  CZ        24.8290   27.2280   -2.3390 C.ar  101  TYR101      0.1957
     32  OH        23.8360   27.6440   -3.1970 O.3   101  TYR101     -0.2866
     33  N         25.0410   32.6720    1.8660 N.3   104  HIS104     -0.1241
     34  CA        24.0740   33.0460    0.8460 C.3   104  HIS104      0.1621
     35  C         22.6770   32.9110    1.4290 C.2   104  HIS104      0.2264
     36  O         22.4880   32.3930    2.5330 O.2   104  HIS104     -0.2867
     37  CB        24.2210   32.1700   -0.3980 C.3   104  HIS104      0.0745
     38  CG        23.9590   30.7230   -0.1350 C.ar  104  HIS104      0.0817
     39  ND1       24.8450   29.9210    0.5510 N.ar  104  HIS104     -0.2268
     40  CD2       22.8990   29.9390   -0.4390 C.ar  104  HIS104      0.1154
     41  CE1       24.3470   28.7010    0.6470 C.ar  104  HIS104      0.1986
     42  NE2       23.1690   28.6850    0.0500 N.ar  104  HIS104     -0.2212
     43  N         18.6210   31.4990    0.6290 N.3   106  ASP106     -0.1239
     44  CA        17.9170   30.4800   -0.1370 C.3   106  ASP106      0.1674
     45  C         16.7800   31.0450   -0.9680 C.2   106  ASP106      0.2266
     46  O         16.5110   30.5320   -2.0600 O.2   106  ASP106     -0.2867
     47  CB        17.3860   29.3870    0.7920 C.3   106  ASP106      0.1410
     48  CG        18.3650   28.2530    0.9440 C.2   106  ASP106      0.3668
     49  OD1       19.2320   28.1380    0.0590 O.co2 106  ASP106     -0.2456
     50  OD2       18.2690   27.4830    1.9220 O.co2 106  ASP106     -0.2456
     51  N         13.6140   25.9580    4.4130 N.3   122  THR122     -0.1218
     52  CA        14.6300   25.0020    4.0040 C.3   122  THR122      0.1862
     53  C         14.8270   23.9640    5.0980 C.2   122  THR122      0.2287
     54  O         14.8050   24.2950    6.2860 O.2   122  THR122     -0.2866
     55  CB        15.9620   25.7090    3.7170 C.3   122  THR122      0.1770
     56  OG1       15.7710   26.7040    2.7020 O.3   122  THR122     -0.2211
     57  CG2       17.0210   24.7110    3.2640 C.3   122  THR122      0.0375
     58  N         17.7550   20.9700    5.7960 N.3   124  VAL124     -0.1245
     59  CA        19.0160   20.3520    5.3990 C.3   124  VAL124      0.1561
     60  C         19.2380   19.1280    6.2770 C.2   124  VAL124      0.2260
     61  O         19.3770   19.2510    7.5000 O.2   124  VAL124     -0.2867
     62  CB        20.1900   21.3350    5.5160 C.3   124  VAL124      0.0252
     63  CG1       21.5090   20.6270    5.2220 C.3   124  VAL124      0.0019
     64  CG2       19.9850   22.5200    4.5810 C.3   124  VAL124      0.0019
     65  N         21.5360   15.7740    7.2180 N.3   126  TYR126     -0.1241
     66  CA        22.8960   15.2540    7.1490 C.3   126  TYR126      0.1605
     67  C         22.8470   13.7470    6.9240 C.2   126  TYR126      0.2264
     68  O         22.3180   13.0050    7.7600 O.2   126  TYR126     -0.2867
     69  CB        23.6680   15.5960    8.4220 C.3   126  TYR126      0.0534
     70  CG        23.7080   17.0810    8.7120 C.ar  126  TYR126     -0.0201
     71  CD1       24.4620   17.9440    7.9230 C.ar  126  TYR126     -0.0009
     72  CD2       22.9880   17.6200    9.7690 C.ar  126  TYR126     -0.0009
     73  CE1       24.4950   19.3030    8.1800 C.ar  126  TYR126      0.0417
     74  CE2       23.0160   18.9770   10.0370 C.ar  126  TYR126      0.0417
     75  CZ        23.7700   19.8130    9.2420 C.ar  126  TYR126      0.1957
     76  OH        23.7930   21.1620    9.5120 O.3   126  TYR126     -0.2866
     77  N         26.8690   23.7610    9.2030 N.3   136  THR136     -0.1218
     78  CA        25.9590   24.7760    8.6850 C.3   136  THR136      0.1862
     79  C         26.0030   25.9710    9.6270 C.2   136  THR136      0.2287
     80  O         25.5950   25.8660   10.7870 O.2   136  THR136     -0.2866
     81  CB        24.5420   24.2210    8.5750 C.3   136  THR136      0.1770
     82  OG1       24.5690   22.9660    7.8850 O.3   136  THR136     -0.2211
     83  CG2       23.6450   25.1970    7.8250 C.3   136  THR136      0.0375
     84  N         23.4280   32.0100    5.4720 N.3   170  HIS170     -0.1226
     85  CA        24.0340   30.7820    5.9570 C.3   170  HIS170      0.1752
     86  C         24.8860   30.1690    4.8600 C.2   170  HIS170      0.2597
     87  O         24.7640   30.5160    3.6820 O.2   170  HIS170     -0.2718
     88  CB        22.9720   29.7800    6.4020 C.3   170  HIS170      0.0759
     89  CG        22.0480   29.3820    5.3000 C.ar  170  HIS170      0.0818
     90  ND1       21.0380   30.2040    4.8490 N.ar  170  HIS170     -0.2268
     91  CD2       22.0060   28.2720    4.5280 C.ar  170  HIS170      0.1154
     92  CE1       20.4010   29.6090    3.8580 C.ar  170  HIS170      0.1986
     93  NE2       20.9650   28.4340    3.6470 N.ar  170  HIS170     -0.2212
     94  N         25.7320   29.2300    5.2670 N.am  171  GLY171     -0.1942
     95  CA        26.5430   28.4920    4.3230 C.3   171  GLY171      0.2014
     96  C         27.0160   27.1910    4.9300 C.2   171  GLY171      0.2639
     97  O         26.7410   26.8800    6.0920 O.2   171  GLY171     -0.2714
     98  N         27.7300   26.4240    4.1090 N.am  172  GLY172     -0.1954
     99  CA        28.3640   25.2030    4.5450 C.3   172  GLY172      0.1869
    100  C         29.8480   25.4230    4.6910 C.2   172  GLY172      0.2309
    101  O         30.5270   25.8280    3.7430 O.2   172  GLY172     -0.2863
    102  N         31.2190   15.1440    3.1410 N.3   180  LYS180     -0.1245
    103  CA        29.9250   15.5850    3.6400 C.3   180  LYS180      0.1561
    104  C         28.8450   15.2750    2.6150 C.2   180  LYS180      0.2260
    105  O         28.9690   15.6460    1.4430 O.2   180  LYS180     -0.2867
    106  CB        29.9510   17.0810    3.9520 C.3   180  LYS180      0.0271
    107  CG        28.6220   17.6700    4.3760 C.3   180  LYS180      0.0035
    108  CD        28.8060   19.1210    4.7720 C.3   180  LYS180      0.0206
    109  CE        27.4880   19.7980    5.0500 C.3   180  LYS180      0.1093
    110  NZ        27.7120   21.1820    5.5350 N.3   180  LYS180     -0.1314
    111  N         24.6370   15.6740    2.1300 N.3   182  ILE182     -0.1245
    112  CA        23.4350   16.3150    2.6460 C.3   182  ILE182      0.1561
    113  C         22.2920   16.1520    1.6570 C.2   182  ILE182      0.2260
    114  O         22.4940   16.0890    0.4400 O.2   182  ILE182     -0.2867
    115  CB        23.6560   17.8110    2.9420 C.3   182  ILE182      0.0252
    116  CG1       24.2550   18.5000    1.7160 C.3   182  ILE182      0.0019
    117  CG2       24.5270   17.9890    4.1770 C.3   182  ILE182      0.0019
    118  CD1       24.1580   19.9980    1.7510 C.3   182  ILE182      0.0001
    119  N         18.6380   18.2010    0.8370 N.3   184  THR184     -0.1218
    120  CA        18.0140   19.4950    1.0770 C.3   184  THR184      0.1862
    121  C         16.6230   19.5180    0.4640 C.2   184  THR184      0.2287
    122  O         16.4390   19.1050   -0.6850 O.2   184  THR184     -0.2866
    123  CB        18.8570   20.6350    0.4990 C.3   184  THR184      0.1770
    124  OG1       20.1880   20.5600    1.0220 O.3   184  THR184     -0.2211
    125  CG2       18.2520   21.9770    0.8720 C.3   184  THR184      0.0375
    126  N         13.8510   22.3570   -0.2920 N.3   186  TRP186     -0.1241
    127  CA        13.4010   23.7410   -0.3500 C.3   186  TRP186      0.1605
    128  C         11.8990   23.7750   -0.5920 C.2   186  TRP186      0.2264
    129  O         11.3790   23.0330   -1.4280 O.2   186  TRP186     -0.2867
    130  CB        14.1210   24.5080   -1.4600 C.3   186  TRP186      0.0550
    131  CG        15.6030   24.6180   -1.2790 C.ar  186  TRP186      0.0003
    132  CD1       16.2610   25.3700   -0.3500 C.ar  186  TRP186      0.0946
    133  CD2       16.6150   23.9750   -2.0640 C.ar  186  TRP186      0.0152
    134  NE1       17.6190   25.2260   -0.5000 N.ar  186  TRP186     -0.2442
    135  CE2       17.8630   24.3750   -1.5460 C.ar  186  TRP186      0.0810
    136  CE3       16.5870   23.0940   -3.1500 C.ar  186  TRP186      0.0012
    137  CZ2       19.0710   23.9230   -2.0740 C.ar  186  TRP186      0.0191
    138  CZ3       17.7870   22.6490   -3.6760 C.ar  186  TRP186      0.0001
    139  CH2       19.0130   23.0640   -3.1380 C.ar  186  TRP186      0.0015
@<TRIPOS>BOND
     1     8     6    1
     2   138   136   ar
     3   138   139   ar
     4    32    31    1
     5   136   133   ar
     6   139   137   ar
     7     6     7    1
     8     6     5    1
     9     2     1    1
    10     2     5    1
    11     2     3    1
    12    31    29   ar
    13    31    30   ar
    14    29    27   ar
    15   137   135   ar
    16   133   135   ar
    17   133   131   ar
    18    46    45    2
    19     3     4    2
    20    30    28   ar
    21   135   134   ar
    22   130   131    1
    23   130   127    1
    24   129   128    2
    25    27    26   ar
    26   131   132   ar
    27    45    44    1
    28    28    26   ar
    29   122   121    2
    30    26    25    1
    31   128   127    1
    32   134   132   ar
    33     9    10    1
    34    40    38   ar
    35    40    42   ar
    36    37    38    1
    37    37    34    1
    38   127   126    1
    39    10    11    1
    40    10    13    1
    41    17    15   ar
    42    17    19   ar
    43    44    43    1
    44    44    47    1
    45    38    39   ar
    46    11    12    2
    47    15    14   ar
    48    42    41   ar
    49    49    48   ar
    50    20    19    1
    51    22    25    1
    52    22    21    1
    53    22    23    1
    54    19    18   ar
    55   114   113    2
    56   121   120    1
    57   123   125    1
    58   123   124    1
    59   123   120    1
    60    39    41   ar
    61    14    13    1
    62    14    16   ar
    63    47    48    1
    64   119   120    1
    65    34    35    1
    66    34    33    1
    67    48    50   ar
    68    18    16   ar
    69    23    24    2
    70    35    36    2
    71   105   104    2
    72   113   112    1
    73   116   118    1
    74   116   115    1
    75   111   112    1
    76   104   103    1
    77   112   115    1
    78    56    55    1
    79   115   117    1
    80   102   103    1
    81    57    55    1
    82   103   106    1
    83    93    92   ar
    84    93    91   ar
    85    87    86    2
    86    55    52    1
    87   101   100    2
    88    92    90   ar
    89   106   107    1
    90    52    51    1
    91    52    53    1
    92    98    99    1
    93    98    96   am
    94    95    96    1
    95    95    94    1
    96   107   108    1
    97    91    89   ar
    98    99   100    1
    99    64    62    1
   100   108   109    1
   101    90    89   ar
   102    86    94   am
   103    86    85    1
   104    96    97    2
   105   109   110    1
   106    53    54    2
   107    63    62    1
   108    89    88    1
   109    59    62    1
   110    59    58    1
   111    59    60    1
   112    84    85    1
   113    85    88    1
   114    60    61    2
   115    67    66    1
   116    67    68    2
   117    66    65    1
   118    66    69    1
   119    83    81    1
   120    82    81    1
   121    71    73   ar
   122    71    70   ar
   123    73    75   ar
   124    69    70    1
   125    81    78    1
   126    78    77    1
   127    78    79    1
   128    70    72   ar
   129    75    76    1
   130    75    74   ar
   131    79    80    2
   132    72    74   ar
