@<TRIPOS>MOLECULE
tmp/5hv7A01.pdb
 80 75 0 0 0
SMALL
GASTEIGER

@<TRIPOS>ATOM
      1  N        -17.4430   -4.6840   28.4330 N.3     8  ASP8       -0.1239
      2  CA       -18.0590   -4.3380   27.1590 C.3     8  ASP8        0.1674
      3  C        -18.8890   -5.4920   26.6200 C.2     8  ASP8        0.2266
      4  O        -18.3490   -6.5350   26.2680 O.2     8  ASP8       -0.2867
      5  CB       -16.9810   -3.9460   26.1440 C.3     8  ASP8        0.1410
      6  CG       -17.5170   -3.8280   24.7250 C.2     8  ASP8        0.3668
      7  OD1      -18.6950   -3.4570   24.5460 O.co2   8  ASP8       -0.2456
      8  OD2      -16.7540   -4.1200   23.7790 O.co2   8  ASP8       -0.2456
      9  N        -21.1430   -6.3110   23.5460 N.3    10  GLY10      -0.1210
     10  CA       -21.5320   -5.8320   22.2330 C.3    10  GLY10       0.1956
     11  C        -22.3930   -6.7920   21.4350 C.2    10  GLY10       0.2613
     12  O        -23.0820   -7.6450   21.9950 O.2    10  GLY10      -0.2717
     13  N        -22.3420   -6.6450   20.1140 N.am   11  THR11      -0.1938
     14  CA       -23.1840   -7.4160   19.2050 C.3    11  THR11       0.2028
     15  C        -22.7880   -8.8880   19.1160 C.2    11  THR11       0.2643
     16  O        -23.6490   -9.7670   19.0860 O.2    11  THR11      -0.2714
     17  CB       -23.1510   -6.8230   17.7810 C.3    11  THR11       0.1808
     18  OG1      -21.8100   -6.8600   17.2760 O.3    11  THR11      -0.2208
     19  CG2      -23.6390   -5.3870   17.7870 C.3    11  THR11       0.0379
     20  N        -21.4870   -9.1530   19.0710 N.am   12  SER12      -0.1935
     21  CA       -21.0000  -10.5030   18.8010 C.3    12  SER12       0.2055
     22  C        -20.3280  -11.1720   20.0000 C.2    12  SER12       0.2644
     23  O        -20.1630  -12.3920   20.0180 O.2    12  SER12      -0.2714
     24  CB       -20.0270  -10.4750   17.6210 C.3    12  SER12       0.2130
     25  OG       -18.9800   -9.5490   17.8470 O.3    12  SER12      -0.2179
     26  N        -19.9390  -10.3810   20.9950 N.am   13  GLY13      -0.1939
     27  CA       -19.2570  -10.9270   22.1550 C.3    13  GLY13       0.2014
     28  C        -19.1370   -9.9700   23.3260 C.2    13  GLY13       0.2639
     29  O        -19.8610   -8.9780   23.4140 O.2    13  GLY13      -0.2714
     30  N        -18.2100  -10.2750   24.2290 N.am   14  ALA14      -0.1963
     31  CA       -17.9830   -9.4550   25.4110 C.3    14  ALA14       0.1728
     32  C        -16.5020   -9.4050   25.7720 C.2    14  ALA14       0.2616
     33  O        -15.8300  -10.4330   25.8080 O.2    14  ALA14      -0.2715
     34  CB       -18.7970   -9.9800   26.5850 C.3    14  ALA14       0.0334
     35  N        -15.9960   -8.2050   26.0360 N.am   15  ARG15      -0.1977
     36  CA       -14.5910   -8.0280   26.3860 C.3    15  ARG15       0.1597
     37  C        -14.4320   -7.2860   27.7060 C.2    15  ARG15       0.2287
     38  O        -15.0950   -6.2800   27.9470 O.2    15  ARG15      -0.2864
     39  CB       -13.8500   -7.2760   25.2770 C.3    15  ARG15       0.0334
     40  CG       -12.4140   -6.9070   25.6240 C.3    15  ARG15       0.0492
     41  CD       -11.7360   -6.1660   24.4810 C.3    15  ARG15       0.2205
     42  NE       -11.6760   -6.9760   23.2680 N.pl3  15  ARG15      -0.0865
     43  CZ       -10.7080   -7.8450   22.9980 C.cat  15  ARG15       0.5346
     44  NH1       -9.7140   -8.0230   23.8590 N.pl3  15  ARG15       0.1354
     45  NH2      -10.7340   -8.5410   21.8700 N.pl3  15  ARG15       0.1354
     46  N        -11.4170  -11.8990   26.6290 N.3    30  SER30      -0.1202
     47  CA       -12.5470  -11.9090   25.7050 C.3    30  SER30       0.2020
     48  C        -13.4040  -13.1690   25.8040 C.2    30  SER30       0.2618
     49  O        -12.9400  -14.2230   26.2420 O.2    30  SER30      -0.2717
     50  CB       -12.0470  -11.7500   24.2680 C.3    30  SER30       0.2103
     51  OG       -11.2310  -10.6000   24.1400 O.3    30  SER30      -0.2182
     52  N        -14.6600  -13.0350   25.3880 N.am   31  VAL31      -0.1979
     53  CA       -15.6120  -14.1390   25.3300 C.3    31  VAL31       0.1595
     54  C        -16.4970  -13.9780   24.0940 C.2    31  VAL31       0.2287
     55  O        -17.0580  -12.9080   23.8630 O.2    31  VAL31      -0.2864
     56  CB       -16.5010  -14.2060   26.5940 C.3    31  VAL31       0.0276
     57  CG1      -17.7080  -15.1030   26.3560 C.3    31  VAL31       0.0022
     58  CG2      -15.6990  -14.6830   27.7980 C.3    31  VAL31       0.0022
     59  N        -22.3210    0.9080   23.9930 N.3   221  ASP221     -0.1239
     60  CA       -21.0290    0.4820   23.4670 C.3   221  ASP221      0.1674
     61  C        -20.4360    1.4820   22.4720 C.2   221  ASP221      0.2266
     62  O        -19.2200    1.6400   22.4050 O.2   221  ASP221     -0.2867
     63  CB       -21.1470   -0.9010   22.8190 C.3   221  ASP221      0.1410
     64  CG       -22.2320   -0.9640   21.7650 C.2   221  ASP221      0.3668
     65  OD1      -23.0950   -0.0630   21.7410 O.co2 221  ASP221     -0.2456
     66  OD2      -22.2270   -1.9230   20.9650 O.co2 221  ASP221     -0.2456
     67  N        -11.1770    0.4980   21.6150 N.3   402  GLU402     -0.1231
     68  CA       -11.9080   -0.5540   22.3130 C.3   402  GLU402      0.1699
     69  C        -12.9290    0.0220   23.2880 C.2   402  GLU402      0.2592
     70  O        -12.5860    0.8230   24.1580 O.2   402  GLU402     -0.2718
     71  CB       -10.9400   -1.4790   23.0530 C.3   402  GLU402      0.0402
     72  CG       -10.1610   -2.4140   22.1430 C.3   402  GLU402      0.1161
     73  CD       -11.0660   -3.3320   21.3450 C.2   402  GLU402      0.3649
     74  OE1      -12.0860   -3.7960   21.8980 O.co2 402  GLU402     -0.2457
     75  OE2      -10.7600   -3.5870   20.1610 O.co2 402  GLU402     -0.2457
     76  N        -14.1810   -0.3970   23.1330 N.am  403  ALA403     -0.1980
     77  CA       -15.2690    0.0670   23.9880 C.3   403  ALA403      0.1597
     78  C        -15.0040   -0.2350   25.4610 C.2   403  ALA403      0.2287
     79  O        -15.3330    0.5680   26.3330 O.2   403  ALA403     -0.2864
     80  CB       -16.5850   -0.5600   23.5510 C.3   403  ALA403      0.0319
@<TRIPOS>BOND
     1    18    17    1
     2    24    25    1
     3    24    21    1
     4    17    19    1
     5    17    14    1
     6    21    20    1
     7    21    22    1
     8    20    15   am
     9    16    15    2
    10    15    14    1
    11    14    13    1
    12    22    23    2
    13    22    26   am
    14    13    11   am
    15    75    73   ar
    16    66    64   ar
    17    26    27    1
    18    73    74   ar
    19    73    72    1
    20    11    12    2
    21    11    10    1
    22    67    68    1
    23    65    64   ar
    24    64    63    1
    25    45    43    1
    26    72    71    1
    27    27    28    1
    28    10     9    1
    29    68    71    1
    30    68    69    1
    31    62    61    2
    32    61    60    1
    33    63    60    1
    34    43    42    2
    35    43    44    1
    36    76    69   am
    37    76    77    1
    38    42    41    1
    39    69    70    2
    40    28    29    2
    41    28    30   am
    42    60    59    1
    43    80    77    1
    44     8     6   ar
    45    55    54    2
    46    77    78    1
    47    54    53    1
    48    51    50    1
    49    30    31    1
    50    50    47    1
    51    41    40    1
    52     7     6   ar
    53     6     5    1
    54    39    40    1
    55    39    36    1
    56    53    52    1
    57    53    56    1
    58    52    48   am
    59    31    32    1
    60    31    34    1
    61    78    79    2
    62    47    48    1
    63    47    46    1
    64    32    33    2
    65    32    35   am
    66    48    49    2
    67    35    36    1
    68     5     2    1
    69     4     3    2
    70    57    56    1
    71    36    37    1
    72    56    58    1
    73     3     2    1
    74     2     1    1
    75    37    38    2
