@<TRIPOS>MOLECULE
tmp/5hv8A00.pdb
 81 79 0 0 0
SMALL
GASTEIGER

@<TRIPOS>ATOM
      1  N         -9.1200    2.2490    5.3400 N.3    44  PHE44      -0.1227
      2  CA        -9.6370    1.9580    4.0010 C.3    44  PHE44       0.1736
      3  C        -11.1470    1.7970    4.0260 C.2    44  PHE44       0.2595
      4  O        -11.8270    2.0770    3.0400 O.2    44  PHE44      -0.2718
      5  CB        -8.9760    0.7080    3.4230 C.3    44  PHE44       0.0547
      6  CG        -7.5800    0.9570    2.9540 C.ar   44  PHE44      -0.0202
      7  CD1       -7.3190    1.9720    2.0490 C.ar   44  PHE44      -0.0042
      8  CD2       -6.5330    0.1920    3.4260 C.ar   44  PHE44      -0.0042
      9  CE1       -6.0300    2.2200    1.6270 C.ar   44  PHE44      -0.0003
     10  CE2       -5.2450    0.4300    3.0020 C.ar   44  PHE44      -0.0003
     11  CZ        -4.9930    1.4460    2.1040 C.ar   44  PHE44      -0.0000
     12  N        -11.6460    1.3350    5.1610 N.am   45  LYS45      -0.1980
     13  CA       -13.0620    1.3350    5.4670 C.3    45  LYS45       0.1596
     14  C        -13.7000    2.6500    5.0480 C.2    45  LYS45       0.2287
     15  O        -14.5610    2.7030    4.1670 O.2    45  LYS45      -0.2864
     16  CB       -13.2190    1.2000    6.9590 C.3    45  LYS45       0.0298
     17  CG       -14.5440    0.6220    7.3550 C.3    45  LYS45       0.0038
     18  CD       -14.6770    0.6460    8.8450 C.3    45  LYS45       0.0206
     19  CE       -15.0880    2.0180    9.3530 C.3    45  LYS45       0.1093
     20  NZ       -15.2870    2.0250   10.8250 N.3    45  LYS45      -0.1314
     21  N        -13.2250    1.2650    0.7660 N.3    49  ILE49      -0.1231
     22  CA       -12.7250   -0.0570    0.4340 C.3    49  ILE49       0.1692
     23  C        -13.6150   -1.1570    1.0070 C.2    49  ILE49       0.2592
     24  O        -13.9930   -1.1200    2.1790 O.2    49  ILE49      -0.2718
     25  CB       -11.2880   -0.2260    0.9690 C.3    49  ILE49       0.0266
     26  CG1      -10.3330    0.7060    0.2270 C.3    49  ILE49       0.0019
     27  CG2      -10.8130   -1.6710    0.8610 C.3    49  ILE49       0.0020
     28  CD1      -10.2530    0.4350   -1.2540 C.3    49  ILE49       0.0001
     29  N        -13.9610   -2.1200    0.1640 N.am   50  ASP50      -0.1960
     30  CA       -14.6710   -3.3100    0.6110 C.3    50  ASP50       0.1840
     31  C        -13.7170   -4.4890    0.5970 C.2    50  ASP50       0.2623
     32  O        -12.5060   -4.3040    0.5470 O.2    50  ASP50      -0.2715
     33  CB       -15.8730   -3.6300   -0.2780 C.3    50  ASP50       0.1450
     34  CG       -16.9690   -2.5870   -0.2190 C.2    50  ASP50       0.3671
     35  OD1      -17.6940   -2.5300    0.7970 O.co2  50  ASP50      -0.2456
     36  OD2      -17.1070   -1.8070   -1.1810 O.co2  50  ASP50      -0.2456
     37  N        -14.2460   -5.6970    0.6160 N.am   51  SER51      -0.1936
     38  CA       -13.3860   -6.8680    0.6280 C.3    51  SER51       0.2055
     39  C        -12.8250   -7.1580   -0.7560 C.2    51  SER51       0.2642
     40  O        -11.6830   -7.5940   -0.8990 O.2    51  SER51      -0.2714
     41  CB       -14.1570   -8.0740    1.1560 C.3    51  SER51       0.2130
     42  OG       -15.4750   -7.6380    1.5310 O.3    51  SER51      -0.2179
     43  N        -13.6210   -6.8790   -1.7720 N.am   52  LEU52      -0.1977
     44  CA       -13.2300   -7.1540   -3.1440 C.3    52  LEU52       0.1596
     45  C        -12.1830   -6.1570   -3.6090 C.2    52  LEU52       0.2287
     46  O        -11.1900   -6.5220   -4.2260 O.2    52  LEU52      -0.2864
     47  CB       -14.4380   -7.1080   -4.0820 C.3    52  LEU52       0.0297
     48  CG       -15.7700   -6.7700   -3.4250 C.3    52  LEU52       0.0022
     49  CD1      -15.9100   -5.2690   -3.2410 C.3    52  LEU52       0.0001
     50  CD2      -16.9230   -7.3130   -4.2460 C.3    52  LEU52       0.0001
     51  N        -10.3420   -4.4700   -1.6480 N.3    54  ALA54      -0.1245
     52  CA        -9.1980   -4.6420   -0.7700 C.3    54  ALA54       0.1562
     53  C         -8.0760   -5.3750   -1.4960 C.2    54  ALA54       0.2260
     54  O         -6.9260   -4.9370   -1.4940 O.2    54  ALA54      -0.2867
     55  CB        -9.6040   -5.4060    0.4820 C.3    54  ALA54       0.0290
     56  N         -4.6190   -6.4420    3.1680 N.3    74  ILE74      -0.1231
     57  CA        -5.5450   -5.4060    3.6140 C.3    74  ILE74       0.1692
     58  C         -6.3490   -5.8800    4.8210 C.2    74  ILE74       0.2592
     59  O         -6.8100   -5.0800    5.6310 O.2    74  ILE74      -0.2718
     60  CB        -6.5070   -5.0040    2.4740 C.3    74  ILE74       0.0266
     61  CG1       -5.7130   -4.6330    1.2220 C.3    74  ILE74       0.0019
     62  CG2       -7.4030   -3.8460    2.8940 C.3    74  ILE74       0.0020
     63  CD1       -4.8100   -3.4370    1.4060 C.3    74  ILE74       0.0001
     64  N         -6.4910   -7.1900    4.9430 N.am   75  PHE75      -0.1976
     65  CA        -7.2220   -7.7880    6.0460 C.3    75  PHE75       0.1639
     66  C         -6.4940   -7.5350    7.3620 C.2    75  PHE75       0.2290
     67  O         -7.1190   -7.3080    8.3990 O.2    75  PHE75      -0.2864
     68  CB        -7.3700   -9.2950    5.8100 C.3    75  PHE75       0.0560
     69  CG        -8.2880   -9.6600    4.6720 C.ar   75  PHE75      -0.0200
     70  CD1       -9.4730  -10.3420    4.9030 C.ar   75  PHE75      -0.0042
     71  CD2       -7.9660   -9.3110    3.3700 C.ar   75  PHE75      -0.0042
     72  CE1      -10.3160  -10.6710    3.8600 C.ar   75  PHE75      -0.0003
     73  CE2       -8.8070   -9.6380    2.3230 C.ar   75  PHE75      -0.0003
     74  CZ        -9.9830  -10.3460    2.5780 C.ar   75  PHE75      -0.0000
     75  N         -5.1210   -2.5930    7.2980 N.3    78  PRO78      -0.2116
     76  CA        -5.7990   -1.6130    6.4750 C.3    78  PRO78       0.1372
     77  C         -5.6330   -0.1830    6.9900 C.2    78  PRO78       0.2244
     78  O         -6.2410    0.2060    7.9840 O.2    78  PRO78      -0.2868
     79  CB        -7.2610   -2.0460    6.5690 C.3    78  PRO78       0.0268
     80  CG        -7.3900   -2.7520    7.8830 C.3    78  PRO78       0.0207
     81  CD        -6.0140   -3.2340    8.2760 C.3    78  PRO78       0.0892
@<TRIPOS>BOND
     1    50    48    1
     2    46    45    2
     3    47    48    1
     4    47    44    1
     5    45    44    1
     6    48    49    1
     7    44    43    1
     8    43    39   am
     9    51    52    1
    10    53    54    2
    11    53    52    1
    12    28    26    1
    13    36    34   ar
    14    40    39    2
    15    52    55    1
    16    39    38    1
    17    33    34    1
    18    33    30    1
    19    34    35   ar
    20    29    30    1
    21    29    23   am
    22    26    25    1
    23    22    21    1
    24    22    25    1
    25    22    23    1
    26    32    31    2
    27    31    30    1
    28    31    37   am
    29    37    38    1
    30    38    41    1
    31    27    25    1
    32    23    24    2
    33    41    42    1
    34    61    63    1
    35    61    60    1
    36     9     7   ar
    37     9    11   ar
    38     7     6   ar
    39    11    10   ar
    40    73    74   ar
    41    73    71   ar
    42    60    62    1
    43    60    57    1
    44    74    72   ar
    45     6     5    1
    46     6     8   ar
    47    10     8   ar
    48     4     3    2
    49    56    57    1
    50    71    69   ar
    51     5     2    1
    52    57    58    1
    53    72    70   ar
    54     2     3    1
    55     2     1    1
    56     3    12   am
    57    15    14    2
    58    69    70   ar
    59    69    68    1
    60    58    64   am
    61    58    59    2
    62    64    65    1
    63    14    13    1
    64    12    13    1
    65    13    16    1
    66    68    65    1
    67    65    66    1
    68    76    79    1
    69    76    77    1
    70    76    75    1
    71    79    80    1
    72    16    17    1
    73    77    78    2
    74    75    81    1
    75    17    18    1
    76    66    67    2
    77    80    81    1
    78    18    19    1
    79    19    20    1
