@<TRIPOS>MOLECULE
tmp/5hvbA00.pdb
 156 150 0 0 0
SMALL
GASTEIGER

@<TRIPOS>ATOM
      1  N         -0.2530  -25.8400    1.5520 N.3     7  ILE7       -0.1231
      2  CA        -0.6890  -24.8450    2.5650 C.3     7  ILE7        0.1692
      3  C         -1.9620  -24.2280    1.9900 C.2     7  ILE7        0.2592
      4  O         -1.9630  -23.8690    0.8380 O.2     7  ILE7       -0.2718
      5  CB         0.4250  -23.8270    2.9380 C.3     7  ILE7        0.0266
      6  CG1       -0.0170  -22.8750    4.0610 C.3     7  ILE7        0.0019
      7  CG2        0.9900  -23.1130    1.6910 C.3     7  ILE7        0.0020
      8  CD1        1.1520  -22.1800    4.7370 C.3     7  ILE7        0.0001
      9  N         -2.9650  -24.0100    2.8780 N.am    8  VAL8       -0.1966
     10  CA        -4.2580  -23.4600    2.4890 C.3     8  VAL8        0.1727
     11  C         -4.8620  -22.7570    3.7230 C.2     8  VAL8        0.2616
     12  O         -4.5470  -23.1250    4.8900 O.2     8  VAL8       -0.2715
     13  CB        -5.2260  -24.6390    2.0590 C.3     8  VAL8        0.0290
     14  CG1       -5.5940  -25.6230    3.2110 C.3     8  VAL8        0.0023
     15  CG2       -6.4080  -24.0660    1.2270 C.3     8  VAL8        0.0023
     16  N         -5.7940  -21.8510    3.4630 N.am    9  ALA9       -0.1977
     17  CA        -6.7300  -21.3680    4.5150 C.3     9  ALA9        0.1597
     18  C         -8.1450  -21.6790    4.0560 C.2     9  ALA9        0.2287
     19  O         -8.4300  -21.4130    2.9100 O.2     9  ALA9       -0.2864
     20  CB        -6.4920  -19.8740    4.7700 C.3     9  ALA9        0.0319
     21  N        -10.7110  -14.0270   -5.4270 N.3    21  ASP21      -0.1225
     22  CA       -10.1140  -13.5020   -4.2190 C.3    21  ASP21       0.1805
     23  C        -10.4500  -14.4910   -3.0820 C.2    21  ASP21       0.2597
     24  O        -10.9850  -15.5770   -3.3520 O.2    21  ASP21      -0.2718
     25  CB       -10.6750  -12.0970   -3.9840 C.3    21  ASP21       0.1424
     26  CG        -9.7770  -11.2270   -3.0990 C.2    21  ASP21       0.3668
     27  OD1       -8.8830  -11.7310   -2.3710 O.co2  21  ASP21      -0.2456
     28  OD2      -10.0070  -10.0010   -3.1250 O.co2  21  ASP21      -0.2456
     29  N        -10.0250  -14.1590   -1.8710 N.am   22  LEU22      -0.1979
     30  CA       -10.4130  -15.0310   -0.7120 C.3    22  LEU22       0.1596
     31  C        -11.9040  -14.7740   -0.3460 C.2    22  LEU22       0.2287
     32  O        -12.4570  -13.7310   -0.7090 O.2    22  LEU22      -0.2864
     33  CB        -9.4120  -14.7520    0.4440 C.3    22  LEU22       0.0297
     34  CG        -7.9220  -14.9060    0.0680 C.3    22  LEU22       0.0022
     35  CD1       -6.8830  -14.6530    1.1500 C.3    22  LEU22       0.0001
     36  CD2       -7.6300  -16.2780   -0.4480 C.3    22  LEU22       0.0001
     37  N         -9.3840   -9.3160    4.2450 N.3    26  PRO26      -0.2116
     38  CA        -8.0060   -9.6770    4.4860 C.3    26  PRO26       0.1372
     39  C         -7.6460   -9.8290    5.9690 C.2    26  PRO26       0.2244
     40  O         -8.0350   -9.0200    6.8630 O.2    26  PRO26      -0.2868
     41  CB        -7.2170   -8.5960    3.7760 C.3    26  PRO26       0.0268
     42  CG        -8.1730   -8.0020    2.7810 C.3    26  PRO26       0.0207
     43  CD        -9.5200   -8.1350    3.3710 C.3    26  PRO26       0.0892
     44  N         -2.6470  -13.7410    8.8800 N.3    30  GLU30      -0.1231
     45  CA        -2.7740  -15.0380    8.1450 C.3    30  GLU30       0.1699
     46  C         -1.8180  -14.9870    6.9700 C.2    30  GLU30       0.2592
     47  O         -1.0360  -15.9390    6.7060 O.2    30  GLU30      -0.2718
     48  CB        -4.2410  -15.3720    7.7490 C.3    30  GLU30       0.0402
     49  CG        -4.5700  -16.8710    7.6730 C.3    30  GLU30       0.1161
     50  CD        -3.9610  -17.5830    6.4840 C.2    30  GLU30       0.3649
     51  OE1       -3.4430  -18.6800    6.7530 O.co2  30  GLU30      -0.2457
     52  OE2       -3.9160  -17.0260    5.3370 O.co2  30  GLU30      -0.2457
     53  N         -1.8160  -13.8590    6.2340 N.am   31  PHE31      -0.1976
     54  CA        -0.8810  -13.6650    5.1380 C.3    31  PHE31       0.1639
     55  C          0.5860  -13.7110    5.6020 C.2    31  PHE31       0.2290
     56  O          1.3920  -14.3870    5.0090 O.2    31  PHE31      -0.2864
     57  CB        -1.1840  -12.3190    4.3990 C.3    31  PHE31       0.0560
     58  CG        -2.4400  -12.3500    3.5680 C.ar   31  PHE31      -0.0200
     59  CD1       -2.5260  -13.1220    2.4130 C.ar   31  PHE31      -0.0042
     60  CD2       -3.5450  -11.5820    3.9270 C.ar   31  PHE31      -0.0042
     61  CE1       -3.6960  -13.1300    1.6440 C.ar   31  PHE31      -0.0003
     62  CE2       -4.7150  -11.5800    3.1590 C.ar   31  PHE31      -0.0003
     63  CZ        -4.7870  -12.3480    2.0130 C.ar   31  PHE31      -0.0000
     64  N          1.6880  -15.3350    8.2510 N.3    33  TYR33      -0.1227
     65  CA         1.8910  -16.7770    8.5720 C.3    33  TYR33       0.1736
     66  C          2.2290  -17.5310    7.2470 C.2    33  TYR33       0.2595
     67  O          3.2440  -18.2200    7.1260 O.2    33  TYR33      -0.2718
     68  CB         0.6600  -17.4270    9.2370 C.3    33  TYR33       0.0548
     69  CG         0.8190  -18.9540    9.4300 C.ar   33  TYR33      -0.0200
     70  CD1        1.6890  -19.4660   10.3720 C.ar   33  TYR33      -0.0009
     71  CD2        0.1310  -19.8230    8.6590 C.ar   33  TYR33      -0.0009
     72  CE1        1.8340  -20.8460   10.5330 C.ar   33  TYR33       0.0417
     73  CE2        0.2760  -21.2040    8.8240 C.ar   33  TYR33       0.0417
     74  CZ         1.1400  -21.6890    9.7480 C.ar   33  TYR33       0.1957
     75  OH         1.2170  -23.0530    9.9180 O.3    33  TYR33      -0.2866
     76  N          1.3850  -17.3620    6.2080 N.am   34  PHE34      -0.1976
     77  CA         1.6460  -18.0360    4.9220 C.3    34  PHE34       0.1639
     78  C          3.0240  -17.6590    4.3850 C.2    34  PHE34       0.2290
     79  O          3.7510  -18.5010    3.8640 O.2    34  PHE34      -0.2864
     80  CB         0.5580  -17.5590    3.9160 C.3    34  PHE34       0.0560
     81  CG         0.9170  -17.8320    2.4870 C.ar   34  PHE34      -0.0200
     82  CD1        0.7450  -19.1390    1.9290 C.ar   34  PHE34      -0.0042
     83  CD2        1.4890  -16.8630    1.6340 C.ar   34  PHE34      -0.0042
     84  CE1        1.0680  -19.4490    0.6390 C.ar   34  PHE34      -0.0003
     85  CE2        1.8360  -17.1980    0.3070 C.ar   34  PHE34      -0.0003
     86  CZ         1.6360  -18.4770   -0.2260 C.ar   34  PHE34      -0.0000
     87  N         -4.6100  -18.9740   -9.1850 N.3    56  THR56      -0.1218
     88  CA        -3.8970  -18.4700   -8.0110 C.3    56  THR56       0.1862
     89  C         -2.8300  -17.4090   -8.2420 C.2    56  THR56       0.2287
     90  O         -2.7980  -16.3870   -7.5460 O.2    56  THR56      -0.2866
     91  CB        -3.3420  -19.6950   -7.2550 C.3    56  THR56       0.1770
     92  OG1       -4.4490  -20.5000   -6.8050 O.3    56  THR56      -0.2211
     93  CG2       -2.6670  -19.2690   -6.0470 C.3    56  THR56       0.0375
     94  N         -4.4780  -14.2060   -8.8260 N.3    59  SER59      -0.1202
     95  CA        -5.1870  -13.7290   -7.5960 C.3    59  SER59       0.2020
     96  C         -4.3090  -12.9920   -6.6250 C.2    59  SER59       0.2619
     97  O         -4.7980  -12.2240   -5.7670 O.2    59  SER59      -0.2717
     98  CB        -5.7870  -14.9410   -6.8320 C.3    59  SER59       0.2103
     99  OG        -6.6750  -15.6520   -7.6630 O.3    59  SER59      -0.2182
    100  N         -2.9930  -13.1420   -6.7080 N.am   60  ILE60      -0.1966
    101  CA        -2.0540  -12.4800   -5.8030 C.3    60  ILE60       0.1712
    102  C         -1.8900  -11.0540   -6.3170 C.2    60  ILE60       0.2458
    103  O         -1.7180  -10.9250   -7.5170 O.2    60  ILE60      -0.2730
    104  CB        -0.6930  -13.2490   -5.8380 C.3    60  ILE60       0.0289
    105  CG1       -0.8320  -14.6980   -5.2440 C.3    60  ILE60       0.0022
    106  CG2        0.3890  -12.4700   -5.0800 C.3    60  ILE60       0.0023
    107  CD1        0.4130  -15.5830   -5.4620 C.3    60  ILE60       0.0001
    108  N         -1.8770  -10.0390   -5.4040 N.am   61  PRO61      -0.2727
    109  CA        -1.6220   -8.6590   -5.8250 C.3    61  PRO61       0.1402
    110  C         -0.2610   -8.5430   -6.5500 C.2    61  PRO61       0.2269
    111  O          0.7710   -9.0220   -6.0270 O.2    61  PRO61      -0.2865
    112  CB        -1.7070   -7.8520   -4.4910 C.3    61  PRO61       0.0296
    113  CG        -2.5650   -8.6870   -3.5860 C.3    61  PRO61       0.0237
    114  CD        -2.2890  -10.1360   -3.9920 C.3    61  PRO61       0.0939
    115  N          2.9010   -8.1720   -4.7270 N.3    64  ASN64      -0.1240
    116  CA         3.5070   -9.2890   -4.0160 C.3    64  ASN64       0.1653
    117  C          3.9650  -10.3890   -4.9350 C.2    64  ASN64       0.2266
    118  O          4.3550  -11.4700   -4.4400 O.2    64  ASN64      -0.2867
    119  CB         2.5420   -9.8860   -2.9980 C.3    64  ASN64       0.1155
    120  CG         2.2050   -8.9190   -1.8900 C.2    64  ASN64       0.2627
    121  OD1        3.0550   -8.5730   -1.0710 O.2    64  ASN64      -0.2716
    122  ND2        0.9750   -8.5120   -1.8400 N.am   64  ASN64      -0.0877
    123  N          6.1410  -14.1780   -5.3590 N.3    67  LEU67      -0.1245
    124  CA         6.2920  -14.2960   -3.9070 C.3    67  LEU67       0.1561
    125  C          7.8140  -14.2550   -3.5600 C.2    67  LEU67       0.2260
    126  O          8.5530  -15.1250   -4.0130 O.2    67  LEU67      -0.2867
    127  CB         5.5910  -15.5700   -3.4680 C.3    67  LEU67       0.0270
    128  CG         4.0630  -15.5290   -3.6680 C.3    67  LEU67       0.0019
    129  CD1        3.4950  -16.8760   -3.2460 C.3    67  LEU67       0.0001
    130  CD2        3.5230  -14.4380   -2.7740 C.3    67  LEU67       0.0001
    131  N          0.6090  -24.1160   -3.1040 N.3   115  VAL115     -0.1245
    132  CA        -0.0790  -22.9650   -2.4960 C.3   115  VAL115      0.1561
    133  C         -1.4820  -22.7680   -3.1540 C.2   115  VAL115      0.2260
    134  O         -2.1090  -21.7870   -2.8160 O.2   115  VAL115     -0.2867
    135  CB         0.7910  -21.6820   -2.4930 C.3   115  VAL115      0.0252
    136  CG1        2.0880  -21.9690   -1.7030 C.3   115  VAL115      0.0019
    137  CG2        1.0390  -21.0970   -3.8900 C.3   115  VAL115      0.0019
    138  N         -4.1890  -29.1560   -5.3040 N.3   121  TYR121     -0.1241
    139  CA        -4.3070  -29.7670   -3.9640 C.3   121  TYR121      0.1605
    140  C         -4.8150  -31.1770   -4.0470 C.2   121  TYR121      0.2264
    141  O         -4.3010  -32.0790   -3.3570 O.2   121  TYR121     -0.2867
    142  CB        -5.3330  -28.9880   -3.1110 C.3   121  TYR121      0.0534
    143  CG        -4.9200  -27.5980   -2.6200 C.ar  121  TYR121     -0.0201
    144  CD1       -3.6130  -27.3340   -2.0670 C.ar  121  TYR121     -0.0009
    145  CD2       -5.8230  -26.5270   -2.6260 C.ar  121  TYR121     -0.0009
    146  CE1       -3.2840  -26.0890   -1.5020 C.ar  121  TYR121      0.0417
    147  CE2       -5.4870  -25.2930   -2.0950 C.ar  121  TYR121      0.0417
    148  CZ        -4.1970  -25.0380   -1.5760 C.ar  121  TYR121      0.1957
    149  OH        -3.9670  -23.8130   -1.0160 O.3   121  TYR121     -0.2866
    150  N         -5.1270  -23.5780    7.6290 N.3   136  THR136     -0.1218
    151  CA        -5.6710  -22.5460    8.5700 C.3   136  THR136      0.1862
    152  C         -7.1900  -22.7370    8.5080 C.2   136  THR136      0.2287
    153  O         -7.8110  -22.6740    7.4300 O.2   136  THR136     -0.2866
    154  CB        -5.2630  -21.1530    8.0950 C.3   136  THR136      0.1770
    155  OG1       -3.8350  -21.0110    8.0350 O.3   136  THR136     -0.2211
    156  CG2       -5.8440  -20.0930    9.1130 C.3   136  THR136      0.0375
@<TRIPOS>BOND
     1    87    88    1
     2    94    95    1
     3    89    88    1
     4    89    90    2
     5    88    91    1
     6    99    98    1
     7    95    98    1
     8    95    96    1
     9   103   102    2
    10    91    92    1
    11    91    93    1
    12   100    96   am
    13   100   101    1
    14    96    97    2
    15   110   111    2
    16   110   109    1
    17   102   101    1
    18   102   108   am
    19   104   101    1
    20   104   105    1
    21   104   106    1
    22   109   108    1
    23   109   112    1
    24   107   105    1
    25    21    22    1
    26   108   114    1
    27   123   124    1
    28   138   139    1
    29   117   118    2
    30   117   116    1
    31   115   116    1
    32   112   113    1
    33    22    25    1
    34    22    23    1
    35   140   139    1
    36   140   141    2
    37   116   119    1
    38   126   125    2
    39   114   113    1
    40    25    26    1
    41   139   142    1
    42   124   125    1
    43   124   127    1
    44   137   135    1
    45   128   127    1
    46   128   129    1
    47   128   130    1
    48    24    23    2
    49   133   134    2
    50   133   132    1
    51    28    26   ar
    52   142   143    1
    53   131   132    1
    54    26    27   ar
    55    23    29   am
    56   119   120    1
    57   145   143   ar
    58   145   147   ar
    59   143   144   ar
    60   132   135    1
    61   135   136    1
    62   147   148   ar
    63   144   146   ar
    64   120   122   am
    65   120   121    2
    66    29    30    1
    67   148   146   ar
    68   148   149    1
    69    30    31    1
    70    30    33    1
    71    32    31    2
    72    36    34    1
    73    86    85   ar
    74    86    84   ar
    75    34    33    1
    76    34    35    1
    77    85    83   ar
    78    84    82   ar
    79     4     3    2
    80    15    13    1
    81     1     2    1
    82    83    81   ar
    83    61    63   ar
    84    61    59   ar
    85     7     5    1
    86    82    81   ar
    87     3     2    1
    88     3     9   am
    89    63    62   ar
    90    13    10    1
    91    13    14    1
    92    59    58   ar
    93    81    80    1
    94    10     9    1
    95    10    11    1
    96     2     5    1
    97    42    43    1
    98    42    41    1
    99    19    18    2
   100     5     6    1
   101    62    60   ar
   102    43    37    1
   103    16    11   am
   104    16    17    1
   105    58    60   ar
   106    58    57    1
   107    11    12    2
   108    41    38    1
   109    79    78    2
   110    80    77    1
   111    18    17    1
   112     6     8    1
   113    37    38    1
   114    78    77    1
   115    57    54    1
   116    38    39    1
   117    17    20    1
   118    77    76    1
   119    56    55    2
   120    54    55    1
   121    54    53    1
   122    52    50   ar
   123    39    40    2
   124    76    66   am
   125    53    46   am
   126    50    51   ar
   127    50    49    1
   128    47    46    2
   129    46    45    1
   130    67    66    2
   131    66    65    1
   132   153   152    2
   133   150   151    1
   134    49    48    1
   135    48    45    1
   136   155   154    1
   137   154   151    1
   138   154   156    1
   139    45    44    1
   140    64    65    1
   141   152   151    1
   142    65    68    1
   143    71    73   ar
   144    71    69   ar
   145    73    74   ar
   146    68    69    1
   147    69    70   ar
   148    74    75    1
   149    74    72   ar
   150    70    72   ar
