@<TRIPOS>MOLECULE
tmp/5hveA00.pdb
 178 172 0 0 0
SMALL
GASTEIGER

@<TRIPOS>ATOM
      1  N         -0.3670   25.4100   24.2190 N.3     7  ILE7       -0.1231
      2  CA        -0.8450   24.4060   23.2750 C.3     7  ILE7        0.1692
      3  C         -2.1490   23.7390   23.8390 C.2     7  ILE7        0.2592
      4  O         -2.1480   23.3870   24.9840 O.2     7  ILE7       -0.2718
      5  CB         0.3220   23.4170   22.8840 C.3     7  ILE7        0.0266
      6  CG1       -0.1710   22.4770   21.7960 C.3     7  ILE7        0.0019
      7  CG2        0.8590   22.6460   24.0970 C.3     7  ILE7        0.0020
      8  CD1        1.0180   21.7460   21.0890 C.3     7  ILE7        0.0001
      9  N         -3.1210   23.5050   22.9540 N.am    8  VAL8       -0.1966
     10  CA        -4.4120   22.9850   23.3470 C.3     8  VAL8        0.1727
     11  C         -5.0800   22.3660   22.1380 C.2     8  VAL8        0.2616
     12  O         -4.7840   22.7440   21.0100 O.2     8  VAL8       -0.2715
     13  CB        -5.2930   24.1690   23.8680 C.3     8  VAL8        0.0290
     14  CG1       -5.6910   25.1360   22.7460 C.3     8  VAL8        0.0023
     15  CG2       -6.5180   23.6300   24.6560 C.3     8  VAL8        0.0023
     16  N         -5.9690   21.4240   22.4260 N.am    9  ALA9       -0.1977
     17  CA        -6.9480   20.9360   21.4250 C.3     9  ALA9        0.1597
     18  C         -8.3070   21.3300   21.9580 C.2     9  ALA9        0.2287
     19  O         -8.6060   21.1530   23.1540 O.2     9  ALA9       -0.2864
     20  CB        -6.7850   19.4290   21.1840 C.3     9  ALA9        0.0319
     21  N        -12.4320   21.6200   26.2360 N.3    16  ILE16      -0.1231
     22  CA       -11.0900   21.0020   26.3400 C.3    16  ILE16       0.1692
     23  C        -11.0680   19.7370   27.2220 C.2    16  ILE16       0.2592
     24  O        -10.1300   18.9580   27.1400 O.2    16  ILE16      -0.2718
     25  CB        -9.9610   21.9860   26.7550 C.3    16  ILE16       0.0266
     26  CG1      -10.2330   22.5590   28.1430 C.3    16  ILE16       0.0019
     27  CG2       -9.9490   23.1000   25.6920 C.3    16  ILE16       0.0020
     28  CD1       -9.0100   23.3670   28.7380 C.3    16  ILE16       0.0001
     29  N        -12.0850   19.4910   28.0410 N.am   17  GLY17      -0.1957
     30  CA       -12.0210   18.3160   28.8850 C.3    17  GLY17       0.1869
     31  C        -13.4340   18.0130   29.4200 C.2    17  GLY17       0.2309
     32  O        -14.3470   18.8600   29.3460 O.2    17  GLY17      -0.2863
     33  N        -12.1240   15.0320   33.5390 N.3    20  GLY20      -0.1210
     34  CA       -10.6630   14.7210   33.6530 C.3    20  GLY20       0.1956
     35  C        -10.1210   14.0180   32.4650 C.2    20  GLY20       0.2612
     36  O         -8.9490   13.6480   32.4570 O.2    20  GLY20      -0.2717
     37  N        -10.9100   13.8960   31.3860 N.am   21  ASP21      -0.1959
     38  CA       -10.5130   13.2080   30.1780 C.3    21  ASP21       0.1840
     39  C        -10.7410   14.1050   28.9940 C.2    21  ASP21       0.2621
     40  O        -11.3340   15.2110   29.1680 O.2    21  ASP21      -0.2715
     41  CB       -11.4360   11.9630   30.0730 C.3    21  ASP21       0.1450
     42  CG       -10.7380   10.7710   29.4850 C.2    21  ASP21       0.3671
     43  OD1       -9.9120   10.9360   28.5700 O.co2  21  ASP21      -0.2456
     44  OD2      -11.0020    9.6610   29.9990 O.co2  21  ASP21      -0.2456
     45  N        -10.2060   13.7260   27.8490 N.am   22  LEU22      -0.1977
     46  CA       -10.6050   14.4030   26.6000 C.3    22  LEU22       0.1596
     47  C        -12.1210   14.2860   26.3460 C.2    22  LEU22       0.2287
     48  O        -12.6880   13.2080   26.6350 O.2    22  LEU22      -0.2864
     49  CB        -9.9020   13.6660   25.4570 C.3    22  LEU22       0.0297
     50  CG        -8.3620   13.6320   25.4020 C.3    22  LEU22       0.0022
     51  CD1       -7.7160   12.7200   24.3150 C.3    22  LEU22       0.0001
     52  CD2       -7.8340   15.0620   25.3710 C.3    22  LEU22       0.0001
     53  N        -13.4130   14.0290   23.4280 N.3    24  TRP24      -0.1241
     54  CA       -13.4450   13.1450   22.2160 C.3    24  TRP24       0.1605
     55  C        -12.7030   11.8570   22.4900 C.2    24  TRP24       0.2264
     56  O        -11.9130   11.7780   23.4130 O.2    24  TRP24      -0.2867
     57  CB       -12.9090   13.9590   20.9970 C.3    24  TRP24       0.0550
     58  CG       -11.6520   14.7030   21.3320 C.ar   24  TRP24       0.0003
     59  CD1      -10.3480   14.2240   21.2660 C.ar   24  TRP24       0.0946
     60  CD2      -11.5700   16.0710   21.7940 C.ar   24  TRP24       0.0152
     61  NE1       -9.4380   15.1920   21.7450 N.ar   24  TRP24      -0.2442
     62  CE2      -10.1430   16.3590   22.0190 C.ar   24  TRP24       0.0810
     63  CE3      -12.5300   17.0970   22.0000 C.ar   24  TRP24       0.0012
     64  CZ2       -9.7340   17.6090   22.5120 C.ar   24  TRP24       0.0191
     65  CZ3      -12.0940   18.3280   22.4680 C.ar   24  TRP24       0.0001
     66  CH2      -10.7080   18.5660   22.7420 C.ar   24  TRP24       0.0015
     67  N         -3.0440   13.2650   17.0080 N.3    30  GLU30      -0.1231
     68  CA        -3.1280   14.5670   17.6620 C.3    30  GLU30       0.1699
     69  C         -2.2110   14.5720   18.8620 C.2    30  GLU30       0.2592
     70  O         -1.4450   15.4990   19.1270 O.2    30  GLU30      -0.2718
     71  CB        -4.5620   14.9050   18.1120 C.3    30  GLU30       0.0402
     72  CG        -4.8180   16.4030   18.1290 C.3    30  GLU30       0.1161
     73  CD        -4.2340   17.1420   19.3310 C.2    30  GLU30       0.3649
     74  OE1       -3.7020   18.2500   19.1220 O.co2  30  GLU30      -0.2457
     75  OE2       -4.2300   16.6290   20.4600 O.co2  30  GLU30      -0.2457
     76  N         -2.2120   13.4970   19.6520 N.am   31  PHE31      -0.1976
     77  CA        -1.2490   13.4210   20.7190 C.3    31  PHE31       0.1639
     78  C          0.2150   13.3670   20.2460 C.2    31  PHE31       0.2290
     79  O          1.1220   13.9550   20.8590 O.2    31  PHE31      -0.2864
     80  CB        -1.5400   12.1290   21.5370 C.3    31  PHE31       0.0560
     81  CG        -0.6480   11.9930   22.6940 C.ar   31  PHE31      -0.0200
     82  CD1       -0.6470   12.9690   23.7520 C.ar   31  PHE31      -0.0042
     83  CD2        0.1780   10.8560   22.8210 C.ar   31  PHE31      -0.0042
     84  CE1        0.1570   12.7740   24.8770 C.ar   31  PHE31      -0.0003
     85  CE2        1.0200   10.6970   23.9050 C.ar   31  PHE31      -0.0003
     86  CZ         1.0080   11.6420   24.9350 C.ar   31  PHE31      -0.0000
     87  N          1.2480   14.8790   17.6410 N.3    33  TYR33      -0.1227
     88  CA         1.5670   16.2930   17.3020 C.3    33  TYR33       0.1736
     89  C          1.9630   17.0740   18.5950 C.2    33  TYR33       0.2595
     90  O          2.9540   17.7890   18.6590 O.2    33  TYR33      -0.2718
     91  CB         0.3670   16.9290   16.6180 C.3    33  TYR33       0.0548
     92  CG         0.4940   18.4230   16.4160 C.ar   33  TYR33      -0.0200
     93  CD1        1.2720   18.9610   15.3850 C.ar   33  TYR33      -0.0009
     94  CD2       -0.1630   19.2970   17.2830 C.ar   33  TYR33      -0.0009
     95  CE1        1.3640   20.3590   15.2030 C.ar   33  TYR33       0.0417
     96  CE2       -0.0880   20.6770   17.0720 C.ar   33  TYR33       0.0417
     97  CZ         0.6890   21.1590   16.0550 C.ar   33  TYR33       0.1957
     98  OH         0.7600   22.5480   15.8020 O.3    33  TYR33      -0.2866
     99  N          1.1110   16.9420   19.6390 N.am   34  PHE34      -0.1976
    100  CA         1.4330   17.5720   20.9300 C.3    34  PHE34       0.1639
    101  C          2.8290   17.2040   21.4360 C.2    34  PHE34       0.2290
    102  O          3.5960   18.0840   21.9090 O.2    34  PHE34      -0.2864
    103  CB         0.3110   17.1780   21.9280 C.3    34  PHE34       0.0560
    104  CG         0.6560   17.4640   23.3460 C.ar   34  PHE34      -0.0200
    105  CD1        0.5310   18.7880   23.8290 C.ar   34  PHE34      -0.0042
    106  CD2        1.1960   16.5180   24.1900 C.ar   34  PHE34      -0.0042
    107  CE1        0.9340   19.1050   25.1300 C.ar   34  PHE34      -0.0003
    108  CE2        1.6130   16.8170   25.4890 C.ar   34  PHE34      -0.0003
    109  CZ         1.4510   18.0960   26.0110 C.ar   34  PHE34      -0.0000
    110  N         -4.4750   18.7270   35.1520 N.3    56  THR56      -0.1218
    111  CA        -3.8400   18.3080   33.9040 C.3    56  THR56       0.1862
    112  C         -2.8040   17.2290   34.0930 C.2    56  THR56       0.2287
    113  O         -2.8120   16.1950   33.3600 O.2    56  THR56      -0.2866
    114  CB        -3.3010   19.5120   33.1130 C.3    56  THR56       0.1770
    115  OG1       -4.4170   20.3750   32.7590 O.3    56  THR56      -0.2211
    116  CG2       -2.7140   19.1690   31.8350 C.3    56  THR56       0.0375
    117  N         -4.4340   14.0420   34.6640 N.3    59  SER59      -0.1202
    118  CA        -5.2160   13.6090   33.5120 C.3    59  SER59       0.2020
    119  C         -4.3650   12.9530   32.4360 C.2    59  SER59       0.2619
    120  O         -4.9410   12.2600   31.5870 O.2    59  SER59      -0.2717
    121  CB        -5.9040   14.8080   32.8910 C.3    59  SER59       0.2103
    122  OG        -5.0030   15.5530   32.0860 O.3    59  SER59      -0.2182
    123  N         -3.0360   13.1560   32.4250 N.am   60  ILE60      -0.1966
    124  CA        -2.1400   12.5350   31.4520 C.3    60  ILE60       0.1712
    125  C         -1.9530   11.0540   31.8640 C.2    60  ILE60       0.2458
    126  O         -1.7780   10.7620   33.0550 O.2    60  ILE60      -0.2730
    127  CB        -0.7620   13.2310   31.4630 C.3    60  ILE60       0.0289
    128  CG1       -0.9420   14.6540   30.9200 C.3    60  ILE60       0.0022
    129  CG2        0.2800   12.4350   30.5930 C.3    60  ILE60       0.0023
    130  CD1        0.2620   15.5630   31.2170 C.3    60  ILE60       0.0001
    131  N         -2.0210   10.1380   30.8310 N.am   61  PRO61      -0.2727
    132  CA        -1.8480    8.7480   31.2000 C.3    61  PRO61       0.1402
    133  C         -0.5210    8.5070   31.8850 C.2    61  PRO61       0.2269
    134  O          0.5010    9.0400   31.4190 O.2    61  PRO61      -0.2865
    135  CB        -1.8950    8.0330   29.8470 C.3    61  PRO61       0.0296
    136  CG        -2.8650    8.8820   29.0380 C.3    61  PRO61       0.0237
    137  CD        -2.4420   10.2740   29.4130 C.3    61  PRO61       0.0939
    138  N          6.0870   13.8640   31.0290 N.3    67  LEU67      -0.1245
    139  CA         6.2260   13.9700   29.5760 C.3    67  LEU67       0.1561
    140  C          7.7680   13.8730   29.2820 C.2    67  LEU67       0.2260
    141  O          8.5100   14.7180   29.7460 O.2    67  LEU67      -0.2867
    142  CB         5.5740   15.2930   29.0440 C.3    67  LEU67       0.0270
    143  CG         4.0230   15.3760   29.2780 C.3    67  LEU67       0.0019
    144  CD1        3.5490   16.7850   28.9060 C.3    67  LEU67       0.0001
    145  CD2        3.3760   14.3210   28.4070 C.3    67  LEU67       0.0001
    146  N          0.6140   23.6600   28.9320 N.3   115  VAL115     -0.1301
    147  CA        -0.1540   22.5620   28.3370 C.3   115  VAL115      0.1246
    148  C         -1.5590   22.2980   29.0210 C.3   115  VAL115      0.2009
    149  O         -2.1550   21.2760   28.6220 O.3   115  VAL115     -0.2188
    150  CB         0.6610   21.2630   28.2220 C.3   115  VAL115      0.0202
    151  CG1        1.9820   21.4860   27.5090 C.3   115  VAL115      0.0016
    152  CG2        0.9860   20.6400   29.6030 C.3   115  VAL115      0.0016
    153  N         -4.1700   28.7400   31.0960 N.3   121  TYR121     -0.1241
    154  CA        -4.3430   29.3940   29.7810 C.3   121  TYR121      0.1605
    155  C         -4.8500   30.7950   29.8690 C.2   121  TYR121      0.2264
    156  O         -4.2980   31.6900   29.2250 O.2   121  TYR121     -0.2867
    157  CB        -5.3210   28.5850   28.9270 C.3   121  TYR121      0.0534
    158  CG        -4.8590   27.2030   28.4900 C.ar  121  TYR121     -0.0201
    159  CD1       -3.6010   27.0130   27.8800 C.ar  121  TYR121     -0.0009
    160  CD2       -5.7870   26.1270   28.4860 C.ar  121  TYR121     -0.0009
    161  CE1       -3.2670   25.7450   27.3820 C.ar  121  TYR121      0.0417
    162  CE2       -5.5010   24.8740   28.0130 C.ar  121  TYR121      0.0417
    163  CZ        -4.2300   24.7010   27.4260 C.ar  121  TYR121      0.1957
    164  OH        -3.9140   23.4190   26.9580 O.3   121  TYR121     -0.2866
    165  N         -5.3460   23.1460   18.2700 N.3   136  THR136     -0.1218
    166  CA        -5.9700   22.1650   17.3240 C.3   136  THR136      0.1862
    167  C         -7.4570   22.3820   17.3930 C.2   136  THR136      0.2287
    168  O         -8.0300   22.2160   18.4720 O.2   136  THR136     -0.2866
    169  CB        -5.5820   20.7600   17.7900 C.3   136  THR136      0.1770
    170  OG1       -4.1650   20.6020   17.8490 O.3   136  THR136     -0.2211
    171  CG2       -6.2140   19.7350   16.8260 C.3   136  THR136      0.0375
    172  N        -15.1040   21.6670   30.8150 N.3   146  THR146     -0.1218
    173  CA       -13.9720   22.6130   31.0110 C.3   146  THR146      0.1862
    174  C        -13.6550   23.2280   29.6080 C.2   146  THR146      0.2287
    175  O        -13.7380   22.4360   28.6370 O.2   146  THR146     -0.2866
    176  CB       -12.7030   21.9410   31.6120 C.3   146  THR146      0.1770
    177  OG1      -12.1620   21.0310   30.7090 O.3   146  THR146     -0.2211
    178  CG2      -13.0100   21.0020   32.6980 C.3   146  THR146      0.0375
@<TRIPOS>BOND
     1    95    93   ar
     2    95    97   ar
     3    93    92   ar
     4    98    97    1
     5    97    96   ar
     6    92    91    1
     7    92    94   ar
     8    91    88    1
     9   171   169    1
    10    67    68    1
    11    96    94   ar
    12    88    87    1
    13    88    89    1
    14   166   167    1
    15   166   169    1
    16   166   165    1
    17   167   168    2
    18    68    71    1
    19    68    69    1
    20   169   170    1
    21    71    72    1
    22    72    73    1
    23    89    90    2
    24    89    99   am
    25    69    70    2
    26    69    76   am
    27    74    73   ar
    28    73    75   ar
    29    99   100    1
    30    76    77    1
    31    78    77    1
    32    78    79    2
    33    77    80    1
    34   100   101    1
    35   100   103    1
    36    57    58    1
    37    57    54    1
    38    12    11    2
    39     8     6    1
    40    20    17    1
    41    59    58   ar
    42    59    61   ar
    43    58    60   ar
    44    17    18    1
    45    17    16    1
    46   101   102    2
    47    80    81    1
    48    61    62   ar
    49    60    63   ar
    50    60    62   ar
    51     6     5    1
    52   103   104    1
    53    18    19    2
    54    63    65   ar
    55    62    64   ar
    56    11    16   am
    57    11    10    1
    58    54    55    1
    59    54    53    1
    60    65    66   ar
    61    55    56    2
    62    64    66   ar
    63    81    83   ar
    64    81    82   ar
    65    14    13    1
    66    83    85   ar
    67     5     2    1
    68     5     7    1
    69     9    10    1
    70     9     3   am
    71     2     3    1
    72     2     1    1
    73   104   105   ar
    74   104   106   ar
    75    10    13    1
    76    82    84   ar
    77   105   107   ar
    78     3     4    2
    79    13    15    1
    80    85    86   ar
    81   106   108   ar
    82    51    50    1
    83    84    86   ar
    84   107   109   ar
    85    52    50    1
    86    50    49    1
    87    49    46    1
    88   108   109   ar
    89    27    25    1
    90    21    22    1
    91    22    25    1
    92    22    23    1
    93    47    46    1
    94    47    48    2
    95    46    45    1
    96    25    26    1
    97   164   163    1
    98    24    23    2
    99    23    29   am
   100   161   163   ar
   101   161   159   ar
   102   163   162   ar
   103   151   150    1
   104    45    39   am
   105   159   158   ar
   106   162   160   ar
   107    29    30    1
   108    26    28    1
   109   150   147    1
   110   150   152    1
   111   147   146    1
   112   147   148    1
   113   145   143    1
   114   160   158   ar
   115   158   157    1
   116    43    42   ar
   117   149   148    1
   118   175   174    2
   119    30    31    1
   120   144   143    1
   121   157   154    1
   122    39    40    2
   123    39    38    1
   124   136   137    1
   125   136   135    1
   126   142   143    1
   127   142   139    1
   128   156   155    2
   129   140   139    1
   130   140   141    2
   131    32    31    2
   132   137   131    1
   133    42    44   ar
   134    42    41    1
   135   139   138    1
   136   174   173    1
   137   154   155    1
   138   154   153    1
   139   135   132    1
   140    41    38    1
   141    38    37    1
   142   129   127    1
   143   177   176    1
   144   172   173    1
   145   131   132    1
   146   131   125   am
   147   128   130    1
   148   128   127    1
   149   173   176    1
   150   132   133    1
   151    37    35   am
   152   134   133    2
   153   124   127    1
   154   124   125    1
   155   124   123    1
   156   120   119    2
   157   176   178    1
   158   116   114    1
   159   125   126    2
   160   122   121    1
   161   123   119   am
   162   119   118    1
   163    36    35    2
   164    35    34    1
   165   115   114    1
   166   121   118    1
   167   114   111    1
   168   113   112    2
   169   118   117    1
   170    33    34    1
   171   111   112    1
   172   111   110    1
