@<TRIPOS>MOLECULE
tmp/5hvsA00.pdb
 111 108 0 0 0
SMALL
GASTEIGER

@<TRIPOS>ATOM
      1  N         -9.6150   -5.9810   -8.4120 N.3     1  PRO1       -0.2102
      2  CA       -10.5930   -6.2090   -9.4730 C.3     1  PRO1        0.1504
      3  C        -10.3020   -7.4690  -10.2880 C.2     1  PRO1        0.2575
      4  O         -9.1800   -7.9640  -10.3070 O.2     1  PRO1       -0.2718
      5  CB       -10.4180   -4.9730  -10.3730 C.3     1  PRO1        0.0282
      6  CG        -9.9420   -3.9000   -9.4690 C.3     1  PRO1        0.0208
      7  CD        -9.3360   -4.5400   -8.2340 C.3     1  PRO1        0.0893
      8  N        -11.3170   -7.9620  -10.9830 N.am    2  MET2       -0.1980
      9  CA       -11.1730   -9.1340  -11.8450 C.3     2  MET2        0.1605
     10  C        -11.7230   -8.7330  -13.1990 C.2     2  MET2        0.2287
     11  O        -12.8690   -8.2640  -13.2830 O.2     2  MET2       -0.2864
     12  CB       -11.9860  -10.3070  -11.2990 C.3     2  MET2        0.0413
     13  CG       -11.8250  -11.5910  -12.0930 C.3     2  MET2        0.0598
     14  SD       -12.9600  -12.9050  -11.6100 S.3     2  MET2       -0.1393
     15  CE       -12.3480  -13.2560   -9.9610 C.3     2  MET2        0.0692
     16  N         -7.9530    3.1730  -10.1710 N.3    31  GLY31      -0.1210
     17  CA        -7.2200    3.6310   -8.9960 C.3    31  GLY31       0.1956
     18  C         -6.9820    2.5610   -7.9440 C.2    31  GLY31       0.2612
     19  O         -6.7350    2.8680   -6.7680 O.2    31  GLY31      -0.2717
     20  N         -7.0910    1.3030   -8.3640 N.am   32  LYS32      -0.1966
     21  CA        -6.8450    0.1570   -7.5140 C.3    32  LYS32       0.1713
     22  C         -5.3940   -0.3020   -7.6880 C.2    32  LYS32       0.2458
     23  O         -4.8320   -0.1540   -8.7630 O.2    32  LYS32      -0.2730
     24  CB        -7.7740   -0.9960   -7.8910 C.3    32  LYS32       0.0311
     25  CG        -9.2520   -0.7140   -7.6890 C.3    32  LYS32       0.0038
     26  CD        -9.6580   -0.9610   -6.2560 C.3    32  LYS32       0.0206
     27  CE       -11.1630   -1.1020   -6.0990 C.3    32  LYS32       0.1093
     28  NZ       -11.5290   -1.2190   -4.6680 N.3    32  LYS32      -0.1314
     29  N         -4.8000   -0.8800   -6.6410 N.am   33  PRO33      -0.2727
     30  CA        -3.3920   -1.2540   -6.7660 C.3    33  PRO33       0.1402
     31  C         -3.2370   -2.4190   -7.7420 C.2    33  PRO33       0.2269
     32  O         -4.0290   -3.3730   -7.6890 O.2    33  PRO33      -0.2865
     33  CB        -2.9850   -1.6480   -5.3460 C.3    33  PRO33       0.0296
     34  CG        -4.1980   -1.4670   -4.4880 C.3    33  PRO33       0.0237
     35  CD        -5.3820   -1.3050   -5.3610 C.3    33  PRO33       0.0939
     36  N         -1.2530   -4.9200   -8.0150 N.3    35  GLN35      -0.1231
     37  CA        -0.9960   -6.2360   -7.4480 C.3    35  GLN35       0.1698
     38  C         -2.2980   -6.9790   -7.0550 C.2    35  GLN35       0.2592
     39  O         -2.2750   -8.1830   -6.8320 O.2    35  GLN35      -0.2718
     40  CB         0.0160   -6.1530   -6.2820 C.3    35  GLN35       0.0381
     41  CG        -0.4650   -5.5100   -4.9860 C.3    35  GLN35       0.0905
     42  CD        -0.2950   -3.9960   -4.9280 C.2    35  GLN35       0.2608
     43  OE1       -0.1230   -3.3290   -5.9540 O.2    35  GLN35      -0.2717
     44  NE2       -0.3640   -3.4390   -3.7150 N.am   35  GLN35      -0.0878
     45  N         -3.4190   -6.2540   -7.0110 N.am   36  TYR36      -0.1976
     46  CA        -4.7400   -6.8170   -6.7160 C.3    36  TYR36       0.1639
     47  C         -5.6400   -6.9560   -7.9470 C.2    36  TYR36       0.2290
     48  O         -6.8060   -7.3250   -7.8250 O.2    36  TYR36      -0.2864
     49  CB        -5.4320   -5.9570   -5.6630 C.3    36  TYR36       0.0560
     50  CG        -4.8440   -6.1650   -4.2970 C.ar   36  TYR36      -0.0198
     51  CD1       -5.1170   -7.3240   -3.5860 C.ar   36  TYR36      -0.0009
     52  CD2       -3.9910   -5.2160   -3.7150 C.ar   36  TYR36      -0.0009
     53  CE1       -4.5730   -7.5450   -2.3300 C.ar   36  TYR36       0.0417
     54  CE2       -3.4340   -5.4350   -2.4610 C.ar   36  TYR36       0.0417
     55  CZ        -3.7290   -6.6000   -1.7780 C.ar   36  TYR36       0.1957
     56  OH        -3.2090   -6.8270   -0.5190 O.3    36  TYR36      -0.2866
     57  N         -6.6770   -8.9370  -11.1730 N.3    38  ALA38      -0.1245
     58  CA        -6.5700  -10.1970  -11.9040 C.3    38  ALA38       0.1562
     59  C         -7.1940  -10.0410  -13.2960 C.2    38  ALA38       0.2260
     60  O         -8.2490   -9.3900  -13.4490 O.2    38  ALA38      -0.2867
     61  CB        -7.2550  -11.3160  -11.1260 C.3    38  ALA38       0.0290
     62  N        -15.3490   -7.0500  -12.4200 N.3    62  HIS62      -0.1226
     63  CA       -15.8550   -7.0450  -11.0490 C.3    62  HIS62       0.1752
     64  C        -14.9510   -6.1720  -10.2100 C.2    62  HIS62       0.2597
     65  O        -13.7380   -6.3110  -10.2690 O.2    62  HIS62      -0.2718
     66  CB       -15.8120   -8.4370  -10.4320 C.3    62  HIS62       0.0759
     67  CG       -16.7750   -9.4190  -11.0280 C.ar   62  HIS62       0.0818
     68  ND1      -16.5570  -10.0390  -12.2390 N.ar   62  HIS62      -0.2268
     69  CD2      -17.9470   -9.9120  -10.5570 C.ar   62  HIS62       0.1154
     70  CE1      -17.5580  -10.8650  -12.4960 C.ar   62  HIS62       0.1986
     71  NE2      -18.4100  -10.8150  -11.4870 N.ar   62  HIS62      -0.2212
     72  N        -15.5370   -5.3210   -9.3850 N.am   63  SER63      -0.1938
     73  CA       -14.7530   -4.4820   -8.4680 C.3    63  SER63       0.2055
     74  C        -15.5570   -4.1520   -7.2020 C.2    63  SER63       0.2642
     75  O        -16.7660   -4.0390   -7.2640 O.2    63  SER63      -0.2714
     76  CB       -14.3590   -3.1880   -9.1710 C.3    63  SER63       0.2130
     77  OG       -13.5500   -2.3810   -8.3350 O.3    63  SER63      -0.2179
     78  N        -14.8700   -3.9920   -6.0710 N.am   64  ILE64      -0.1977
     79  CA       -15.4780   -3.4370   -4.8580 C.3    64  ILE64       0.1596
     80  C        -15.3950   -1.9290   -4.9820 C.2    64  ILE64       0.2287
     81  O        -14.3170   -1.3130   -4.7840 O.2    64  ILE64      -0.2864
     82  CB       -14.7900   -3.8990   -3.5690 C.3    64  ILE64       0.0276
     83  CG1      -14.8570   -5.4170   -3.4580 C.3    64  ILE64       0.0022
     84  CG2      -15.4550   -3.2670   -2.3560 C.3    64  ILE64       0.0022
     85  CD1      -13.7430   -6.0140   -2.6300 C.3    64  ILE64       0.0001
     86  N        -19.2420   -5.2120   -6.5840 N.3   101  MET101     -0.1245
     87  CA       -19.3810   -6.3020   -5.6210 C.3   101  MET101      0.1570
     88  C        -19.2560   -5.8060   -4.1880 C.2   101  MET101      0.2261
     89  O        -18.4130   -4.9400   -3.8730 O.2   101  MET101     -0.2867
     90  CB       -18.3120   -7.3580   -5.8670 C.3   101  MET101      0.0387
     91  CG       -18.3950   -8.0130   -7.2360 C.3   101  MET101      0.0595
     92  SD       -19.8300   -9.0840   -7.3460 S.3   101  MET101     -0.1393
     93  CE       -19.2350  -10.4580   -6.3520 C.3   101  MET101      0.0692
     94  N        -16.5010  -11.0520   -1.8770 N.3   106  VAL106     -0.1245
     95  CA       -15.2540  -11.2770   -2.5930 C.3   106  VAL106      0.1561
     96  C        -14.2850  -11.9870   -1.6660 C.2   106  VAL106      0.2260
     97  O        -13.8160  -11.4020   -0.6680 O.2   106  VAL106     -0.2867
     98  CB       -14.6230   -9.9740   -3.1530 C.3   106  VAL106      0.0252
     99  CG1      -13.4060  -10.2780   -4.0020 C.3   106  VAL106      0.0019
    100  CG2      -15.6230   -9.1940   -4.0070 C.3   106  VAL106      0.0019
    101  N        -12.9110   -9.5400    1.8040 N.3   113  PHE113     -0.1241
    102  CA       -12.5000   -8.1390    1.9870 C.3   113  PHE113      0.1605
    103  C        -13.3440   -7.3370    2.9910 C.2   113  PHE113      0.2264
    104  O        -12.9600   -6.2230    3.3410 O.2   113  PHE113     -0.2867
    105  CB       -12.4450   -7.4180    0.6200 C.3   113  PHE113      0.0534
    106  CG       -11.2490   -7.7950   -0.2190 C.ar  113  PHE113     -0.0203
    107  CD1       -9.9690   -7.3610    0.1300 C.ar  113  PHE113     -0.0042
    108  CD2      -11.3900   -8.5850   -1.3410 C.ar  113  PHE113     -0.0042
    109  CE1       -8.8660   -7.7100   -0.6350 C.ar  113  PHE113     -0.0003
    110  CE2      -10.3000   -8.9330   -2.1090 C.ar  113  PHE113     -0.0003
    111  CZ        -9.0310   -8.5020   -1.7650 C.ar  113  PHE113     -0.0000
@<TRIPOS>BOND
     1    60    59    2
     2    59    58    1
     3    11    10    2
     4    10     9    1
     5    70    68   ar
     6    70    71   ar
     7    62    63    1
     8    68    67   ar
     9    13    14    1
    10    13    12    1
    11    58    57    1
    12    58    61    1
    13     9    12    1
    14     9     8    1
    15    14    15    1
    16    71    69   ar
    17    63    66    1
    18    63    64    1
    19    67    69   ar
    20    67    66    1
    21     8     3   am
    22     5     2    1
    23     5     6    1
    24     4     3    2
    25     3     2    1
    26    65    64    2
    27    64    72   am
    28    16    17    1
    29     2     1    1
    30     6     7    1
    31    72    73    1
    32    76    73    1
    33    76    77    1
    34    17    18    1
    35    23    22    2
    36    73    74    1
    37     1     7    1
    38    20    18   am
    39    20    21    1
    40    36    37    1
    41    47    48    2
    42    47    46    1
    43    18    19    2
    44    24    25    1
    45    24    21    1
    46    31    32    2
    47    31    30    1
    48    25    26    1
    49    22    21    1
    50    22    29   am
    51    37    38    1
    52    37    40    1
    53    92    91    1
    54    92    93    1
    55    75    74    2
    56    91    90    1
    57    74    78   am
    58    38    45   am
    59    38    39    2
    60    45    46    1
    61    30    29    1
    62    30    33    1
    63    46    49    1
    64    29    35    1
    65    86    87    1
    66    40    41    1
    67    26    27    1
    68    27    28    1
    69    78    79    1
    70    43    42    2
    71    90    87    1
    72    49    50    1
    73    87    88    1
    74    35    34    1
    75    33    34    1
    76    41    42    1
    77    80    79    1
    78    80    81    2
    79    42    44   am
    80    79    82    1
    81    50    52   ar
    82    50    51   ar
    83    88    89    2
    84   100    98    1
    85    99    98    1
    86    52    54   ar
    87    51    53   ar
    88    82    83    1
    89    82    84    1
    90    83    85    1
    91    98    95    1
    92    95    94    1
    93    95    96    1
    94    54    55   ar
    95    53    55   ar
    96   110   111   ar
    97   110   108   ar
    98    55    56    1
    99   111   109   ar
   100    96    97    2
   101   108   106   ar
   102   109   107   ar
   103   106   107   ar
   104   106   105    1
   105   105   102    1
   106   101   102    1
   107   102   103    1
   108   103   104    2
