@<TRIPOS>MOLECULE
tmp/5hvtB00.pdb
 102 99 0 0 0
SMALL
GASTEIGER

@<TRIPOS>ATOM
      1  N         48.3470  -35.0440   -6.8140 N.3     1  PRO1       -0.2102
      2  CA        47.3930  -34.9660   -7.9270 C.3     1  PRO1        0.1504
      3  C         46.9740  -36.3080   -8.4560 C.2     1  PRO1        0.2575
      4  O         47.6350  -37.3250   -8.1940 O.2     1  PRO1       -0.2718
      5  CB        48.2070  -34.2570   -9.0010 C.3     1  PRO1        0.0282
      6  CG        49.0630  -33.3240   -8.2340 C.3     1  PRO1        0.0208
      7  CD        49.2840  -33.9090   -6.8750 C.3     1  PRO1        0.0893
      8  N         45.8590  -36.3310   -9.1810 N.am    2  MET2       -0.1980
      9  CA        45.5070  -37.5150   -9.9370 C.3     2  MET2        0.1605
     10  C         45.1400  -37.1300  -11.3540 C.2     2  MET2        0.2287
     11  O         44.4500  -36.1280  -11.5850 O.2     2  MET2       -0.2864
     12  CB        44.3940  -38.3370   -9.3000 C.3     2  MET2        0.0413
     13  CG        43.2610  -37.5730   -8.6810 C.3     2  MET2        0.0598
     14  SD        42.1520  -38.6670   -7.7420 S.3     2  MET2       -0.1393
     15  CE        41.3800  -39.6640   -9.0110 C.3     2  MET2        0.0692
     16  N         54.3300  -30.7940   -7.2250 N.3    32  LYS32      -0.1231
     17  CA        53.9810  -31.7470   -6.2100 C.3    32  LYS32       0.1678
     18  C         54.9220  -32.9410   -6.2470 C.2    32  LYS32       0.2434
     19  O         55.3810  -33.3300   -7.3050 O.2    32  LYS32      -0.2733
     20  CB        52.5480  -32.2490   -6.4130 C.3    32  LYS32       0.0284
     21  CG        51.5000  -31.1310   -6.4420 C.3    32  LYS32       0.0035
     22  CD        50.8400  -30.9080   -5.0970 C.3    32  LYS32       0.0206
     23  CE        49.7940  -29.7930   -5.1810 C.3    32  LYS32       0.1093
     24  NZ        49.0150  -29.7990   -3.9040 N.3    32  LYS32      -0.1314
     25  N         55.1810  -33.5560   -5.1010 N.am   33  PRO33      -0.2729
     26  CA        56.0860  -34.7180   -5.1160 C.3    33  PRO33       0.1401
     27  C         55.5390  -35.9110   -5.8580 C.2    33  PRO33       0.2269
     28  O         54.3440  -36.2510   -5.7330 O.2    33  PRO33      -0.2865
     29  CB        56.3130  -35.0540   -3.6200 C.3    33  PRO33       0.0296
     30  CG        55.2930  -34.2940   -2.8780 C.3    33  PRO33       0.0237
     31  CD        54.6440  -33.2590   -3.7640 C.3    33  PRO33       0.0939
     32  N         53.2200  -38.7780   -4.5290 N.3    36  TYR36      -0.1241
     33  CA        51.7940  -38.5460   -4.2550 C.3    36  TYR36       0.1605
     34  C         50.9660  -38.3570   -5.5250 C.2    36  TYR36       0.2264
     35  O         49.7920  -38.0480   -5.4520 O.2    36  TYR36      -0.2867
     36  CB        51.6260  -37.3500   -3.3480 C.3    36  TYR36       0.0534
     37  CG        52.1790  -37.6070   -1.9590 C.ar   36  TYR36      -0.0201
     38  CD1       53.5480  -37.5160   -1.6980 C.ar   36  TYR36      -0.0009
     39  CD2       51.3370  -37.9830   -0.9240 C.ar   36  TYR36      -0.0009
     40  CE1       54.0430  -37.7450   -0.4120 C.ar   36  TYR36       0.0417
     41  CE2       51.8220  -38.2300    0.3510 C.ar   36  TYR36       0.0417
     42  CZ        53.1670  -38.1090    0.6100 C.ar   36  TYR36       0.1957
     43  OH        53.6330  -38.3450    1.9050 O.3    36  TYR36      -0.2866
     44  N         49.0160  -39.7560   -8.7040 N.3    38  ALA38      -0.1245
     45  CA        48.3950  -40.9560   -9.2000 C.3    38  ALA38       0.1562
     46  C         48.0280  -40.7640  -10.6690 C.2    38  ALA38       0.2260
     47  O         47.5390  -39.6960  -11.0380 O.2    38  ALA38      -0.2867
     48  CB        47.1350  -41.2930   -8.4080 C.3    38  ALA38       0.0290
     49  N         42.9620  -33.6660  -11.2960 N.3    62  HIS62      -0.1226
     50  CA        42.5490  -33.1430   -9.9960 C.3    62  HIS62       0.1752
     51  C         43.8180  -32.7460   -9.2250 C.2    62  HIS62       0.2597
     52  O         44.7790  -33.5200   -9.1700 O.2    62  HIS62      -0.2718
     53  CB        41.8170  -34.2110   -9.1730 C.3    62  HIS62       0.0759
     54  CG        40.5060  -34.6630   -9.7300 C.ar   62  HIS62       0.0818
     55  ND1       40.4050  -35.5000  -10.8200 N.ar   62  HIS62      -0.2268
     56  CD2       39.2370  -34.4070   -9.3370 C.ar   62  HIS62       0.1154
     57  CE1       39.1340  -35.7590  -11.0650 C.ar   62  HIS62       0.1986
     58  NE2       38.4030  -35.0950  -10.1860 N.ar   62  HIS62      -0.2212
     59  N         43.8120  -31.5690   -8.6110 N.am   63  SER63      -0.1938
     60  CA        44.9150  -31.1480   -7.7190 C.3    63  SER63       0.2055
     61  C         44.3750  -30.3050   -6.5720 C.2    63  SER63       0.2642
     62  O         43.3390  -29.6420   -6.7280 O.2    63  SER63      -0.2714
     63  CB        45.9710  -30.3720   -8.5130 C.3    63  SER63       0.2130
     64  OG        47.0760  -30.0600   -7.6760 O.3    63  SER63      -0.2179
     65  N         45.0520  -30.3570   -5.4240 N.am   64  ILE64      -0.1977
     66  CA        44.7450  -29.4650   -4.3040 C.3    64  ILE64       0.1596
     67  C         45.5480  -28.1910   -4.5570 C.2    64  ILE64       0.2287
     68  O         46.7550  -28.1550   -4.3340 O.2    64  ILE64      -0.2864
     69  CB        45.0730  -30.0930   -2.9350 C.3    64  ILE64       0.0276
     70  CG1       44.2090  -31.3290   -2.7050 C.3    64  ILE64       0.0022
     71  CG2       44.7860  -29.0820   -1.8300 C.3    64  ILE64       0.0022
     72  CD1       44.6150  -32.2210   -1.5430 C.3    64  ILE64       0.0001
     73  N         40.6550  -29.1780   -6.0270 N.3   101  MET101     -0.1245
     74  CA        39.9650  -29.8580   -4.9230 C.3   101  MET101      0.1570
     75  C         40.2880  -29.1920   -3.5910 C.2   101  MET101      0.2261
     76  O         41.4380  -28.8210   -3.3160 O.2   101  MET101     -0.2867
     77  CB        40.3980  -31.3280   -4.8340 C.3   101  MET101      0.0387
     78  CG        40.1610  -32.1360   -6.1090 C.3   101  MET101      0.0595
     79  SD        38.4040  -32.3360   -6.4200 S.3   101  MET101     -0.1393
     80  CE        37.8540  -33.4100   -5.0950 C.3   101  MET101      0.0692
     81  N         39.4310  -34.5320    0.0140 N.3   106  VAL106     -0.1231
     82  CA        40.2890  -35.5860   -0.5210 C.3   106  VAL106      0.1692
     83  C         40.7160  -36.5430    0.5960 C.2   106  VAL106      0.2592
     84  O         41.4480  -36.1560    1.5020 O.2   106  VAL106     -0.2718
     85  CB        41.5500  -34.9870   -1.1820 C.3   106  VAL106      0.0266
     86  CG1       42.4410  -36.0940   -1.7360 C.3   106  VAL106      0.0020
     87  CG2       41.1820  -34.0050   -2.2840 C.3   106  VAL106      0.0020
     88  N         40.2640  -37.7750    0.4930 N.am  107  GLY107     -0.1957
     89  CA        40.6040  -38.8410    1.4250 C.3   107  GLY107      0.1869
     90  C         41.8680  -39.5710    1.0150 C.2   107  GLY107      0.2309
     91  O         42.1250  -39.7770   -0.1910 O.2   107  GLY107     -0.2863
     92  N         43.2220  -34.8670    3.7520 N.3   113  PHE113     -0.1241
     93  CA        44.2290  -33.8370    3.8300 C.3   113  PHE113      0.1605
     94  C         43.6420  -32.5790    4.4710 C.2   113  PHE113      0.2264
     95  O         42.4220  -32.4930    4.7360 O.2   113  PHE113     -0.2867
     96  CB        44.7550  -33.5110    2.4250 C.3   113  PHE113      0.0534
     97  CG        45.5040  -34.6520    1.7870 C.ar  113  PHE113     -0.0203
     98  CD1       46.7330  -35.0480    2.2790 C.ar  113  PHE113     -0.0042
     99  CD2       44.9930  -35.3100    0.6980 C.ar  113  PHE113     -0.0042
    100  CE1       47.4330  -36.0930    1.6950 C.ar  113  PHE113     -0.0003
    101  CE2       45.6820  -36.3430    0.0920 C.ar  113  PHE113     -0.0003
    102  CZ        46.9070  -36.7460    0.5960 C.ar  113  PHE113     -0.0000
@<TRIPOS>BOND
     1    11    10    2
     2    10     9    1
     3    49    50    1
     4    57    55   ar
     5    57    58   ar
     6    47    46    2
     7    55    54   ar
     8    46    45    1
     9    58    56   ar
    10    50    51    1
    11    50    53    1
    12     9    12    1
    13     9     8    1
    14    54    56   ar
    15    54    53    1
    16    12    13    1
    17    51    52    2
    18    51    59   am
    19    45    44    1
    20    45    48    1
    21     8     3   am
    22    15    14    1
    23     5     6    1
    24     5     2    1
    25    13    14    1
    26    59    60    1
    27    63    60    1
    28    63    64    1
    29     3     4    2
    30     3     2    1
    31     6     7    1
    32     2     1    1
    33    60    61    1
    34    19    18    2
    35    16    17    1
    36     7     1    1
    37    62    61    2
    38    61    65   am
    39    21    20    1
    40    21    22    1
    41    79    78    1
    42    79    80    1
    43    20    17    1
    44    18    17    1
    45    18    25   am
    46    78    77    1
    47    73    74    1
    48    27    28    2
    49    27    26    1
    50    34    35    2
    51    34    33    1
    52    65    66    1
    53    23    22    1
    54    23    24    1
    55    26    25    1
    56    26    29    1
    57    25    31    1
    58    74    77    1
    59    74    75    1
    60    67    68    2
    61    67    66    1
    62    32    33    1
    63    66    69    1
    64    33    36    1
    65    31    30    1
    66    29    30    1
    67    75    76    2
    68    36    37    1
    69    69    70    1
    70    69    71    1
    71    70    72    1
    72    87    85    1
    73    37    38   ar
    74    37    39   ar
    75    86    85    1
    76    38    40   ar
    77    85    82    1
    78    39    41   ar
    79    82    81    1
    80    82    83    1
    81    40    42   ar
    82    91    90    2
    83   101   102   ar
    84   101    99   ar
    85    41    42   ar
    86    88    83   am
    87    88    89    1
    88   102   100   ar
    89    83    84    2
    90    42    43    1
    91    99    97   ar
    92    90    89    1
    93   100    98   ar
    94    97    98   ar
    95    97    96    1
    96    96    93    1
    97    92    93    1
    98    93    94    1
    99    94    95    2
