@<TRIPOS>MOLECULE
tmp/5hvuB00.pdb
 224 214 0 0 0
SMALL
GASTEIGER

@<TRIPOS>ATOM
      1  N          2.4760  144.0940   20.7800 N.3    78  ILE78      -0.1231
      2  CA         1.1070  143.7630   20.3560 C.3    78  ILE78       0.1692
      3  C          0.3220  142.9350   21.4030 C.2    78  ILE78       0.2593
      4  O         -0.9060  142.8280   21.3000 O.2    78  ILE78      -0.2718
      5  CB         1.0770  143.1050   18.9410 C.3    78  ILE78       0.0266
      6  CG1        1.9190  141.8050   18.8710 C.3    78  ILE78       0.0019
      7  CG2        1.5010  144.1160   17.8610 C.3    78  ILE78       0.0020
      8  CD1        1.6240  140.9060   17.6720 C.3    78  ILE78       0.0001
      9  N          1.0280  142.4080   22.4060 N.am   79  GLY79      -0.1942
     10  CA         0.4560  141.6160   23.4920 C.3    79  GLY79       0.2014
     11  C          1.2610  141.7550   24.7690 C.2    79  GLY79       0.2639
     12  O          2.4770  141.9400   24.7100 O.2    79  GLY79      -0.2714
     13  N          0.5890  141.6980   25.9340 N.am   80  ARG80      -0.1963
     14  CA         1.2360  141.8320   27.2500 C.3    80  ARG80       0.1729
     15  C          0.4590  141.0940   28.3460 C.2    80  ARG80       0.2617
     16  O         -0.7690  141.1480   28.3910 O.2    80  ARG80      -0.2715
     17  CB         1.4440  143.3190   27.6200 C.3    80  ARG80       0.0348
     18  CG         2.3220  143.5750   28.8590 C.3    80  ARG80       0.0492
     19  CD         3.4500  144.5910   28.6440 C.3    80  ARG80       0.2205
     20  NE         2.9860  145.8640   28.0790 N.pl3  80  ARG80      -0.0865
     21  CZ         3.7780  146.7710   27.5130 C.cat  80  ARG80       0.5346
     22  NH1        5.0900  146.5690   27.4410 N.pl3  80  ARG80       0.1354
     23  NH2        3.2650  147.8840   27.0090 N.pl3  80  ARG80       0.1354
     24  N          1.2050  140.3970   29.1940 N.am   81  GLY81      -0.1940
     25  CA         0.7090  139.6420   30.3380 C.3    81  GLY81       0.2014
     26  C          1.7080  139.7120   31.4750 C.2    81  GLY81       0.2639
     27  O          2.7520  140.3660   31.3480 O.2    81  GLY81      -0.2714
     28  N          1.4010  139.0490   32.6010 N.am   82  ALA82      -0.1963
     29  CA         2.2950  139.0160   33.7640 C.3    82  ALA82       0.1728
     30  C          3.5210  138.1380   33.4740 C.2    82  ALA82       0.2616
     31  O          4.6410  138.4800   33.8780 O.2    82  ALA82      -0.2715
     32  CB         1.5520  138.4800   34.9680 C.3    82  ALA82       0.0334
     33  N          3.3040  137.0270   32.7370 N.am   83  PHE83      -0.1960
     34  CA         4.3480  136.0700   32.3930 C.3    83  PHE83       0.1771
     35  C          5.2280  136.5040   31.2270 C.2    83  PHE83       0.2620
     36  O          6.2450  135.8640   30.9950 O.2    83  PHE83      -0.2715
     37  CB         3.7560  134.6730   32.1650 C.3    83  PHE83       0.0574
     38  CG         3.6060  133.9060   33.4590 C.ar   83  PHE83      -0.0200
     39  CD1        2.6240  134.2510   34.3840 C.ar   83  PHE83      -0.0042
     40  CD2        4.4600  132.8540   33.7660 C.ar   83  PHE83      -0.0042
     41  CE1        2.4970  133.5510   35.5840 C.ar   83  PHE83      -0.0003
     42  CE2        4.3300  132.1540   34.9700 C.ar   83  PHE83      -0.0003
     43  CZ         3.3490  132.5070   35.8690 C.ar   83  PHE83      -0.0000
     44  N          4.8720  137.5920   30.5440 N.am   84  GLY84      -0.1940
     45  CA         5.6650  138.1170   29.4390 C.3    84  GLY84       0.2014
     46  C          4.9210  139.0130   28.4670 C.2    84  GLY84       0.2639
     47  O          3.9150  139.6260   28.8210 O.2    84  GLY84      -0.2714
     48  N          5.4360  139.1160   27.2300 N.am   85  GLU85      -0.1963
     49  CA         4.8330  139.9460   26.1870 C.3    85  GLU85       0.1733
     50  C          5.0810  139.4280   24.7670 C.2    85  GLU85       0.2616
     51  O          6.0250  138.6680   24.5340 O.2    85  GLU85      -0.2715
     52  CB         5.2370  141.4300   26.3240 C.3    85  GLU85       0.0429
     53  CG         6.7150  141.7610   26.1960 C.3    85  GLU85       0.1163
     54  CD         7.0120  143.2450   26.3390 C.2    85  GLU85       0.3649
     55  OE1        7.7310  143.7890   25.4720 O.co2  85  GLU85      -0.2457
     56  OE2        6.5030  143.8730   27.2960 O.co2  85  GLU85      -0.2457
     57  N          4.2000  139.8270   23.8310 N.am   86  VAL86      -0.1977
     58  CA         4.2830  139.4750   22.4140 C.3    86  VAL86       0.1596
     59  C          4.5950  140.7700   21.6690 C.2    86  VAL86       0.2287
     60  O          3.9730  141.7940   21.9460 O.2    86  VAL86      -0.2864
     61  CB         3.0020  138.7610   21.8820 C.3    86  VAL86       0.0276
     62  CG1        3.1060  138.4530   20.3880 C.3    86  VAL86       0.0022
     63  CG2        2.7250  137.4860   22.6640 C.3    86  VAL86       0.0022
     64  N          6.5600  137.7490   14.7010 N.3    99  ALA99      -0.1245
     65  CA         5.9090  137.9980   15.9750 C.3    99  ALA99       0.1562
     66  C          6.7940  137.2510   16.9810 C.2    99  ALA99       0.2260
     67  O          7.1490  136.0960   16.7450 O.2    99  ALA99      -0.2867
     68  CB         4.5020  137.4300   15.9730 C.3    99  ALA99       0.0290
     69  N          7.2210  136.1020   20.9790 N.3   101  LYS101     -0.1231
     70  CA         6.6580  135.9200   22.3150 C.3   101  LYS101      0.1693
     71  C          7.8020  135.7040   23.3060 C.2   101  LYS101      0.2592
     72  O          8.6210  134.7920   23.1280 O.2   101  LYS101     -0.2718
     73  CB         5.6550  134.7520   22.3510 C.3   101  LYS101      0.0285
     74  CG         4.9960  134.5370   23.7110 C.3   101  LYS101      0.0035
     75  CD         3.8240  133.5770   23.6340 C.3   101  LYS101      0.0206
     76  CE         3.3390  133.1770   25.0070 C.3   101  LYS101      0.1093
     77  NZ         2.0540  132.4400   24.9270 N.3   101  LYS101     -0.1314
     78  N          7.8520  136.5630   24.3330 N.am  102  LEU102     -0.1966
     79  CA         8.8300  136.5480   25.4260 C.3   102  LEU102      0.1728
     80  C          8.1430  136.0250   26.6840 C.2   102  LEU102      0.2616
     81  O          7.0130  136.4260   26.9790 O.2   102  LEU102     -0.2715
     82  CB         9.3360  137.9740   25.7180 C.3   102  LEU102      0.0311
     83  CG        10.3390  138.5930   24.7500 C.3   102  LEU102      0.0022
     84  CD1        9.6160  139.2580   23.5630 C.3   102  LEU102      0.0001
     85  CD2       11.1660  139.6470   25.4670 C.3   102  LEU102      0.0001
     86  N          8.8250  135.1400   27.4280 N.am  103  LEU103     -0.1977
     87  CA         8.3130  134.5950   28.6870 C.3   103  LEU103      0.1596
     88  C          9.3530  134.7880   29.7780 C.2   103  LEU103      0.2287
     89  O         10.4820  134.3100   29.6450 O.2   103  LEU103     -0.2864
     90  CB         7.9140  133.1180   28.5680 C.3   103  LEU103      0.0297
     91  CG         6.6640  132.7630   27.7680 C.3   103  LEU103      0.0022
     92  CD1        6.5760  131.2590   27.5660 C.3   103  LEU103      0.0001
     93  CD2        5.3970  133.2610   28.4610 C.3   103  LEU103      0.0001
     94  N          5.5670  128.0050   38.2090 N.3   113  ASP113     -0.1239
     95  CA         4.9110  127.5840   36.9690 C.3   113  ASP113      0.1674
     96  C          5.9030  127.7370   35.7950 C.2   113  ASP113      0.2266
     97  O          5.8860  128.7410   35.0720 O.2   113  ASP113     -0.2867
     98  CB         3.5940  128.3700   36.7400 C.3   113  ASP113      0.1410
     99  CG         2.5660  127.6630   35.8660 C.2   113  ASP113      0.3668
    100  OD1        2.9280  126.6630   35.2030 O.co2 113  ASP113     -0.2456
    101  OD2        1.4040  128.1030   35.8480 O.co2 113  ASP113     -0.2456
    102  N          4.8560  124.8650   31.2350 N.3   116  PHE116     -0.1241
    103  CA         3.6830  125.0330   30.3560 C.3   116  PHE116      0.1605
    104  C          4.0180  125.3260   28.8890 C.2   116  PHE116      0.2264
    105  O          3.1950  125.0810   28.0040 O.2   116  PHE116     -0.2867
    106  CB         2.7690  126.1460   30.9160 C.3   116  PHE116      0.0534
    107  CG         3.4030  127.5220   30.9810 C.ar  116  PHE116     -0.0203
    108  CD1        3.3400  128.3900   29.8910 C.ar  116  PHE116     -0.0042
    109  CD2        4.0510  127.9530   32.1320 C.ar  116  PHE116     -0.0042
    110  CE1        3.9320  129.6530   29.9490 C.ar  116  PHE116     -0.0003
    111  CE2        4.6370  129.2180   32.1890 C.ar  116  PHE116     -0.0003
    112  CZ         4.5720  130.0590   31.1000 C.ar  116  PHE116     -0.0000
    113  N          3.5440  124.4000   23.7560 N.3   120  GLU120     -0.1245
    114  CA         3.4230  125.5530   22.8500 C.3   120  GLU120      0.1567
    115  C          4.5890  125.5570   21.8510 C.2   120  GLU120      0.2260
    116  O          4.3750  125.8140   20.6590 O.2   120  GLU120     -0.2867
    117  CB         3.3590  126.8670   23.6400 C.3   120  GLU120      0.0388
    118  CG         3.1200  128.0970   22.7800 C.3   120  GLU120      0.1160
    119  CD         2.8660  129.3950   23.5240 C.2   120  GLU120      0.3649
    120  OE1        2.2670  130.3110   22.9140 O.co2 120  GLU120     -0.2457
    121  OE2        3.2550  129.4990   24.7130 O.co2 120  GLU120     -0.2457
    122  N          3.7550  124.5700   17.7220 N.3   124  MET124     -0.1245
    123  CA         4.1210  125.5560   16.7120 C.3   124  MET124      0.1570
    124  C          5.3140  125.1390   15.8690 C.2   124  MET124      0.2261
    125  O          5.3730  125.4830   14.6900 O.2   124  MET124     -0.2867
    126  CB         4.3780  126.9220   17.3500 C.3   124  MET124      0.0387
    127  CG         3.1600  127.5510   17.9800 C.3   124  MET124      0.0595
    128  SD         3.4450  129.2940   18.2140 S.3   124  MET124     -0.1393
    129  CE         4.7430  129.2680   19.4780 C.3   124  MET124      0.0692
    130  N         -0.1000  128.5220   14.0100 N.3   133  VAL133     -0.1245
    131  CA         0.9260  129.5570   13.8360 C.3   133  VAL133      0.1561
    132  C          2.2730  128.8390   13.9080 C.2   133  VAL133      0.2260
    133  O          2.4810  128.0010   14.7900 O.2   133  VAL133     -0.2867
    134  CB         0.8060  130.6950   14.8940 C.3   133  VAL133      0.0252
    135  CG1        2.0050  131.6410   14.8520 C.3   133  VAL133      0.0019
    136  CG2       -0.4860  131.4770   14.7000 C.3   133  VAL133      0.0019
    137  N          7.8020  133.6040   15.6710 N.3   149  MET149     -0.1230
    138  CA         6.6950  133.0440   14.8990 C.3   149  MET149      0.1702
    139  C          6.3040  133.8800   13.6960 C.2   149  MET149      0.2592
    140  O          6.6320  135.0670   13.6370 O.2   149  MET149     -0.2718
    141  CB         5.4430  132.9700   15.7920 C.3   149  MET149      0.0401
    142  CG         5.6620  132.2990   17.1080 C.3   149  MET149      0.0596
    143  SD         4.3690  132.7390   18.2750 S.3   149  MET149     -0.1393
    144  CE         4.9060  134.3350   18.7870 C.3   149  MET149      0.0692
    145  N          5.4860  133.2800   12.7990 N.am  150  GLU150     -0.1966
    146  CA         4.8790  133.9440   11.6520 C.3   150  GLU150      0.1733
    147  C          3.8600  134.9400   12.1960 C.2   150  GLU150      0.2616
    148  O          3.0370  134.5720   13.0360 O.2   150  GLU150     -0.2715
    149  CB         4.1560  132.9280   10.7600 C.3   150  GLU150      0.0429
    150  CG         4.0490  133.3930    9.3210 C.3   150  GLU150      0.1163
    151  CD         3.3100  132.4720    8.3730 C.2   150  GLU150      0.3649
    152  OE1        3.5920  131.2510    8.3840 O.co2 150  GLU150     -0.2457
    153  OE2        2.4930  132.9830    7.5730 O.co2 150  GLU150     -0.2457
    154  N          3.9340  136.2000   11.7380 N.am  151  TYR151     -0.1960
    155  CA         3.0390  137.2700   12.1580 C.3   151  TYR151      0.1771
    156  C          1.6730  137.1090   11.4900 C.2   151  TYR151      0.2619
    157  O          1.5950  136.8480   10.2830 O.2   151  TYR151     -0.2715
    158  CB         3.6600  138.6420   11.8500 C.3   151  TYR151      0.0574
    159  CG         2.7780  139.8280   12.1840 C.ar  151  TYR151     -0.0198
    160  CD1        2.2150  139.9700   13.4520 C.ar  151  TYR151     -0.0009
    161  CD2        2.5410  140.8340   11.2470 C.ar  151  TYR151     -0.0009
    162  CE1        1.4070  141.0580   13.7640 C.ar  151  TYR151      0.0417
    163  CE2        1.7570  141.9400   11.5590 C.ar  151  TYR151      0.0417
    164  CZ         1.1890  142.0450   12.8180 C.ar  151  TYR151      0.1957
    165  OH         0.4140  143.1290   13.1420 O.3   151  TYR151     -0.2866
    166  N          0.6020  137.2460   12.3000 N.am  152  MET152     -0.1977
    167  CA        -0.8050  137.1540   11.8930 C.3   152  MET152      0.1605
    168  C         -1.3660  138.5800   11.8600 C.2   152  MET152      0.2287
    169  O         -1.8400  139.0720   12.8820 O.2   152  MET152     -0.2864
    170  CB        -1.5650  136.2580   12.8780 C.3   152  MET152      0.0413
    171  CG        -1.0880  134.8260   12.8660 C.3   152  MET152      0.0598
    172  SD        -1.5330  133.9980   11.3400 S.3   152  MET152     -0.1393
    173  CE         0.0650  133.7980   10.5920 C.3   152  MET152      0.0692
    174  N         -9.1990  134.8880   21.9680 N.3   198  ASP198     -0.1239
    175  CA        -7.8720  135.4420   22.2650 C.3   198  ASP198      0.1674
    176  C         -6.7650  134.6260   21.5780 C.2   198  ASP198      0.2266
    177  O         -5.7070  135.1770   21.2490 O.2   198  ASP198     -0.2867
    178  CB        -7.6300  135.4530   23.7970 C.3   198  ASP198      0.1410
    179  CG        -8.6960  136.2230   24.5570 C.2   198  ASP198      0.3668
    180  OD1       -9.8730  135.7700   24.5650 O.co2 198  ASP198     -0.2456
    181  OD2       -8.3700  137.2930   25.1190 O.co2 198  ASP198     -0.2456
    182  N         -6.2500  133.6310   15.8260 N.3   201  LEU201     -0.1245
    183  CA        -5.6420  134.7040   15.0360 C.3   201  LEU201      0.1561
    184  C         -6.0110  134.5800   13.5750 C.2   201  LEU201      0.2260
    185  O         -6.2960  133.4790   13.1050 O.2   201  LEU201     -0.2867
    186  CB        -4.0910  134.6910   15.1700 C.3   201  LEU201      0.0270
    187  CG        -3.3800  135.3520   16.3730 C.3   201  LEU201      0.0019
    188  CD1       -3.8570  136.7650   16.6340 C.3   201  LEU201      0.0001
    189  CD2       -3.4820  134.5200   17.6050 C.3   201  LEU201      0.0001
    190  N         -3.0900  129.9950   18.1830 N.3   211  ALA211     -0.1231
    191  CA        -1.8540  130.4050   18.8560 C.3   211  ALA211      0.1694
    192  C         -2.1350  130.4930   20.3510 C.2   211  ALA211      0.2592
    193  O         -3.2960  130.3620   20.7530 O.2   211  ALA211     -0.2718
    194  CB        -1.3680  131.7420   18.3230 C.3   211  ALA211      0.0304
    195  N         -1.0690  130.7180   21.1690 N.am  212  ASP212     -0.1974
    196  CA        -1.1060  130.7630   22.6360 C.3   212  ASP212      0.1709
    197  C         -1.5470  129.3840   23.1700 C.2   212  ASP212      0.2293
    198  O         -2.7230  129.1690   23.4630 O.2   212  ASP212     -0.2864
    199  CB        -1.9840  131.9220   23.1400 C.3   212  ASP212      0.1436
    200  CG        -1.9140  132.2130   24.6210 C.2   212  ASP212      0.3671
    201  OD1       -1.0290  131.6500   25.2960 O.co2 212  ASP212     -0.2456
    202  OD2       -2.6930  133.0680   25.0930 O.co2 212  ASP212     -0.2456
    203  N         -0.4320  127.7390   25.9680 N.3   214  GLY214     -0.1210
    204  CA        -0.0120  127.6570   27.3670 C.3   214  GLY214      0.1956
    205  C         -0.8310  126.7580   28.2760 C.2   214  GLY214      0.2612
    206  O         -0.4200  126.5000   29.4120 O.2   214  GLY214     -0.2717
    207  N         -1.9870  126.2720   27.8020 N.am  215  THR215     -0.1952
    208  CA        -2.8570  125.3720   28.5730 C.3   215  THR215      0.1897
    209  C         -2.9010  123.9740   27.9570 C.2   215  THR215      0.2313
    210  O         -3.5940  123.0900   28.4710 O.2   215  THR215     -0.2863
    211  CB        -4.2850  125.9390   28.6830 C.3   215  THR215      0.1794
    212  OG1       -4.8090  126.1190   27.3780 O.3   215  THR215     -0.2208
    213  CG2       -4.3480  127.2150   29.4590 C.3   215  THR215      0.0378
    214  N         -4.3730  145.2600   16.0740 N.3   360  PHE360     -0.1241
    215  CA        -3.8330  145.0230   17.4170 C.3   360  PHE360      0.1605
    216  C         -3.9500  146.2950   18.2590 C.2   360  PHE360      0.2264
    217  O         -3.4930  147.3590   17.8260 O.2   360  PHE360     -0.2867
    218  CB        -2.3750  144.5110   17.3500 C.3   360  PHE360      0.0534
    219  CG        -2.2590  143.1180   16.7820 C.ar  360  PHE360     -0.0203
    220  CD1       -2.3980  142.0040   17.6000 C.ar  360  PHE360     -0.0042
    221  CD2       -2.0300  142.9190   15.4240 C.ar  360  PHE360     -0.0042
    222  CE1       -2.3150  140.7150   17.0670 C.ar  360  PHE360     -0.0003
    223  CE2       -1.9580  141.6310   14.8930 C.ar  360  PHE360     -0.0003
    224  CZ        -2.0940  140.5390   15.7180 C.ar  360  PHE360     -0.0000
@<TRIPOS>BOND
     1   153   151   ar
     2   151   152   ar
     3   151   150    1
     4   150   149    1
     5   157   156    2
     6   173   172    1
     7   149   146    1
     8   161   163   ar
     9   161   159   ar
    10   172   171    1
    11   156   155    1
    12   156   166   am
    13   163   164   ar
    14   146   147    1
    15   146   145    1
    16   154   155    1
    17   154   147   am
    18   158   155    1
    19   158   159    1
    20   168   167    1
    21   168   169    2
    22   167   166    1
    23   167   170    1
    24   159   160   ar
    25   147   148    2
    26   145   139   am
    27   164   165    1
    28   164   162   ar
    29   171   170    1
    30   185   184    2
    31   160   162   ar
    32   184   183    1
    33   140   139    2
    34   139   138    1
    35   131   132    1
    36   131   130    1
    37   131   134    1
    38   132   133    2
    39   125   124    2
    40   136   134    1
    41    64    65    1
    42   135   134    1
    43   223   221   ar
    44   223   224   ar
    45   138   137    1
    46   138   141    1
    47   183   186    1
    48   183   182    1
    49   186   187    1
    50   221   219   ar
    51   224   222   ar
    52   141   142    1
    53   124   123    1
    54    68    65    1
    55    65    66    1
    56   214   215    1
    57   187   188    1
    58   187   189    1
    59   123   126    1
    60   123   122    1
    61    67    66    2
    62   219   218    1
    63   219   220   ar
    64   222   220   ar
    65   142   143    1
    66   126   127    1
    67   218   215    1
    68   215   216    1
    69     8     6    1
    70   217   216    2
    71     7     5    1
    72   127   128    1
    73   190   191    1
    74   128   129    1
    75   143   144    1
    76   194   191    1
    77   191   192    1
    78     6     5    1
    79     5     2    1
    80   192   193    2
    81   192   195   am
    82     2     1    1
    83     2     3    1
    84    62    61    1
    85   116   115    2
    86    69    70    1
    87   195   196    1
    88   177   176    2
    89     4     3    2
    90     3     9   am
    91   176   175    1
    92    59    60    2
    93    59    58    1
    94   115   114    1
    95    61    58    1
    96    61    63    1
    97   174   175    1
    98   175   178    1
    99    70    73    1
   100    70    71    1
   101    73    74    1
   102     9    10    1
   103    58    57    1
   104   196   199    1
   105   196   197    1
   106   118   119    1
   107   118   117    1
   108   114   117    1
   109   114   113    1
   110   120   119   ar
   111    72    71    2
   112   199   200    1
   113   197   198    2
   114    71    78   am
   115    10    11    1
   116   119   121   ar
   117    84    83    1
   118    75    74    1
   119    75    76    1
   120   178   179    1
   121    57    50   am
   122    78    79    1
   123    51    50    2
   124   179   180   ar
   125   179   181   ar
   126   200   202   ar
   127   200   201   ar
   128    12    11    2
   129    83    85    1
   130    83    82    1
   131    50    49    1
   132    11    13   am
   133    77    76    1
   134    79    82    1
   135    79    80    1
   136    55    54   ar
   137    13    14    1
   138   203   204    1
   139    49    52    1
   140    49    48    1
   141    53    52    1
   142    53    54    1
   143    54    56   ar
   144    80    81    2
   145    80    86   am
   146    23    21    1
   147    48    46   am
   148    14    17    1
   149    14    15    1
   150   204   205    1
   151   212   211    1
   152    86    87    1
   153    22    21    1
   154    21    20    2
   155    92    91    1
   156    17    18    1
   157    91    93    1
   158    91    90    1
   159   207   205   am
   160   207   208    1
   161   209   210    2
   162   209   208    1
   163   105   104    2
   164    20    19    1
   165   205   206    2
   166    15    16    2
   167    15    24   am
   168    46    47    2
   169    46    45    1
   170    90    87    1
   171   208   211    1
   172    19    18    1
   173   211   213    1
   174    87    88    1
   175   104   103    1
   176    24    25    1
   177    45    44    1
   178    89    88    2
   179   108   110   ar
   180   108   107   ar
   181   110   112   ar
   182    25    26    1
   183   103   106    1
   184   103   102    1
   185    44    35   am
   186   106   107    1
   187   107   109   ar
   188    36    35    2
   189   112   111   ar
   190    35    34    1
   191    27    26    2
   192    26    28   am
   193   109   111   ar
   194    37    34    1
   195    37    38    1
   196    34    33    1
   197    28    29    1
   198    33    30   am
   199    38    40   ar
   200    38    39   ar
   201    30    29    1
   202    30    31    2
   203    29    32    1
   204    40    42   ar
   205    39    41   ar
   206    42    43   ar
   207    97    96    2
   208   100    99   ar
   209    41    43   ar
   210    96    95    1
   211   101    99   ar
   212    99    98    1
   213    98    95    1
   214    95    94    1
