@<TRIPOS>MOLECULE
tmp/5hvxA01.pdb
 151 148 0 0 0
SMALL
GASTEIGER

@<TRIPOS>ATOM
      1  N         66.2040   70.8080   30.9660 N.3   131  LEU131     -0.1245
      2  CA        67.1840   69.8240   30.5110 C.3   131  LEU131      0.1561
      3  C         66.7580   69.2810   29.1350 C.2   131  LEU131      0.2260
      4  O         67.6000   69.1150   28.2510 O.2   131  LEU131     -0.2867
      5  CB        67.2750   68.6760   31.5260 C.3   131  LEU131      0.0270
      6  CG        68.5490   67.8390   31.4750 C.3   131  LEU131      0.0019
      7  CD1       69.6330   68.4500   32.3670 C.3   131  LEU131      0.0001
      8  CD2       68.2710   66.4090   31.9230 C.3   131  LEU131      0.0001
      9  N         68.8960   69.7570   25.6220 N.3   135  VAL135     -0.1245
     10  CA        69.1810   68.6030   24.7690 C.3   135  VAL135      0.1561
     11  C         68.6190   68.8290   23.3540 C.2   135  VAL135      0.2260
     12  O         69.3490   68.6360   22.3870 O.2   135  VAL135     -0.2867
     13  CB        68.7360   67.2520   25.4050 C.3   135  VAL135      0.0252
     14  CG1       68.8020   66.1040   24.3900 C.3   135  VAL135      0.0019
     15  CG2       69.5860   66.9250   26.6370 C.3   135  VAL135      0.0019
     16  N         70.7740   71.6970   21.5470 N.3   138  ILE138     -0.1231
     17  CA        72.0980   71.1680   21.1860 C.3   138  ILE138      0.1692
     18  C         71.9620   70.2570   19.9780 C.2   138  ILE138      0.2591
     19  O         72.6790   70.4320   18.9960 O.2   138  ILE138     -0.2718
     20  CB        72.7900   70.4470   22.3850 C.3   138  ILE138      0.0266
     21  CG1       73.1880   71.4680   23.4810 C.3   138  ILE138      0.0019
     22  CG2       74.0090   69.6170   21.9160 C.3   138  ILE138      0.0020
     23  CD1       73.8140   70.8760   24.8170 C.3   138  ILE138      0.0001
     24  N         71.0230   69.2990   20.0510 N.am  139  ALA139     -0.1980
     25  CA        70.7480   68.3480   18.9860 C.3   139  ALA139      0.1597
     26  C         70.3320   69.0450   17.6900 C.2   139  ALA139      0.2287
     27  O         70.8110   68.6430   16.6320 O.2   139  ALA139     -0.2864
     28  CB        69.6900   67.3590   19.4270 C.3   139  ALA139      0.0319
     29  N         73.4420   70.6380   16.0510 N.3   142  MET142     -0.1245
     30  CA        74.2670   69.5510   15.5140 C.3   142  MET142      0.1570
     31  C         73.6980   69.0100   14.2150 C.2   142  MET142      0.2261
     32  O         74.4290   68.9390   13.2360 O.2   142  MET142     -0.2867
     33  CB        74.4430   68.4040   16.5290 C.3   142  MET142      0.0387
     34  CG        75.3970   68.7120   17.6730 C.3   142  MET142      0.0595
     35  SD        75.4340   67.3510   18.8970 S.3   142  MET142     -0.1393
     36  CE        76.5350   66.1990   18.0520 C.3   142  MET142      0.0692
     37  N         75.4330   68.9970   10.5680 N.3   146  LEU146     -0.1231
     38  CA        75.7260   67.6690   10.0280 C.3   146  LEU146      0.1693
     39  C         74.9510   67.3210    8.7570 C.2   146  LEU146      0.2592
     40  O         75.5620   66.8480    7.8080 O.2   146  LEU146     -0.2718
     41  CB        75.4490   66.5590   11.0780 C.3   146  LEU146      0.0284
     42  CG        76.3880   66.4180   12.2740 C.3   146  LEU146      0.0019
     43  CD1       75.7780   65.4900   13.3330 C.3   146  LEU146      0.0001
     44  CD2       77.7530   65.9300   11.8540 C.3   146  LEU146      0.0001
     45  N         73.6080   67.4820    8.7600 N.am  147  TYR147     -0.1976
     46  CA        72.7220   66.9950    7.6910 C.3   147  TYR147      0.1639
     47  C         71.9540   68.0400    6.8730 C.2   147  TYR147      0.2290
     48  O         71.2660   67.6560    5.9370 O.2   147  TYR147     -0.2864
     49  CB        71.7060   65.9900    8.3010 C.3   147  TYR147      0.0560
     50  CG        72.3250   65.0120    9.2790 C.ar  147  TYR147     -0.0198
     51  CD1       73.4000   64.2040    8.9050 C.ar  147  TYR147     -0.0009
     52  CD2       71.8750   64.9310   10.5920 C.ar  147  TYR147     -0.0009
     53  CE1       74.0000   63.3340    9.8080 C.ar  147  TYR147      0.0417
     54  CE2       72.4710   64.0630   11.5090 C.ar  147  TYR147      0.0417
     55  CZ        73.5270   63.2590   11.1080 C.ar  147  TYR147      0.1957
     56  OH        74.1200   62.3990   11.9970 O.3   147  TYR147     -0.2866
     57  N         73.6130   58.3390    2.9100 N.3   185  VAL185     -0.1231
     58  CA        74.6080   59.3790    2.6600 C.3   185  VAL185      0.1692
     59  C         75.6300   59.4590    3.8170 C.2   185  VAL185      0.2592
     60  O         76.8250   59.5510    3.5560 O.2   185  VAL185     -0.2718
     61  CB        73.9070   60.7320    2.3310 C.3   185  VAL185      0.0266
     62  CG1       74.9160   61.8530    2.0990 C.3   185  VAL185      0.0020
     63  CG2       72.9730   60.5840    1.1180 C.3   185  VAL185      0.0020
     64  N         75.1700   59.4000    5.0790 N.am  186  HIS186     -0.1962
     65  CA        76.0060   59.4990    6.2870 C.3   186  HIS186      0.1772
     66  C         75.9390   58.1640    7.0250 C.2   186  HIS186      0.2462
     67  O         75.1410   58.0370    7.9400 O.2   186  HIS186     -0.2730
     68  CB        75.5190   60.6640    7.1740 C.3   186  HIS186      0.0785
     69  CG        75.3880   61.9630    6.4350 C.ar  186  HIS186      0.0821
     70  ND1       76.4950   62.7130    6.0930 N.ar  186  HIS186     -0.2267
     71  CD2       74.2850   62.5700    5.9360 C.ar  186  HIS186      0.1154
     72  CE1       76.0400   63.7560    5.4200 C.ar  186  HIS186      0.1986
     73  NE2       74.7200   63.7200    5.3040 N.ar  186  HIS186     -0.2212
     74  N         76.7730   57.1550    6.6650 N.am  187  PRO187     -0.2716
     75  CA        76.6290   55.8110    7.2800 C.3   187  PRO187      0.1536
     76  C         76.6240   55.7200    8.8120 C.2   187  PRO187      0.2598
     77  O         76.0470   54.7800    9.3550 O.2   187  PRO187     -0.2715
     78  CB        77.7990   54.9980    6.6870 C.3   187  PRO187      0.0310
     79  CG        78.5800   55.9260    5.8550 C.3   187  PRO187      0.0237
     80  CD        77.7790   57.1430    5.5750 C.3   187  PRO187      0.0939
     81  N         77.2670   56.6520    9.5030 N.am  188  ASN188     -0.1973
     82  CA        77.3220   56.6120   10.9620 C.3   188  ASN188      0.1688
     83  C         76.3000   57.5060   11.6480 C.2   188  ASN188      0.2292
     84  O         76.4630   57.7860   12.8330 O.2   188  ASN188     -0.2864
     85  CB        78.7390   56.9160   11.4450 C.3   188  ASN188      0.1181
     86  CG        79.7180   55.8260   11.0830 C.2   188  ASN188      0.2629
     87  OD1       79.4820   54.6200   11.3110 O.2   188  ASN188     -0.2716
     88  ND2       80.8170   56.2280   10.4770 N.am  188  ASN188     -0.0877
     89  N         74.7690   56.9150   15.2930 N.3   191  VAL191     -0.1231
     90  CA        75.5840   57.3660   16.4500 C.3   191  VAL191      0.1692
     91  C         74.9720   58.6420   17.0380 C.2   191  VAL191      0.2592
     92  O         75.1070   58.9030   18.2230 O.2   191  VAL191     -0.2718
     93  CB        77.0900   57.5610   16.0620 C.3   191  VAL191      0.0266
     94  CG1       77.9020   58.1920   17.1870 C.3   191  VAL191      0.0020
     95  CG2       77.7260   56.2440   15.6470 C.3   191  VAL191      0.0020
     96  N         74.3080   59.4300   16.2040 N.am  192  PHE192     -0.1976
     97  CA        73.6560   60.6480   16.6290 C.3   192  PHE192      0.1639
     98  C         72.2000   60.3730   17.0590 C.2   192  PHE192      0.2290
     99  O         71.7970   60.8010   18.1390 O.2   192  PHE192     -0.2864
    100  CB        73.7140   61.6980   15.4920 C.3   192  PHE192      0.0560
    101  CG        72.9340   62.9630   15.7710 C.ar  192  PHE192     -0.0200
    102  CD1       73.4210   63.9190   16.6510 C.ar  192  PHE192     -0.0042
    103  CD2       71.6920   63.1770   15.1840 C.ar  192  PHE192     -0.0042
    104  CE1       72.6800   65.0730   16.9340 C.ar  192  PHE192     -0.0003
    105  CE2       70.9440   64.3230   15.4820 C.ar  192  PHE192     -0.0003
    106  CZ        71.4520   65.2700   16.3370 C.ar  192  PHE192     -0.0000
    107  N         71.3050   57.5590   20.3990 N.3   195  PRO195     -0.2102
    108  CA        71.4120   58.1900   21.7400 C.3   195  PRO195      0.1504
    109  C         70.4210   59.3450   21.9450 C.2   195  PRO195      0.2575
    110  O         69.9530   59.5200   23.0620 O.2   195  PRO195     -0.2718
    111  CB        72.8810   58.6630   21.8200 C.3   195  PRO195      0.0282
    112  CG        73.5940   57.8550   20.7880 C.3   195  PRO195      0.0208
    113  CD        72.5830   57.6680   19.6730 C.3   195  PRO195      0.0893
    114  N         70.0890   60.1190   20.8810 N.am  196  PHE196     -0.1977
    115  CA        69.1100   61.2100   20.9670 C.3   196  PHE196      0.1639
    116  C         67.7340   60.6620   21.3790 C.2   196  PHE196      0.2290
    117  O         67.0860   61.2600   22.2380 O.2   196  PHE196     -0.2864
    118  CB        69.0110   62.0020   19.6490 C.3   196  PHE196      0.0560
    119  CG        67.8660   62.9940   19.6380 C.ar  196  PHE196     -0.0200
    120  CD1       68.0090   64.2540   20.2160 C.ar  196  PHE196     -0.0042
    121  CD2       66.6250   62.6470   19.1000 C.ar  196  PHE196     -0.0042
    122  CE1       66.9330   65.1470   20.2480 C.ar  196  PHE196     -0.0003
    123  CE2       65.5400   63.5230   19.1760 C.ar  196  PHE196     -0.0003
    124  CZ        65.7060   64.7700   19.7310 C.ar  196  PHE196     -0.0000
    125  N         67.1920   57.6720   22.8960 N.3   198  MET198     -0.1230
    126  CA        67.3450   57.1160   24.2420 C.3   198  MET198      0.1702
    127  C         67.1890   58.2060   25.3050 C.2   198  MET198      0.2592
    128  O         66.3800   58.0370   26.2130 O.2   198  MET198     -0.2718
    129  CB        68.6860   56.3730   24.4070 C.3   198  MET198      0.0401
    130  CG        68.7340   55.0080   23.7320 C.3   198  MET198      0.0596
    131  SD        70.4550   54.3850   23.7070 S.3   198  MET198     -0.1393
    132  CE        70.1760   52.6380   23.1990 C.3   198  MET198      0.0692
    133  N         67.8890   59.3410   25.1360 N.am  199  LEU199     -0.1980
    134  CA        67.8780   60.4790   26.0520 C.3   199  LEU199      0.1596
    135  C         66.5450   61.2210   26.1620 C.2   199  LEU199      0.2287
    136  O         66.1440   61.5480   27.2720 O.2   199  LEU199     -0.2864
    137  CB        68.9980   61.4940   25.7050 C.3   199  LEU199      0.0297
    138  CG        70.4470   61.0650   25.9460 C.3   199  LEU199      0.0022
    139  CD1       71.4120   61.8500   25.0410 C.3   199  LEU199      0.0001
    140  CD2       70.8430   61.2060   27.4360 C.3   199  LEU199      0.0001
    141  N         63.4220   59.0880   27.3910 N.3   202  PHE202     -0.1241
    142  CA        63.6370   58.9250   28.8260 C.3   202  PHE202      0.1605
    143  C         63.2650   60.2100   29.5970 C.2   202  PHE202      0.2264
    144  O         62.5520   60.1250   30.6020 O.2   202  PHE202     -0.2867
    145  CB        65.0820   58.4830   29.1290 C.3   202  PHE202      0.0534
    146  CG        65.4100   58.5640   30.6020 C.ar  202  PHE202     -0.0203
    147  CD1       64.9680   57.5820   31.4850 C.ar  202  PHE202     -0.0042
    148  CD2       66.0670   59.6740   31.1250 C.ar  202  PHE202     -0.0042
    149  CE1       65.2000   57.7000   32.8540 C.ar  202  PHE202     -0.0003
    150  CE2       66.2900   59.7930   32.4960 C.ar  202  PHE202     -0.0003
    151  CZ        65.8680   58.8010   33.3480 C.ar  202  PHE202     -0.0000
@<TRIPOS>BOND
     1    63    61    1
     2    62    61    1
     3    61    58    1
     4    58    57    1
     5    58    59    1
     6    60    59    2
     7    59    64   am
     8    64    65    1
     9    73    72   ar
    10    73    71   ar
    11    72    70   ar
    12    80    79    1
    13    80    74    1
    14    79    78    1
    15    71    69   ar
    16    48    47    2
    17    70    69   ar
    18    65    66    1
    19    65    68    1
    20    69    68    1
    21    74    66   am
    22    74    75    1
    23    78    75    1
    24    47    46    1
    25    66    67    2
    26    75    76    1
    27    46    49    1
    28    46    45    1
    29    40    39    2
    30    49    50    1
    31    39    45   am
    32    39    38    1
    33    76    77    2
    34    76    81   am
    35    51    50   ar
    36    51    53   ar
    37    50    52   ar
    38    81    82    1
    39    53    55   ar
    40    38    37    1
    41    38    41    1
    42    88    86   am
    43    52    54   ar
    44    82    85    1
    45    82    83    1
    46    41    42    1
    47    86    87    2
    48    86    85    1
    49    55    54   ar
    50    55    56    1
    51    83    84    2
    52    44    42    1
    53    42    43    1
    54    32    31    2
    55    31    30    1
    56   103   105   ar
    57   103   101   ar
    58    89    90    1
    59   105   106   ar
    60   100   101    1
    61   100    97    1
    62    30    29    1
    63    30    33    1
    64    95    93    1
    65   101   102   ar
    66    93    90    1
    67    93    94    1
    68    96    97    1
    69    96    91   am
    70   106   104   ar
    71    90    91    1
    72    33    34    1
    73    97    98    1
    74    27    26    2
    75   102   104   ar
    76    91    92    2
    77    98    99    2
    78    34    35    1
    79    26    25    1
    80    36    35    1
    81    25    28    1
    82    25    24    1
    83    19    18    2
    84   121   123   ar
    85   121   119   ar
    86   123   124   ar
    87   119   118    1
    88   119   120   ar
    89   118   115    1
    90   113   107    1
    91   113   112    1
    92   124   122   ar
    93    18    24   am
    94    18    17    1
    95   120   122   ar
    96   107   108    1
    97   112   111    1
    98   114   115    1
    99   114   109   am
   100   115   116    1
   101    17    16    1
   102    17    20    1
   103   116   117    2
   104   108   111    1
   105   108   109    1
   106    22    20    1
   107   109   110    2
   108    20    21    1
   109    12    11    2
   110   125   126    1
   111   132   131    1
   112    11    10    1
   113    21    23    1
   114   131   130    1
   115   130   129    1
   116   126   129    1
   117   126   127    1
   118    14    13    1
   119    10    13    1
   120    10     9    1
   121   139   138    1
   122   133   127   am
   123   133   134    1
   124   127   128    2
   125    13    15    1
   126   137   138    1
   127   137   134    1
   128   138   140    1
   129   134   135    1
   130   135   136    2
   131   141   142    1
   132     4     3    2
   133   142   145    1
   134   142   143    1
   135   145   146    1
   136     3     2    1
   137   143   144    2
   138     2     1    1
   139     2     5    1
   140   146   148   ar
   141   146   147   ar
   142   148   150   ar
   143     6     5    1
   144     6     8    1
   145     6     7    1
   146   147   149   ar
   147   150   151   ar
   148   149   151   ar
