@<TRIPOS>MOLECULE
tmp/5hvxA02.pdb
 87 85 0 0 0
SMALL
GASTEIGER

@<TRIPOS>ATOM
      1  N         41.0040   88.8230   42.4480 N.3    76  ARG76      -0.1231
      2  CA        41.9710   88.2390   43.3820 C.3    76  ARG76       0.1694
      3  C         42.1470   86.7340   43.1060 C.2    76  ARG76       0.2593
      4  O         43.1160   86.1320   43.5760 O.2    76  ARG76      -0.2718
      5  CB        41.5340   88.4820   44.8360 C.3    76  ARG76       0.0321
      6  CG        42.6200   88.1250   45.8270 C.3    76  ARG76       0.0489
      7  CD        42.1480   88.4070   47.2580 C.3    76  ARG76       0.2205
      8  NE        41.8480   89.8130   47.3670 N.pl3  76  ARG76      -0.0865
      9  CZ        40.9560   90.5820   48.0000 C.cat  76  ARG76       0.5346
     10  NH1       40.0480   90.1220   48.8180 N.pl3  76  ARG76       0.1354
     11  NH2       41.0120   91.9080   47.8340 N.pl3  76  ARG76       0.1354
     12  N         41.2100   86.1420   42.3300 N.am   77  SER77      -0.1938
     13  CA        41.1940   84.7360   41.9210 C.3    77  SER77       0.2055
     14  C         41.5870   84.6210   40.4440 C.2    77  SER77       0.2644
     15  O         41.0470   85.3470   39.6050 O.2    77  SER77      -0.2714
     16  CB        39.8060   84.1380   42.1460 C.3    77  SER77       0.2130
     17  OG        39.7000   82.8110   41.6540 O.3    77  SER77      -0.2179
     18  N         42.5170   83.7070   40.1530 N.am   78  GLY78      -0.1939
     19  CA        43.0070   83.4440   38.8030 C.3    78  GLY78       0.2014
     20  C         41.9450   82.8510   37.9000 C.2    78  GLY78       0.2638
     21  O         41.9570   83.0850   36.6890 O.2    78  GLY78      -0.2714
     22  N         41.0080   82.0900   38.4980 N.am   79  TRP79      -0.1973
     23  CA        39.8860   81.4540   37.8080 C.3    79  TRP79       0.1640
     24  C         38.8210   82.4620   37.3750 C.2    79  TRP79       0.2290
     25  O         38.1370   82.2330   36.3800 O.2    79  TRP79      -0.2864
     26  CB        39.2800   80.3360   38.6700 C.3    79  TRP79       0.0576
     27  CG        40.1980   79.1630   38.8250 C.ar   79  TRP79       0.0006
     28  CD1       40.9050   78.8170   39.9390 C.ar   79  TRP79       0.0946
     29  CD2       40.5550   78.2160   37.8120 C.ar   79  TRP79       0.0152
     30  NE1       41.6550   77.6920   39.6940 N.ar   79  TRP79      -0.2442
     31  CE2       41.4810   77.3170   38.3850 C.ar   79  TRP79       0.0810
     32  CE3       40.1860   78.0400   36.4660 C.ar   79  TRP79       0.0012
     33  CZ2       42.0270   76.2430   37.6670 C.ar   79  TRP79       0.0191
     34  CZ3       40.7320   76.9800   35.7520 C.ar   79  TRP79       0.0001
     35  CH2       41.6350   76.0930   36.3550 C.ar   79  TRP79       0.0015
     36  N         40.5680   84.5450   34.4150 N.3    82  PHE82      -0.1241
     37  CA        40.5240   83.6770   33.2330 C.3    82  PHE82       0.1605
     38  C         39.1290   83.7590   32.5910 C.2    82  PHE82       0.2264
     39  O         39.0270   83.9350   31.3800 O.2    82  PHE82      -0.2867
     40  CB        40.8880   82.2280   33.6300 C.3    82  PHE82       0.0534
     41  CG        40.5130   81.1400   32.6480 C.ar   82  PHE82      -0.0203
     42  CD1       41.3050   80.8820   31.5340 C.ar   82  PHE82      -0.0042
     43  CD2       39.3820   80.3560   32.8520 C.ar   82  PHE82      -0.0042
     44  CE1       40.9620   79.8700   30.6320 C.ar   82  PHE82      -0.0003
     45  CE2       39.0350   79.3490   31.9450 C.ar   82  PHE82      -0.0003
     46  CZ        39.8300   79.1080   30.8460 C.ar   82  PHE82      -0.0000
     47  N         43.0040   70.5060   37.2500 N.3   115  VAL115     -0.1231
     48  CA        43.8440   71.4220   36.4780 C.3   115  VAL115      0.1692
     49  C         44.7860   72.2100   37.4020 C.2   115  VAL115      0.2591
     50  O         45.9670   72.3030   37.0730 O.2   115  VAL115     -0.2718
     51  CB        43.0120   72.3100   35.5120 C.3   115  VAL115      0.0266
     52  CG1       43.8730   73.3580   34.7990 C.3   115  VAL115      0.0020
     53  CG2       42.2890   71.4390   34.4910 C.3   115  VAL115      0.0020
     54  N         44.3110   72.7010   38.5730 N.am  116  GLN116     -0.1979
     55  CA        45.1990   73.4380   39.4860 C.3   116  GLN116      0.1601
     56  C         46.2790   72.5360   40.1320 C.2   116  GLN116      0.2287
     57  O         47.3590   73.0310   40.4420 O.2   116  GLN116     -0.2864
     58  CB        44.4480   74.2840   40.5290 C.3   116  GLN116      0.0394
     59  CG        43.5740   73.5210   41.4980 C.3   116  GLN116      0.0908
     60  CD        42.6770   74.4140   42.3290 C.2   116  GLN116      0.2608
     61  OE1       42.4590   75.5990   42.0350 O.2   116  GLN116     -0.2717
     62  NE2       42.0950   73.8400   43.3710 N.am  116  GLN116     -0.0878
     63  N         48.9330   72.4440   37.3360 N.3   119  LEU119     -0.1231
     64  CA        49.6350   73.7310   37.2870 C.3   119  LEU119      0.1693
     65  C         50.5690   73.9100   38.4860 C.2   119  LEU119      0.2591
     66  O         51.6820   74.4080   38.3140 O.2   119  LEU119     -0.2718
     67  CB        48.6530   74.9140   37.1920 C.3   119  LEU119      0.0284
     68  CG        47.7740   75.0000   35.9360 C.3   119  LEU119      0.0019
     69  CD1       46.6140   75.9580   36.1650 C.3   119  LEU119      0.0001
     70  CD2       48.5830   75.4100   34.6970 C.3   119  LEU119      0.0001
     71  N         50.1330   73.4820   39.6900 N.am  120  LEU120     -0.1980
     72  CA        50.9540   73.5590   40.9040 C.3   120  LEU120      0.1596
     73  C         52.1270   72.5710   40.8760 C.2   120  LEU120      0.2287
     74  O         53.1310   72.8030   41.5510 O.2   120  LEU120     -0.2864
     75  CB        50.1160   73.3910   42.1850 C.3   120  LEU120      0.0297
     76  CG        49.1690   74.5540   42.5710 C.3   120  LEU120      0.0022
     77  CD1       48.2450   74.1430   43.6960 C.3   120  LEU120      0.0001
     78  CD2       49.9350   75.8080   42.9570 C.3   120  LEU120      0.0001
     79  N         43.7180   69.1470   48.0230 N.3   222  GLN222     -0.1245
     80  CA        42.7360   70.1760   47.6420 C.3   222  GLN222      0.1566
     81  C         41.2870   69.6690   47.7060 C.2   222  GLN222      0.2260
     82  O         40.3960   70.4320   48.0810 O.2   222  GLN222     -0.2867
     83  CB        43.0430   70.7430   46.2520 C.3   222  GLN222      0.0367
     84  CG        44.3430   71.5340   46.1920 C.3   222  GLN222      0.0905
     85  CD        44.5580   72.1530   44.8360 C.2   222  GLN222      0.2608
     86  OE1       44.6030   73.3760   44.6960 O.2   222  GLN222     -0.2717
     87  NE2       44.7150   71.3240   43.8080 N.am  222  GLN222     -0.0878
@<TRIPOS>BOND
     1    44    46   ar
     2    44    42   ar
     3    46    45   ar
     4    39    38    2
     5    42    41   ar
     6    45    43   ar
     7    38    37    1
     8    41    43   ar
     9    41    40    1
    10    37    40    1
    11    37    36    1
    12    53    51    1
    13    70    68    1
    14    52    51    1
    15    51    48    1
    16    34    35   ar
    17    34    32   ar
    18    68    69    1
    19    68    67    1
    20    35    33   ar
    21    25    24    2
    22    32    29   ar
    23    48    47    1
    24    48    49    1
    25    21    20    2
    26    50    49    2
    27    67    64    1
    28    64    63    1
    29    64    65    1
    30    24    23    1
    31    49    54   am
    32    33    31   ar
    33    23    22    1
    34    23    26    1
    35    29    31   ar
    36    29    27   ar
    37    20    22   am
    38    20    19    1
    39    66    65    2
    40    31    30   ar
    41    65    71   am
    42    54    55    1
    43    26    27    1
    44    19    18    1
    45    27    28   ar
    46    55    56    1
    47    55    58    1
    48    15    14    2
    49    71    72    1
    50    30    28   ar
    51    56    57    2
    52    18    14   am
    53    14    13    1
    54    58    59    1
    55    73    72    1
    56    73    74    2
    57    72    75    1
    58    59    60    1
    59    17    16    1
    60    13    16    1
    61    13    12    1
    62    61    60    2
    63    75    76    1
    64    60    62   am
    65    12     3   am
    66     1     2    1
    67    76    78    1
    68    76    77    1
    69     3     2    1
    70     3     4    2
    71     2     5    1
    72    87    85   am
    73    86    85    2
    74     5     6    1
    75    85    84    1
    76     6     7    1
    77    84    83    1
    78    83    80    1
    79     7     8    1
    80     8     9    2
    81    80    81    1
    82    80    79    1
    83    81    82    2
    84    11     9    1
    85     9    10    1
