@<TRIPOS>MOLECULE
tmp/5hvyA00.pdb
 242 230 0 0 0
SMALL
GASTEIGER

@<TRIPOS>ATOM
      1  N         -1.1960  -27.3350  140.9910 N.3    29  VAL29      -0.1245
      2  CA        -2.0060  -26.1320  140.7540 C.3    29  VAL29       0.1561
      3  C         -1.4060  -24.8560  141.3830 C.2    29  VAL29       0.2260
      4  O         -1.8780  -23.7430  141.1170 O.2    29  VAL29      -0.2867
      5  CB        -3.4700  -26.3170  141.2520 C.3    29  VAL29       0.0252
      6  CG1       -4.2440  -27.2490  140.3150 C.3    29  VAL29       0.0019
      7  CG2       -3.5060  -26.8380  142.6890 C.3    29  VAL29       0.0019
      8  N          1.4320  -27.2780  145.6830 N.3    33  VAL33      -0.1245
      9  CA         0.0430  -27.6720  145.9190 C.3    33  VAL33       0.1561
     10  C         -0.5340  -28.4600  144.7450 C.2    33  VAL33       0.2260
     11  O         -0.3940  -28.0590  143.5890 O.2    33  VAL33      -0.2867
     12  CB        -0.8270  -26.4430  146.1940 C.3    33  VAL33       0.0252
     13  CG1       -2.2600  -26.8560  146.5180 C.3    33  VAL33       0.0019
     14  CG2       -0.2370  -25.6500  147.3520 C.3    33  VAL33       0.0019
     15  N         -7.0150  -31.1550  148.1720 N.3    48  ALA48      -0.1231
     16  CA        -5.8570  -30.3040  147.9570 C.3    48  ALA48       0.1694
     17  C         -4.7480  -30.8490  148.8290 C.2    48  ALA48       0.2592
     18  O         -4.9570  -31.1450  150.0110 O.2    48  ALA48      -0.2718
     19  CB        -6.1750  -28.8780  148.3280 C.3    48  ALA48       0.0304
     20  N         -3.5710  -30.9790  148.2350 N.am   49  LEU49      -0.1966
     21  CA        -2.4400  -31.6300  148.8800 C.3    49  LEU49       0.1728
     22  C         -1.2950  -30.6550  148.7930 C.2    49  LEU49       0.2616
     23  O         -1.0230  -30.1130  147.7190 O.2    49  LEU49      -0.2715
     24  CB        -2.1070  -32.9360  148.1660 C.3    49  LEU49       0.0311
     25  CG        -1.4400  -34.0840  148.9300 C.3    49  LEU49       0.0022
     26  CD1       -2.2270  -34.4960  150.1660 C.3    49  LEU49       0.0001
     27  CD2       -1.2920  -35.2630  147.9770 C.3    49  LEU49       0.0001
     28  N         -0.6570  -30.3940  149.9300 N.am   50  LYS50      -0.1977
     29  CA         0.4780  -29.4910  149.9700 C.3    50  LYS50       0.1596
     30  C          1.6770  -30.1510  150.6240 C.2    50  LYS50       0.2287
     31  O          1.5960  -30.6240  151.7630 O.2    50  LYS50      -0.2864
     32  CB         0.1280  -28.1880  150.7110 C.3    50  LYS50       0.0298
     33  CG         1.3570  -27.3740  151.0640 C.3    50  LYS50       0.0038
     34  CD         1.0460  -25.9330  151.4120 C.3    50  LYS50       0.0206
     35  CE         2.3370  -25.1880  151.7260 C.3    50  LYS50       0.1093
     36  NZ         2.2060  -23.7110  151.5810 N.3    50  LYS50      -0.1314
     37  N          4.3230  -24.4700  164.6200 N.3    63  ARG63      -0.1231
     38  CA         3.2510  -23.7120  165.2510 C.3    63  ARG63       0.1694
     39  C          2.0390  -23.6570  164.3290 C.2    63  ARG63       0.2591
     40  O          0.9010  -23.8130  164.7680 O.2    63  ARG63      -0.2718
     41  CB         3.7280  -22.3010  165.6340 C.3    63  ARG63       0.0321
     42  CG         2.7230  -21.5160  166.4860 C.3    63  ARG63       0.0489
     43  CD         3.3240  -20.2370  167.0620 C.3    63  ARG63       0.2205
     44  NE         2.3180  -19.4130  167.7290 N.pl3  63  ARG63      -0.0865
     45  CZ         2.5720  -18.2670  168.3550 C.cat  63  ARG63       0.5346
     46  NH1        3.8140  -17.7880  168.4180 N.pl3  63  ARG63       0.1354
     47  NH2        1.5750  -17.5970  168.9230 N.pl3  63  ARG63       0.1354
     48  N          2.2850  -23.4730  163.0410 N.am   64  GLU64      -0.1979
     49  CA         1.2040  -23.4140  162.0640 C.3    64  GLU64       0.1602
     50  C          0.3610  -24.6830  162.0730 C.2    64  GLU64       0.2287
     51  O         -0.8650  -24.6290  162.1560 O.2    64  GLU64      -0.2864
     52  CB         1.8020  -23.2120  160.6800 C.3    64  GLU64       0.0415
     53  CG         0.8550  -22.6430  159.6630 C.3    64  GLU64       0.1163
     54  CD         1.5850  -21.7940  158.6350 C.2    64  GLU64       0.3649
     55  OE1        1.9540  -20.6340  158.9620 O.co2  64  GLU64      -0.2457
     56  OE2        1.8030  -22.3010  157.5140 O.co2  64  GLU64      -0.2457
     57  N         -1.7080  -25.1660  165.2660 N.3    67  LEU67      -0.1231
     58  CA        -2.9440  -24.3920  165.3790 C.3    67  LEU67       0.1693
     59  C         -4.0260  -24.9290  164.4560 C.2    67  LEU67       0.2591
     60  O         -5.1820  -25.0850  164.8690 O.2    67  LEU67      -0.2718
     61  CB        -2.6980  -22.8930  165.1350 C.3    67  LEU67       0.0284
     62  CG        -1.7780  -22.2900  166.2150 C.3    67  LEU67       0.0019
     63  CD1       -1.3500  -20.8510  165.9370 C.3    67  LEU67       0.0001
     64  CD2       -2.4150  -22.3500  167.5870 C.3    67  LEU67       0.0001
     65  N         -3.6530  -25.2500  163.2230 N.am   68  LEU68      -0.1980
     66  CA        -4.6160  -25.7790  162.2620 C.3    68  LEU68       0.1596
     67  C         -5.2630  -27.0540  162.7710 C.2    68  LEU68       0.2287
     68  O         -6.4330  -27.3370  162.4750 O.2    68  LEU68      -0.2864
     69  CB        -3.9200  -26.0750  160.9390 C.3    68  LEU68       0.0297
     70  CG        -3.7700  -24.8770  160.0150 C.3    68  LEU68       0.0022
     71  CD1       -2.8700  -25.2620  158.8610 C.3    68  LEU68       0.0001
     72  CD2       -5.1340  -24.4180  159.5190 C.3    68  LEU68       0.0001
     73  N         -8.0970  -25.6910  165.0180 N.3    71  LEU71      -0.1245
     74  CA        -9.0780  -24.7510  164.4920 C.3    71  LEU71       0.1561
     75  C        -10.1810  -25.4390  163.6840 C.2    71  LEU71       0.2260
     76  O         -9.8950  -26.1920  162.7570 O.2    71  LEU71      -0.2867
     77  CB        -8.3770  -23.7400  163.6090 C.3    71  LEU71       0.0270
     78  CG        -7.4530  -22.8060  164.3830 C.3    71  LEU71       0.0019
     79  CD1       -6.4180  -22.2430  163.4540 C.3    71  LEU71       0.0001
     80  CD2       -8.2490  -21.6910  165.0480 C.3    71  LEU71       0.0001
     81  N        -13.2730  -21.2790  157.9270 N.3    76  VAL76      -0.1231
     82  CA       -11.8200  -21.4110  157.9770 C.3    76  VAL76       0.1692
     83  C        -11.4220  -22.7730  157.4200 C.2    76  VAL76       0.2591
     84  O        -12.0080  -23.7950  157.7820 O.2    76  VAL76      -0.2718
     85  CB       -11.2740  -21.2440  159.4110 C.3    76  VAL76       0.0266
     86  CG1       -9.7590  -21.3260  159.4070 C.3    76  VAL76       0.0020
     87  CG2      -11.7510  -19.9040  160.0200 C.3    76  VAL76       0.0020
     88  N        -10.4320  -22.7720  156.5310 N.am   77  ILE77      -0.1980
     89  CA        -9.9920  -23.9860  155.8560 C.3    77  ILE77       0.1595
     90  C         -9.5690  -24.9700  156.9280 C.2    77  ILE77       0.2287
     91  O         -8.9200  -24.5880  157.9060 O.2    77  ILE77      -0.2864
     92  CB        -8.8090  -23.7040  154.8810 C.3    77  ILE77       0.0276
     93  CG1       -8.5470  -24.8920  153.9610 C.3    77  ILE77       0.0022
     94  CG2       -7.5380  -23.3660  155.6500 C.3    77  ILE77       0.0022
     95  CD1       -9.6290  -25.1410  152.9220 C.3    77  ILE77       0.0001
     96  N          0.2650  -31.8920  153.8120 N.3    93  LEU93      -0.1245
     97  CA        -1.0030  -31.5030  154.4200 C.3    93  LEU93       0.1561
     98  C         -2.1510  -31.7600  153.4460 C.2    93  LEU93       0.2260
     99  O         -2.0260  -31.5050  152.2440 O.2    93  LEU93      -0.2867
    100  CB        -0.9710  -30.0250  154.7970 C.3    93  LEU93       0.0270
    101  CG         0.2020  -29.6140  155.6810 C.3    93  LEU93       0.0019
    102  CD1        0.1680  -28.1100  155.8900 C.3    93  LEU93       0.0001
    103  CD2        0.1520  -30.3580  156.9960 C.3    93  LEU93       0.0001
    104  N         -6.2140  -31.1150  152.5220 N.3    95  PHE95      -0.1227
    105  CA        -7.4020  -30.3020  152.7220 C.3    95  PHE95       0.1736
    106  C         -8.4620  -30.6680  151.6950 C.2    95  PHE95       0.2595
    107  O         -8.1370  -31.1790  150.6140 O.2    95  PHE95      -0.2718
    108  CB        -7.0890  -28.8300  152.4970 C.3    95  PHE95       0.0547
    109  CG        -5.8710  -28.3160  153.2170 C.ar   95  PHE95      -0.0202
    110  CD1       -4.6150  -28.4020  152.6390 C.ar   95  PHE95      -0.0042
    111  CD2       -5.9930  -27.6650  154.4280 C.ar   95  PHE95      -0.0042
    112  CE1       -3.4980  -27.8910  153.2810 C.ar   95  PHE95      -0.0003
    113  CE2       -4.8770  -27.1520  155.0720 C.ar   95  PHE95      -0.0003
    114  CZ        -3.6320  -27.2620  154.4980 C.ar   95  PHE95      -0.0000
    115  N         -9.7230  -30.3790  152.0110 N.am   96  ASP96      -0.1960
    116  CA       -10.7920  -30.4490  151.0150 C.3    96  ASP96       0.1840
    117  C        -10.5400  -29.3660  149.9770 C.2    96  ASP96       0.2622
    118  O        -10.1180  -28.2610  150.3080 O.2    96  ASP96      -0.2715
    119  CB       -12.1620  -30.2140  151.6510 C.3    96  ASP96       0.1450
    120  CG       -12.6300  -31.3770  152.4970 C.2    96  ASP96       0.3671
    121  OD1      -12.1490  -32.5030  152.2790 O.co2  96  ASP96      -0.2456
    122  OD2      -13.4930  -31.1640  153.3760 O.co2  96  ASP96      -0.2456
    123  N        -10.8150  -29.6780  148.7230 N.am   97  TYR97      -0.1960
    124  CA       -10.3640  -28.8520  147.6190 C.3    97  TYR97       0.1771
    125  C        -11.3010  -27.6710  147.3720 C.2    97  TYR97       0.2619
    126  O        -12.5150  -27.8480  147.2900 O.2    97  TYR97      -0.2715
    127  CB       -10.2710  -29.7170  146.3580 C.3    97  TYR97       0.0574
    128  CG        -9.7460  -28.9860  145.1390 C.ar   97  TYR97      -0.0198
    129  CD1       -8.3960  -28.6710  145.0150 C.ar   97  TYR97      -0.0009
    130  CD2      -10.5940  -28.6230  144.1100 C.ar   97  TYR97      -0.0009
    131  CE1       -7.9130  -28.0140  143.8950 C.ar   97  TYR97       0.0417
    132  CE2      -10.1170  -27.9620  142.9850 C.ar   97  TYR97       0.0417
    133  CZ        -8.7800  -27.6640  142.8840 C.ar   97  TYR97       0.1957
    134  OH        -8.3190  -27.0090  141.7640 O.3    97  TYR97      -0.2866
    135  N        -10.7370  -26.4730  147.2350 N.am   98  ALA98      -0.1977
    136  CA       -11.5310  -25.2830  146.9010 C.3    98  ALA98       0.1597
    137  C        -11.2490  -24.8150  145.4650 C.2    98  ALA98       0.2287
    138  O        -10.1300  -24.4210  145.1320 O.2    98  ALA98      -0.2864
    139  CB       -11.2600  -24.1670  147.9120 C.3    98  ALA98       0.0319
    140  N        -11.2290  -16.7900  164.4780 N.3   134  LEU134     -0.1245
    141  CA        -9.7870  -16.7910  164.7390 C.3   134  LEU134      0.1561
    142  C         -9.4640  -15.8030  165.8440 C.2   134  LEU134      0.2260
    143  O         -8.7410  -16.1130  166.8070 O.2   134  LEU134     -0.2867
    144  CB        -8.9990  -16.4130  163.4760 C.3   134  LEU134      0.0270
    145  CG        -9.0790  -17.4350  162.3300 C.3   134  LEU134      0.0019
    146  CD1       -8.3540  -16.9460  161.0900 C.3   134  LEU134      0.0001
    147  CD2       -8.5060  -18.7860  162.7480 C.3   134  LEU134      0.0001
    148  N         -5.9660  -15.7830  167.4970 N.3   139  VAL139     -0.1231
    149  CA        -5.1550  -16.0860  166.3200 C.3   139  VAL139      0.1692
    150  C         -5.3330  -14.9850  165.2980 C.2   139  VAL139      0.2592
    151  O         -6.4620  -14.6480  164.9320 O.2   139  VAL139     -0.2718
    152  CB        -5.5480  -17.4330  165.6820 C.3   139  VAL139      0.0266
    153  CG1       -4.7900  -17.6750  164.3570 C.3   139  VAL139      0.0020
    154  CG2       -5.2890  -18.5450  166.6630 C.3   139  VAL139      0.0020
    155  N         -4.2150  -14.4300  164.8470 N.am  140  LEU140     -0.1966
    156  CA        -4.2210  -13.3550  163.8610 C.3   140  LEU140      0.1728
    157  C         -3.8220  -13.9140  162.5040 C.2   140  LEU140      0.2616
    158  O         -3.0540  -14.8760  162.4320 O.2   140  LEU140     -0.2715
    159  CB        -3.2290  -12.2740  164.2690 C.3   140  LEU140      0.0311
    160  CG        -3.4760  -11.6610  165.6550 C.3   140  LEU140      0.0022
    161  CD1       -2.4650  -10.5670  165.9290 C.3   140  LEU140      0.0001
    162  CD2       -4.9060  -11.1260  165.7700 C.3   140  LEU140      0.0001
    163  N         -4.3350  -13.3130  161.4310 N.am  141  HIS141     -0.1959
    164  CA        -4.0080  -13.7860  160.0910 C.3   141  HIS141      0.1787
    165  C         -2.7180  -13.1830  159.5640 C.2   141  HIS141      0.2620
    166  O         -1.8170  -13.9200  159.1770 O.2   141  HIS141     -0.2715
    167  CB        -5.1350  -13.5220  159.0950 C.3   141  HIS141      0.0785
    168  CG        -4.9870  -14.3060  157.8330 C.ar  141  HIS141      0.0821
    169  ND1       -4.0350  -14.0130  156.8730 N.ar  141  HIS141     -0.2267
    170  CD2       -5.6250  -15.4120  157.3950 C.ar  141  HIS141      0.1154
    171  CE1       -4.1140  -14.8880  155.8920 C.ar  141  HIS141      0.1986
    172  NE2       -5.0760  -15.7490  156.1830 N.ar  141  HIS141     -0.2212
    173  N         -2.6660  -11.8470  159.5240 N.am  142  ARG142     -0.1977
    174  CA        -1.4600  -11.0740  159.1830 C.3   142  ARG142      0.1597
    175  C         -1.1880  -10.9180  157.6860 C.2   142  ARG142      0.2287
    176  O         -0.2380  -10.2360  157.3080 O.2   142  ARG142     -0.2864
    177  CB        -0.2040  -11.6490  159.8580 C.3   142  ARG142      0.0334
    178  CG        -0.2770  -11.7380  161.3550 C.3   142  ARG142      0.0492
    179  CD         0.8740  -12.5360  161.9320 C.3   142  ARG142      0.2205
    180  NE         0.3380  -13.4850  162.9050 N.pl3 142  ARG142     -0.0865
    181  CZ         0.4250  -13.3520  164.2260 C.cat 142  ARG142      0.5346
    182  NH1        1.0700  -12.3210  164.7630 N.pl3 142  ARG142      0.1354
    183  NH2       -0.1230  -14.2720  165.0170 N.pl3 142  ARG142      0.1354
    184  N        -10.5920  -18.2740  149.8270 N.3   150  LEU150     -0.1245
    185  CA       -11.0320  -19.3400  148.9460 C.3   150  LEU150      0.1561
    186  C        -12.5500  -19.4090  148.9710 C.2   150  LEU150      0.2260
    187  O        -13.1810  -18.9970  149.9470 O.2   150  LEU150     -0.2867
    188  CB       -10.4360  -20.6720  149.3950 C.3   150  LEU150      0.0270
    189  CG        -8.9100  -20.7030  149.5100 C.3   150  LEU150      0.0019
    190  CD1       -8.4270  -22.0930  149.9410 C.3   150  LEU150      0.0001
    191  CD2       -8.2450  -20.2640  148.1880 C.3   150  LEU150      0.0001
    192  N        -11.4030  -19.0660  154.6530 N.3   163  ILE163     -0.1231
    193  CA       -10.2090  -18.2610  154.8490 C.3   163  ILE163      0.1692
    194  C         -9.0350  -19.2160  154.8150 C.2   163  ILE163      0.2592
    195  O         -9.1300  -20.3140  155.3500 O.2   163  ILE163     -0.2718
    196  CB       -10.2590  -17.5110  156.1980 C.3   163  ILE163      0.0266
    197  CG1      -11.3550  -16.4510  156.1370 C.3   163  ILE163      0.0019
    198  CG2       -8.8950  -16.8630  156.5440 C.3   163  ILE163      0.0020
    199  CD1      -11.5440  -15.6950  157.4170 C.3   163  ILE163      0.0001
    200  N         -7.9340  -18.8020  154.1930 N.am  164  ALA164     -0.1966
    201  CA        -6.7530  -19.6540  154.0650 C.3   164  ALA164      0.1728
    202  C         -5.4730  -18.8230  154.0760 C.2   164  ALA164      0.2616
    203  O         -5.5180  -17.5980  154.0730 O.2   164  ALA164     -0.2715
    204  CB        -6.8260  -20.4420  152.7690 C.3   164  ALA164      0.0334
    205  N         -4.3350  -19.5100  154.0680 N.am  165  ASP165     -0.1957
    206  CA        -3.0310  -18.8930  153.8410 C.3   165  ASP165      0.1840
    207  C         -2.2990  -19.7090  152.7690 C.2   165  ASP165      0.2621
    208  O         -1.7790  -20.8040  153.0420 O.2   165  ASP165     -0.2715
    209  CB        -2.2070  -18.8470  155.1370 C.3   165  ASP165      0.1450
    210  CG        -0.9510  -18.0030  155.0030 C.2   165  ASP165      0.3671
    211  OD1       -0.4040  -17.9060  153.8850 O.co2 165  ASP165     -0.2456
    212  OD2       -0.5060  -17.4320  156.0150 O.co2 165  ASP165     -0.2456
    213  N         -2.2580  -19.1710  151.5500 N.am  166  MET166     -0.1977
    214  CA        -1.7050  -19.9010  150.4010 C.3   166  MET166      0.1605
    215  C         -0.1880  -19.8860  150.3140 C.2   166  MET166      0.2287
    216  O          0.3750  -20.3080  149.3100 O.2   166  MET166     -0.2864
    217  CB        -2.3090  -19.3790  149.0950 C.3   166  MET166      0.0413
    218  CG        -3.8280  -19.4100  149.1130 C.3   166  MET166      0.0598
    219  SD        -4.4000  -21.1170  149.2950 S.3   166  MET166     -0.1393
    220  CE        -4.1490  -21.7540  147.6380 C.3   166  MET166      0.0692
    221  N          6.0420  -13.2500  153.4870 N.3   170  ARG170     -0.1245
    222  CA         5.6200  -12.1760  154.3820 C.3   170  ARG170      0.1563
    223  C          6.7660  -11.2070  154.6560 C.2   170  ARG170      0.2260
    224  O          7.9230  -11.4930  154.3400 O.2   170  ARG170     -0.2867
    225  CB         5.0850  -12.7590  155.6940 C.3   170  ARG170      0.0307
    226  CG         3.7190  -13.3730  155.5200 C.3   170  ARG170      0.0489
    227  CD         3.3300  -13.8070  156.9150 C.3   170  ARG170      0.2205
    228  NE         2.0330  -14.4550  156.9240 N.pl3 170  ARG170     -0.0865
    229  CZ         1.6550  -15.2950  157.8910 C.cat 170  ARG170      0.5346
    230  NH1        2.4680  -15.6240  158.8980 N.pl3 170  ARG170      0.1354
    231  NH2        0.4180  -15.7930  157.8070 N.pl3 170  ARG170      0.1354
    232  N         -9.4440  -24.0610  138.1530 N.3   332  ARG332     -0.1245
    233  CA        -8.0020  -23.8620  138.1920 C.3   332  ARG332      0.1563
    234  C         -7.3100  -24.5720  137.0510 C.2   332  ARG332      0.2260
    235  O         -7.7580  -25.6220  136.5950 O.2   332  ARG332     -0.2867
    236  CB        -7.4290  -24.3740  139.5100 C.3   332  ARG332      0.0307
    237  CG        -7.9990  -23.6880  140.7180 C.3   332  ARG332      0.0489
    238  CD        -7.1620  -23.9370  141.9590 C.3   332  ARG332      0.2205
    239  NE        -7.8650  -23.5190  143.1720 N.pl3 332  ARG332     -0.0865
    240  CZ        -7.9860  -22.2510  143.5580 C.cat 332  ARG332      0.5346
    241  NH1       -7.4600  -21.2750  142.8280 N.pl3 332  ARG332      0.1354
    242  NH2       -8.6380  -21.9470  144.6710 N.pl3 332  ARG332      0.1354
@<TRIPOS>BOND
     1   235   234    2
     2   234   233    1
     3   232   233    1
     4   233   236    1
     5   236   237    1
     6     6     5    1
     7   237   238    1
     8     2     1    1
     9     2     5    1
    10     2     3    1
    11     4     3    2
    12     5     7    1
    13   134   133    1
    14   238   239    1
    15   241   240    1
    16   133   132   ar
    17   133   131   ar
    18   132   130   ar
    19   239   240    2
    20   240   242    1
    21    11    10    2
    22   131   129   ar
    23   130   128   ar
    24    10     9    1
    25   129   128   ar
    26   138   137    2
    27   128   127    1
    28   137   136    1
    29     8     9    1
    30     9    12    1
    31    12    13    1
    32    12    14    1
    33   127   124    1
    34   136   135    1
    35   136   139    1
    36   135   125   am
    37   126   125    2
    38   125   124    1
    39   124   123    1
    40   220   219    1
    41    23    22    2
    42    16    15    1
    43    16    19    1
    44    16    17    1
    45    27    25    1
    46    24    21    1
    47    24    25    1
    48   191   189    1
    49    20    17   am
    50    20    21    1
    51   123   117   am
    52    22    21    1
    53    22    28   am
    54    17    18    2
    55    25    26    1
    56   185   186    1
    57   185   188    1
    58   185   184    1
    59   186   187    2
    60   217   218    1
    61   217   214    1
    62   218   219    1
    63   216   215    2
    64   188   189    1
    65   189   190    1
    66    28    29    1
    67    29    30    1
    68    29    32    1
    69   117   118    2
    70   117   116    1
    71   215   214    1
    72   214   213    1
    73   107   106    2
    74    30    31    2
    75    32    33    1
    76   116   119    1
    77   116   115    1
    78    33    34    1
    79    34    35    1
    80   213   207   am
    81    36    35    1
    82   119   120    1
    83   106   115   am
    84   106   105    1
    85    99    98    2
    86   121   120   ar
    87   120   122   ar
    88   108   105    1
    89   108   109    1
    90   104   105    1
    91   110   109   ar
    92   110   112   ar
    93   207   208    2
    94   207   206    1
    95   204   201    1
    96    95    93    1
    97   109   111   ar
    98   112   114   ar
    99    98    97    1
   100   221   222    1
   101    96    97    1
   102   206   205    1
   103   206   209    1
   104   211   210   ar
   105    93    92    1
   106   201   202    1
   107   201   200    1
   108   205   202   am
   109   203   202    2
   110   200   194   am
   111   224   223    2
   112   222   223    1
   113   222   225    1
   114    97   100    1
   115   111   113   ar
   116   114   113   ar
   117   192   193    1
   118   100   101    1
   119   194   193    1
   120   194   195    2
   121   193   196    1
   122    92    94    1
   123    92    89    1
   124   210   209    1
   125   210   212   ar
   126   226   225    1
   127   226   227    1
   128   101   102    1
   129   101   103    1
   130    89    88    1
   131    89    90    1
   132   171   172   ar
   133   171   169   ar
   134   197   196    1
   135   197   199    1
   136   172   170   ar
   137   196   198    1
   138    88    83   am
   139   169   168   ar
   140   227   228    1
   141   228   229    2
   142    90    91    2
   143   176   175    2
   144   170   168   ar
   145    83    84    2
   146    83    82    1
   147    56    54   ar
   148   175   174    1
   149   231   229    1
   150   168   167    1
   151   229   230    1
   152    81    82    1
   153    82    85    1
   154    54    55   ar
   155    54    53    1
   156    71    70    1
   157   167   164    1
   158   166   165    2
   159   174   173    1
   160   174   177    1
   161    86    85    1
   162    85    87    1
   163    72    70    1
   164   173   165   am
   165   165   164    1
   166    53    52    1
   167   177   178    1
   168    70    69    1
   169   164   163    1
   170    52    49    1
   171    69    66    1
   172   146   145    1
   173   178   179    1
   174   163   157   am
   175   179   180    1
   176    49    50    1
   177    49    48    1
   178    50    51    2
   179    66    67    1
   180    66    65    1
   181   145   147    1
   182   145   144    1
   183   158   157    2
   184    68    67    2
   185   157   156    1
   186    76    75    2
   187   180   181    2
   188    48    39   am
   189    65    59   am
   190    79    78    1
   191   144   141    1
   192    77    78    1
   193    77    74    1
   194    75    74    1
   195   156   159    1
   196   156   155    1
   197   181   182    1
   198   181   183    1
   199   159   160    1
   200    39    40    2
   201    39    38    1
   202   153   152    1
   203    78    80    1
   204    59    60    2
   205    59    58    1
   206   140   141    1
   207    74    73    1
   208    37    38    1
   209   141   142    1
   210   155   150   am
   211   151   150    2
   212    61    58    1
   213    61    62    1
   214    38    41    1
   215    57    58    1
   216   150   149    1
   217    41    42    1
   218   160   162    1
   219   160   161    1
   220   152   149    1
   221   152   154    1
   222   142   143    2
   223    63    62    1
   224    62    64    1
   225   149   148    1
   226    42    43    1
   227    43    44    1
   228    44    45    2
   229    45    46    1
   230    45    47    1
