@<TRIPOS>MOLECULE
tmp/5hw0A00.pdb
 90 86 0 0 0
SMALL
GASTEIGER

@<TRIPOS>ATOM
      1  N        -14.5150   18.4240    5.0140 N.3    12  GLY12      -0.1210
      2  CA       -13.9550   17.5450    6.0140 C.3    12  GLY12       0.1956
      3  C        -12.4380   17.5980    6.0650 C.2    12  GLY12       0.2613
      4  O        -11.7590   17.9780    5.1140 O.2    12  GLY12      -0.2717
      5  N        -11.9060   17.1940    7.2180 N.am   13  THR13      -0.1938
      6  CA       -10.4680   17.2440    7.4460 C.3    13  THR13       0.2028
      7  C         -9.6930   16.2720    6.5650 C.2    13  THR13       0.2642
      8  O         -8.4710   16.4170    6.4330 O.2    13  THR13      -0.2714
      9  CB       -10.1890   16.9780    8.9220 C.3    13  THR13       0.1808
     10  OG1       -9.2630   17.9510    9.4160 O.3    13  THR13      -0.2208
     11  CG2       -9.6780   15.5490    9.1520 C.3    13  THR13       0.0379
     12  N        -10.3680   15.2960    5.9510 N.am   14  ILE14      -0.1977
     13  CA        -9.6850   14.4200    5.0050 C.3    14  ILE14       0.1596
     14  C         -9.0580   15.2470    3.8910 C.2    14  ILE14       0.2287
     15  O         -8.0440   14.8510    3.2960 O.2    14  ILE14      -0.2864
     16  CB       -10.6640   13.3540    4.4730 C.3    14  ILE14       0.0276
     17  CG1       -9.9250   12.3410    3.6050 C.3    14  ILE14       0.0022
     18  CG2      -11.8260   14.0040    3.7110 C.3    14  ILE14       0.0022
     19  CD1      -10.7450   11.1300    3.2680 C.3    14  ILE14       0.0001
     20  N        -16.9840   22.1110    6.8440 N.3    45  ALA45      -0.1231
     21  CA       -16.9480   21.2080    7.9870 C.3    45  ALA45       0.1694
     22  C        -18.3290   20.5780    8.1600 C.2    45  ALA45       0.2593
     23  O        -19.3580   21.2440    7.9960 O.2    45  ALA45      -0.2718
     24  CB       -16.5170   21.9700    9.2420 C.3    45  ALA45       0.0304
     25  N        -18.3590   19.2760    8.4660 N.am   46  SER46      -0.1938
     26  CA       -19.6290   18.5670    8.3870 C.3    46  SER46       0.2055
     27  C        -20.6240   19.0250    9.4390 C.2    46  SER46       0.2642
     28  O        -21.8270   18.7940    9.2710 O.2    46  SER46      -0.2714
     29  CB       -19.4090   17.0460    8.4980 C.3    46  SER46       0.2130
     30  OG       -19.1110   16.6760    9.8400 O.3    46  SER46      -0.2179
     31  N        -20.1670   19.6610   10.5220 N.am   47  GLU47      -0.1976
     32  CA       -21.1290   20.2030   11.4800 C.3    47  GLU47       0.1602
     33  C        -21.9940   21.3020   10.8770 C.2    47  GLU47       0.2287
     34  O        -23.0110   21.6720   11.4780 O.2    47  GLU47      -0.2864
     35  CB       -20.4210   20.7270   12.7340 C.3    47  GLU47       0.0415
     36  CG       -19.4530   21.9000   12.5140 C.3    47  GLU47       0.1163
     37  CD       -18.0170   21.4440   12.2870 C.2    47  GLU47       0.3649
     38  OE1      -17.8130   20.3470   11.7210 O.co2  47  GLU47      -0.2457
     39  OE2      -17.0900   22.1730   12.7030 O.co2  47  GLU47      -0.2457
     40  N        -16.1450   13.5870    3.1410 N.3    77  HIS77      -0.1226
     41  CA       -17.0800   14.2230    4.0570 C.3    77  HIS77       0.1752
     42  C        -16.3900   14.3090    5.4120 C.2    77  HIS77       0.2597
     43  O        -15.4860   13.5230    5.6990 O.2    77  HIS77      -0.2718
     44  CB       -18.3740   13.3900    4.1200 C.3    77  HIS77       0.0759
     45  CG       -19.5800   14.1000    4.6640 C.ar   77  HIS77       0.0818
     46  ND1      -19.7670   14.3480    6.0100 N.ar   77  HIS77      -0.2268
     47  CD2      -20.7170   14.5080    4.0510 C.ar   77  HIS77       0.1154
     48  CE1      -20.9400   14.9270    6.1930 C.ar   77  HIS77       0.1986
     49  NE2      -21.5400   15.0320    5.0200 N.ar   77  HIS77      -0.2212
     50  N        -16.7940   15.2800    6.2280 N.am   78  GLY78      -0.1942
     51  CA       -16.3380   15.3100    7.6070 C.3    78  GLY78       0.2014
     52  C        -16.9750   14.1900    8.4150 C.2    78  GLY78       0.2640
     53  O        -18.0460   13.6790    8.0780 O.2    78  GLY78      -0.2714
     54  N        -16.2870   13.7790    9.4900 N.am   79  THR79      -0.1936
     55  CA       -16.7580   12.6430   10.2840 C.3    79  THR79       0.2028
     56  C        -17.9910   12.9720   11.1150 C.2    79  THR79       0.2642
     57  O        -18.7950   12.0760   11.3970 O.2    79  THR79      -0.2714
     58  CB       -15.6580   12.1400   11.2330 C.3    79  THR79       0.1808
     59  OG1      -15.2450   13.2070   12.0980 O.3    79  THR79      -0.2208
     60  CG2      -14.4620   11.6240   10.4550 C.3    79  THR79       0.0379
     61  N        -18.1580   14.2300   11.5300 N.am   80  ASP80      -0.1971
     62  CA       -19.0980   14.5210   12.6120 C.3    80  ASP80       0.1709
     63  C        -20.5430   14.2230   12.2300 C.2    80  ASP80       0.2293
     64  O        -21.3080   13.7200   13.0620 O.2    80  ASP80      -0.2864
     65  CB       -18.9550   15.9690   13.0610 C.3    80  ASP80       0.1436
     66  CG       -17.6550   16.2030   13.8000 C.2    80  ASP80       0.3671
     67  OD1      -16.9730   15.2080   14.1250 O.co2  80  ASP80      -0.2456
     68  OD2      -17.3190   17.3670   14.0650 O.co2  80  ASP80      -0.2456
     69  N        -11.9300   11.1590    7.5250 N.3   104  ALA104     -0.1231
     70  CA       -10.6910   10.9430    8.2600 C.3   104  ALA104      0.1694
     71  C        -10.8010   11.5830    9.6360 C.2   104  ALA104      0.2591
     72  O        -11.3100   12.6980    9.7780 O.2   104  ALA104     -0.2718
     73  CB        -9.4840   11.5370    7.5280 C.3   104  ALA104      0.0304
     74  N        -10.2960   10.8880   10.6480 N.am  105  MET105     -0.1979
     75  CA       -10.2850   11.4510   11.9920 C.3   105  MET105      0.1605
     76  C         -9.0660   12.3200   12.2670 C.2   105  MET105      0.2287
     77  O         -9.1150   13.1720   13.1640 O.2   105  MET105     -0.2864
     78  CB       -10.3890   10.3260   13.0210 C.3   105  MET105      0.0413
     79  CG       -11.7920    9.7250   13.1060 C.3   105  MET105      0.0598
     80  SD       -13.0090   10.9260   13.7020 S.3   105  MET105     -0.1393
     81  CE       -12.5770   11.0230   15.4400 C.3   105  MET105      0.0692
     82  N        -20.8030    7.3420   14.5740 N.3   152  LYS152     -0.1245
     83  CA       -19.5910    7.8030   15.2410 C.3   152  LYS152      0.1561
     84  C        -19.7800    7.5980   16.7370 C.2   152  LYS152      0.2260
     85  O        -20.5770    8.3030   17.3640 O.2   152  LYS152     -0.2867
     86  CB       -19.3200    9.2690   14.8980 C.3   152  LYS152      0.0271
     87  CG       -17.9580    9.7800   15.3690 C.3   152  LYS152      0.0035
     88  CD       -17.6390   11.1960   14.8520 C.3   152  LYS152      0.0206
     89  CE       -16.2640   11.6640   15.3750 C.3   152  LYS152      0.1093
     90  NZ       -15.8170   12.9100   14.6940 N.3   152  LYS152     -0.1314
@<TRIPOS>BOND
     1    40    41    1
     2    19    17    1
     3    15    14    2
     4    17    16    1
     5    18    16    1
     6    14    13    1
     7    47    45   ar
     8    47    49   ar
     9    41    44    1
    10    41    42    1
    11    44    45    1
    12    16    13    1
    13    45    46   ar
    14    13    12    1
    15     1     2    1
    16    49    48   ar
    17     4     3    2
    18    42    43    2
    19    42    50   am
    20    12     7   am
    21    46    48   ar
    22     2     3    1
    23     3     5   am
    24    50    51    1
    25     8     7    2
    26     7     6    1
    27    20    21    1
    28     5     6    1
    29     6     9    1
    30    69    70    1
    31    73    70    1
    32    51    52    1
    33    21    22    1
    34    21    24    1
    35    23    22    2
    36    53    52    2
    37    22    25   am
    38    70    71    1
    39    26    25    1
    40    26    29    1
    41    26    27    1
    42    52    54   am
    43    29    30    1
    44     9    11    1
    45     9    10    1
    46    28    27    2
    47    27    31   am
    48    54    55    1
    49    71    72    2
    50    71    74   am
    51    55    56    1
    52    55    58    1
    53    60    58    1
    54    31    32    1
    55    74    75    1
    56    33    34    2
    57    33    32    1
    58    56    57    2
    59    56    61   am
    60    58    59    1
    61    32    35    1
    62    61    62    1
    63    38    37   ar
    64    75    76    1
    65    75    78    1
    66    63    62    1
    67    63    64    2
    68    76    77    2
    69    37    36    1
    70    37    39   ar
    71    36    35    1
    72    62    65    1
    73    78    79    1
    74    65    66    1
    75    79    80    1
    76    80    81    1
    77    66    68   ar
    78    66    67   ar
    79    82    83    1
    80    90    89    1
    81    88    87    1
    82    88    89    1
    83    86    83    1
    84    86    87    1
    85    83    84    1
    86    84    85    2
