@<TRIPOS>MOLECULE
tmp/5hw4A00.pdb
 152 144 0 0 0
SMALL
GASTEIGER

@<TRIPOS>ATOM
      1  N         12.1170  -10.7840    2.4270 N.3    11  ILE11      -0.1245
      2  CA        13.0050  -10.0820    3.3520 C.3    11  ILE11       0.1561
      3  C         12.2330   -9.0730    4.2070 C.2    11  ILE11       0.2260
      4  O         12.7650   -8.0230    4.5820 O.2    11  ILE11      -0.2867
      5  CB        14.1640   -9.3680    2.6260 C.3    11  ILE11       0.0252
      6  CG1       13.6530   -8.4290    1.5290 C.3    11  ILE11       0.0019
      7  CG2       15.1040  -10.3800    2.0240 C.3    11  ILE11       0.0019
      8  CD1       14.7590   -7.7870    0.6970 C.3    11  ILE11       0.0001
      9  N         15.6880  -15.6100    5.4900 N.3    80  ALA80      -0.1231
     10  CA        15.2820  -14.4810    4.6690 C.3    80  ALA80       0.1694
     11  C         16.1420  -14.3930    3.4150 C.2    80  ALA80       0.2593
     12  O         17.3180  -14.7440    3.4290 O.2    80  ALA80      -0.2718
     13  CB        15.3650  -13.1660    5.4900 C.3    80  ALA80       0.0304
     14  N         15.5590  -13.9340    2.3210 N.am   81  GLY81      -0.1942
     15  CA        16.3360  -13.7270    1.1100 C.3    81  GLY81       0.2014
     16  C         16.8640  -15.0090    0.5010 C.2    81  GLY81       0.2639
     17  O         16.2400  -16.0750    0.6100 O.2    81  GLY81      -0.2714
     18  N         18.0170  -14.9180   -0.1440 N.am   82  THR82      -0.1950
     19  CA        18.5090  -16.0170   -0.9620 C.3    82  THR82       0.1897
     20  C         19.5280  -16.8820   -0.2030 C.2    82  THR82       0.2313
     21  O         20.4900  -16.3590    0.3470 O.2    82  THR82      -0.2863
     22  CB        19.1330  -15.4560   -2.2750 C.3    82  THR82       0.1794
     23  OG1       18.1100  -14.8170   -3.0560 O.3    82  THR82      -0.2208
     24  CG2       19.8080  -16.5450   -3.0920 C.3    82  THR82       0.0378
     25  N         23.8320  -16.8100    0.1350 N.3    85  ILE85      -0.1231
     26  CA        24.3240  -15.4360    0.1670 C.3    85  ILE85       0.1692
     27  C         24.4020  -14.9750    1.6300 C.2    85  ILE85       0.2592
     28  O         23.4300  -14.4320    2.1830 O.2    85  ILE85      -0.2718
     29  CB        23.4340  -14.4840   -0.6490 C.3    85  ILE85       0.0266
     30  CG1       23.0700  -15.1120   -1.9980 C.3    85  ILE85       0.0019
     31  CG2       24.1220  -13.1260   -0.8300 C.3    85  ILE85       0.0020
     32  CD1       24.2590  -15.5760   -2.8240 C.3    85  ILE85       0.0001
     33  N         25.5640  -15.2010    2.2470 N.am   86  ASN86      -0.1960
     34  CA        25.7390  -15.0670    3.7020 C.3    86  ASN86       0.1819
     35  C         24.6320  -15.7870    4.4770 C.2    86  ASN86       0.2621
     36  O         23.9910  -15.2240    5.3610 O.2    86  ASN86      -0.2715
     37  CB        25.8150  -13.5980    4.1130 C.3    86  ASN86       0.1195
     38  CG        27.2310  -13.1830    4.5060 C.2    86  ASN86       0.2630
     39  OD1       28.0440  -12.7950    3.6580 O.2    86  ASN86      -0.2716
     40  ND2       27.5360  -13.2860    5.7950 N.am   86  ASN86      -0.0877
     41  N         24.4150  -17.0410    4.1010 N.am   87  ASP87      -0.1971
     42  CA        23.4470  -17.9320    4.7290 C.3    87  ASP87       0.1709
     43  C         23.9480  -19.3400    4.4300 C.2    87  ASP87       0.2293
     44  O         24.6060  -19.5480    3.4100 O.2    87  ASP87      -0.2864
     45  CB        22.0420  -17.7260    4.1710 C.3    87  ASP87       0.1436
     46  CG        21.1920  -16.7750    5.0070 C.2    87  ASP87       0.3671
     47  OD1       21.2570  -16.8150    6.2660 O.co2  87  ASP87      -0.2456
     48  OD2       20.4120  -16.0120    4.3820 O.co2  87  ASP87      -0.2456
     49  N         16.6630  -10.7900   -2.6920 N.3   110  CYS110     -0.1221
     50  CA        18.0210  -10.6930   -2.1650 C.3   110  CYS110      0.1808
     51  C         18.2350   -9.2380   -1.7350 C.2   110  CYS110      0.2601
     52  O         18.0050   -8.3080   -2.5330 O.2   110  CYS110     -0.2717
     53  CB        19.0510  -11.1160   -3.2080 C.3   110  CYS110      0.0970
     54  SG        20.7420  -10.7490   -2.7230 S.3   110  CYS110     -0.0800
     55  N         18.6020   -9.0280   -0.4730 N.am  111  ALA111     -0.1979
     56  CA        18.6200   -7.6730    0.0990 C.3   111  ALA111      0.1597
     57  C         19.6860   -6.7880   -0.5630 C.2   111  ALA111      0.2287
     58  O         19.4380   -5.6260   -0.8420 O.2   111  ALA111     -0.2864
     59  CB        18.8340   -7.7270    1.6260 C.3   111  ALA111      0.0319
     60  N         29.3040   -8.9310    5.5530 N.3   131  PHE131     -0.1241
     61  CA        29.4360   -8.2530    6.8400 C.3   131  PHE131      0.1605
     62  C         30.8860   -7.8460    7.0830 C.2   131  PHE131      0.2264
     63  O         31.7910   -8.6610    6.9490 O.2   131  PHE131     -0.2867
     64  CB        28.9660   -9.1560    7.9970 C.3   131  PHE131      0.0534
     65  CG        27.4690   -9.2090    8.1730 C.ar  131  PHE131     -0.0203
     66  CD1       26.8000   -8.1830    8.8240 C.ar  131  PHE131     -0.0042
     67  CD2       26.7340  -10.2970    7.7050 C.ar  131  PHE131     -0.0042
     68  CE1       25.4210   -8.2240    8.9980 C.ar  131  PHE131     -0.0003
     69  CE2       25.3560  -10.3530    7.8760 C.ar  131  PHE131     -0.0003
     70  CZ        24.6990   -9.3140    8.5270 C.ar  131  PHE131     -0.0000
     71  N         26.5480   -5.6020    4.3710 N.3   156  TYR156     -0.1227
     72  CA        25.5240   -5.7990    5.3860 C.3   156  TYR156      0.1736
     73  C         26.0370   -5.2320    6.7090 C.2   156  TYR156      0.2595
     74  O         27.1810   -5.4520    7.0610 O.2   156  TYR156     -0.2718
     75  CB        25.1830   -7.2890    5.5200 C.3   156  TYR156      0.0548
     76  CG        24.4300   -7.8480    4.3200 C.ar  156  TYR156     -0.0200
     77  CD1       23.7840   -6.9990    3.4310 C.ar  156  TYR156     -0.0009
     78  CD2       24.3510   -9.2180    4.0890 C.ar  156  TYR156     -0.0009
     79  CE1       23.0830   -7.4920    2.3400 C.ar  156  TYR156      0.0417
     80  CE2       23.6500   -9.7250    2.9860 C.ar  156  TYR156      0.0417
     81  CZ        23.0150   -8.8570    2.1200 C.ar  156  TYR156      0.1957
     82  OH        22.3160   -9.3360    1.0260 O.3   156  TYR156     -0.2866
     83  N         25.2120   -4.4950    7.4390 N.am  157  GLU157     -0.1965
     84  CA        25.6330   -4.0490    8.7570 C.3   157  GLU157      0.1733
     85  C         24.5240   -4.1660    9.7860 C.2   157  GLU157      0.2617
     86  O         23.3630   -3.8760    9.5010 O.2   157  GLU157     -0.2715
     87  CB        26.1410   -2.5990    8.7230 C.3   157  GLU157      0.0429
     88  CG        26.8050   -2.1720   10.0410 C.3   157  GLU157      0.1163
     89  CD        27.8790   -3.1590   10.4860 C.2   157  GLU157      0.3649
     90  OE1       27.5640   -4.0910   11.2570 O.co2 157  GLU157     -0.2457
     91  OE2       29.0420   -3.0220   10.0480 O.co2 157  GLU157     -0.2457
     92  N         24.9070   -4.5890   10.9880 N.am  158  SER158     -0.1950
     93  CA        23.9940   -4.6980   12.1250 C.3   158  SER158      0.1924
     94  C         23.6640   -3.3530   12.7880 C.2   158  SER158      0.2314
     95  O         24.4790   -2.4130   12.8280 O.2   158  SER158     -0.2863
     96  CB        24.5810   -5.6470   13.1710 C.3   158  SER158      0.2116
     97  OG        24.0920   -5.3370   14.4680 O.3   158  SER158     -0.2180
     98  N         20.3980    1.7380    3.1570 N.3   182  ALA182     -0.1245
     99  CA        19.0920    1.1710    2.8110 C.3   182  ALA182      0.1562
    100  C         18.5630    0.4220    4.0260 C.2   182  ALA182      0.2260
    101  O         19.0980   -0.6200    4.4100 O.2   182  ALA182     -0.2867
    102  CB        19.2020    0.2540    1.6100 C.3   182  ALA182      0.0290
    103  N         15.4690   -1.3990    6.3130 N.3   184  GLU184     -0.1231
    104  CA        14.1490   -2.0340    6.4250 C.3   184  GLU184      0.1699
    105  C         13.4320   -2.1050    5.0730 C.2   184  GLU184      0.2592
    106  O         12.2500   -1.7750    4.9560 O.2   184  GLU184     -0.2718
    107  CB        13.2830   -1.2870    7.4500 C.3   184  GLU184      0.0402
    108  CG        13.7710   -1.4170    8.9000 C.3   184  GLU184      0.1161
    109  CD        13.5000   -2.8020    9.4980 C.2   184  GLU184      0.3649
    110  OE1       12.4630   -2.9560   10.1760 O.co2 184  GLU184     -0.2457
    111  OE2       14.3120   -3.7370    9.2940 O.co2 184  GLU184     -0.2457
    112  N         14.1830   -2.5090    4.0580 N.am  185  LEU185     -0.1980
    113  CA        13.6450   -2.6640    2.7130 C.3   185  LEU185      0.1596
    114  C         12.4110   -3.5380    2.7480 C.2   185  LEU185      0.2287
    115  O         12.4140   -4.5780    3.4140 O.2   185  LEU185     -0.2864
    116  CB        14.6900   -3.2720    1.7870 C.3   185  LEU185      0.0297
    117  CG        15.9470   -2.4430    1.5090 C.3   185  LEU185      0.0022
    118  CD1       16.9850   -3.2740    0.7670 C.3   185  LEU185      0.0001
    119  CD2       15.6050   -1.1890    0.7440 C.3   185  LEU185      0.0001
    120  N          9.7180   -3.2170    4.1780 N.3   187  LYS187     -0.1245
    121  CA         8.9280   -3.0720    5.4110 C.3   187  LYS187      0.1561
    122  C          8.3280   -1.6790    5.5230 C.2   187  LYS187      0.2260
    123  O          8.6430   -0.7840    4.7340 O.2   187  LYS187     -0.2867
    124  CB         9.7720   -3.3620    6.6560 C.3   187  LYS187      0.0271
    125  CG        10.3100   -4.7810    6.7380 C.3   187  LYS187      0.0035
    126  CD        11.2070   -4.9490    7.9610 C.3   187  LYS187      0.0206
    127  CE        12.2840   -5.9980    7.7110 C.3   187  LYS187      0.1093
    128  NZ        13.1450   -6.2830    8.9020 N.3   187  LYS187     -0.1314
    129  N         17.0680   -3.7450    9.9290 N.3   214  GLU214     -0.1231
    130  CA        18.0790   -4.3480    9.0760 C.3   214  GLU214      0.1699
    131  C         18.5050   -3.3530    8.0190 C.2   214  GLU214      0.2592
    132  O         17.7020   -2.5370    7.5860 O.2   214  GLU214     -0.2718
    133  CB        17.5500   -5.6350    8.4480 C.3   214  GLU214      0.0402
    134  CG        17.3180   -6.7130    9.4980 C.3   214  GLU214      0.1161
    135  CD        16.6830   -7.9630    8.9300 C.2   214  GLU214      0.3649
    136  OE1       15.5130   -7.9030    8.4660 O.co2 214  GLU214     -0.2457
    137  OE2       17.3620   -9.0070    8.9490 O.co2 214  GLU214     -0.2457
    138  N         19.7710   -3.4290    7.6240 N.am  215  MET215     -0.1965
    139  CA        20.3760   -2.4030    6.7850 C.3   215  MET215      0.1736
    140  C         21.4000   -2.9450    5.8090 C.2   215  MET215      0.2616
    141  O         22.1550   -3.8750    6.1030 O.2   215  MET215     -0.2715
    142  CB        21.0520   -1.3350    7.6510 C.3   215  MET215      0.0427
    143  CG        20.0730   -0.4250    8.3770 C.3   215  MET215      0.0599
    144  SD        20.7600    0.1840    9.9310 S.3   215  MET215     -0.1393
    145  CE        21.5160   -1.3320   10.4820 C.3   215  MET215      0.0692
    146  N         21.4320   -2.3120    4.6530 N.am  216  VAL216     -0.1977
    147  CA        22.4750   -2.5180    3.6760 C.3   216  VAL216      0.1596
    148  C         23.2110   -1.1870    3.4590 C.2   216  VAL216      0.2287
    149  O         22.5960   -0.1120    3.4600 O.2   216  VAL216     -0.2864
    150  CB        21.9040   -3.0060    2.3250 C.3   216  VAL216      0.0276
    151  CG1       23.0280   -3.4080    1.3930 C.3   216  VAL216      0.0022
    152  CG2       20.9120   -4.1660    2.5320 C.3   216  VAL216      0.0022
@<TRIPOS>BOND
     1    53    54    1
     2    53    50    1
     3    24    22    1
     4    23    22    1
     5    32    30    1
     6    49    50    1
     7    52    51    2
     8    22    19    1
     9    50    51    1
    10    30    29    1
    11    51    55   am
    12    19    20    1
    13    19    18    1
    14    58    57    2
    15    31    29    1
    16    29    26    1
    17    57    56    1
    18    55    56    1
    19    20    21    2
    20    18    16   am
    21    56    59    1
    22    25    26    1
    23    26    27    1
    24    16    17    2
    25    16    15    1
    26     8     6    1
    27   119   117    1
    28   118   117    1
    29    82    81    1
    30    15    14    1
    31   151   150    1
    32   117   116    1
    33     6     5    1
    34   102    99    1
    35    27    28    2
    36    27    33   am
    37   116   113    1
    38     7     5    1
    39    81    79   ar
    40    81    80   ar
    41    33    34    1
    42    14    11   am
    43   150   152    1
    44   150   147    1
    45    79    77   ar
    46     1     2    1
    47     5     2    1
    48   113   114    1
    49   113   112    1
    50   114   115    2
    51    99    98    1
    52    99   100    1
    53    80    78   ar
    54     2     3    1
    55    44    43    2
    56    11    12    2
    57    11    10    1
    58    77    76   ar
    59   148   149    2
    60   148   147    1
    61    39    38    2
    62   147   146    1
    63    34    37    1
    64    34    35    1
    65   100   101    2
    66   112   105   am
    67    78    76   ar
    68    41    35   am
    69    41    42    1
    70    37    38    1
    71    45    42    1
    72    45    46    1
    73   120   121    1
    74     3     4    2
    75    76    75    1
    76    71    72    1
    77    48    46   ar
    78    43    42    1
    79    35    36    2
    80    38    40   am
    81   146   140   am
    82    10    13    1
    83    10     9    1
    84   123   122    2
    85   106   105    2
    86    46    47   ar
    87   105   104    1
    88    72    75    1
    89    72    73    1
    90   121   122    1
    91   121   124    1
    92    60    61    1
    93   140   141    2
    94   140   139    1
    95   103   104    1
    96   104   107    1
    97   124   125    1
    98    73    74    2
    99    73    83   am
   100   125   126    1
   101   139   138    1
   102   139   142    1
   103    61    62    1
   104    61    64    1
   105    63    62    2
   106    83    84    1
   107   107   108    1
   108   132   131    2
   109   138   131   am
   110   142   143    1
   111    67    69   ar
   112    67    65   ar
   113   127   126    1
   114   127   128    1
   115    69    70   ar
   116    64    65    1
   117   131   130    1
   118    65    66   ar
   119   143   144    1
   120   133   130    1
   121   133   134    1
   122   136   135   ar
   123    70    68   ar
   124    87    84    1
   125    87    88    1
   126    84    85    1
   127    66    68   ar
   128   108   109    1
   129   135   137   ar
   130   135   134    1
   131   130   129    1
   132   111   109   ar
   133   109   110   ar
   134    86    85    2
   135    85    92   am
   136   144   145    1
   137    88    89    1
   138    91    89   ar
   139    89    90   ar
   140    92    93    1
   141    93    94    1
   142    93    96    1
   143    94    95    2
   144    96    97    1
