@<TRIPOS>MOLECULE
tmp/5hw8B00.pdb
 154 150 0 0 0
SMALL
GASTEIGER

@<TRIPOS>ATOM
      1  N        -15.0940   23.4900   21.7200 N.3    28  TYR28      -0.1241
      2  CA       -15.1780   23.4840   23.1690 C.3    28  TYR28       0.1605
      3  C        -16.5640   23.0700   23.6270 C.2    28  TYR28       0.2264
      4  O        -17.5380   23.1070   22.8670 O.2    28  TYR28      -0.2867
      5  CB       -14.7900   24.8660   23.7470 C.3    28  TYR28       0.0534
      6  CG       -15.7850   25.9700   23.4410 C.ar   28  TYR28      -0.0201
      7  CD1      -16.9700   26.0980   24.1570 C.ar   28  TYR28      -0.0009
      8  CD2      -15.5650   26.8420   22.3880 C.ar   28  TYR28      -0.0009
      9  CE1      -17.8850   27.0810   23.8480 C.ar   28  TYR28       0.0417
     10  CE2      -16.4730   27.8270   22.0710 C.ar   28  TYR28       0.0417
     11  CZ       -17.6300   27.9490   22.7980 C.ar   28  TYR28       0.1957
     12  OH       -18.5440   28.9360   22.4760 O.3    28  TYR28      -0.2866
     13  N        -23.4690   25.2150   29.6940 N.3    38  PHE38      -0.1227
     14  CA       -24.0130   26.4770   29.1890 C.3    38  PHE38       0.1736
     15  C        -23.7510   26.7240   27.7020 C.2    38  PHE38       0.2595
     16  O        -24.5710   27.3410   27.0190 O.2    38  PHE38      -0.2718
     17  CB       -23.5180   27.6640   30.0380 C.3    38  PHE38       0.0547
     18  CG       -22.0380   27.8870   30.0070 C.ar   38  PHE38      -0.0202
     19  CD1      -21.4370   28.5810   28.9790 C.ar   38  PHE38      -0.0042
     20  CD2      -21.2440   27.3920   31.0310 C.ar   38  PHE38      -0.0042
     21  CE1      -20.0650   28.7830   28.9620 C.ar   38  PHE38      -0.0003
     22  CE2      -19.8750   27.5870   31.0150 C.ar   38  PHE38      -0.0003
     23  CZ       -19.2870   28.2790   29.9830 C.ar   38  PHE38      -0.0000
     24  N        -22.5960   26.2860   27.2030 N.am   39  ASP39      -0.1974
     25  CA       -22.3340   26.3720   25.7750 C.3    39  ASP39       0.1709
     26  C        -21.4880   25.2260   25.1950 C.2    39  ASP39       0.2293
     27  O        -20.5450   24.7730   25.8340 O.2    39  ASP39      -0.2864
     28  CB       -21.6720   27.7030   25.4680 C.3    39  ASP39       0.1436
     29  CG       -21.5400   27.9430   23.9950 C.2    39  ASP39       0.3671
     30  OD1      -22.4890   27.5790   23.2690 O.co2  39  ASP39      -0.2456
     31  OD2      -20.5180   28.5190   23.5640 O.co2  39  ASP39      -0.2456
     32  N        -23.3850   23.1120   18.5690 N.3    44  ARG44      -0.1245
     33  CA       -23.7730   24.0800   17.5450 C.3    44  ARG44       0.1563
     34  C        -23.3320   23.6420   16.1310 C.2    44  ARG44       0.2260
     35  O        -24.0280   23.9170   15.1500 O.2    44  ARG44      -0.2867
     36  CB       -23.2220   25.4610   17.8910 C.3    44  ARG44       0.0307
     37  CG       -24.3090   26.3970   18.3860 C.3    44  ARG44       0.0489
     38  CD       -23.7590   27.5810   19.1680 C.3    44  ARG44       0.2205
     39  NE       -22.3610   27.8750   18.8690 N.pl3  44  ARG44      -0.0865
     40  CZ       -21.4210   27.9880   19.7990 C.cat  44  ARG44       0.5346
     41  NH1      -21.7340   27.7860   21.0640 N.pl3  44  ARG44       0.1354
     42  NH2      -20.1670   28.2590   19.4670 N.pl3  44  ARG44       0.1354
     43  N        -15.0060   27.4010   16.8710 N.3    48  PHE48      -0.1241
     44  CA       -14.9070   28.7940   17.2640 C.3    48  PHE48       0.1605
     45  C        -13.5630   29.4120   16.9040 C.2    48  PHE48       0.2264
     46  O        -12.5090   28.8720   17.2270 O.2    48  PHE48      -0.2867
     47  CB       -15.1670   28.9500   18.7580 C.3    48  PHE48       0.0534
     48  CG       -15.0590   30.3530   19.2270 C.ar   48  PHE48      -0.0203
     49  CD1      -16.0850   31.2450   19.0020 C.ar   48  PHE48      -0.0042
     50  CD2      -13.9280   30.7810   19.8940 C.ar   48  PHE48      -0.0042
     51  CE1      -15.9810   32.5450   19.4130 C.ar   48  PHE48      -0.0003
     52  CE2      -13.8190   32.0740   20.3140 C.ar   48  PHE48      -0.0003
     53  CZ       -14.8440   32.9630   20.0730 C.ar   48  PHE48      -0.0000
     54  N         -9.7020   40.0530   23.1970 N.3    56  GLN56      -0.1231
     55  CA       -10.9550   39.6970   22.5370 C.3    56  GLN56       0.1698
     56  C        -11.8020   38.7160   23.3650 C.2    56  GLN56       0.2592
     57  O        -13.0310   38.7770   23.3510 O.2    56  GLN56      -0.2718
     58  CB       -10.6790   39.1030   21.1670 C.3    56  GLN56       0.0381
     59  CG       -11.7400   39.4040   20.1380 C.3    56  GLN56       0.0905
     60  CD       -11.4730   38.7000   18.8170 C.2    56  GLN56       0.2608
     61  OE1      -11.5060   37.4660   18.7380 O.2    56  GLN56      -0.2717
     62  NE2      -11.2060   39.4830   17.7690 N.am   56  GLN56      -0.0878
     63  N        -11.1350   37.8010   24.0640 N.am   57  VAL57      -0.1966
     64  CA       -11.8110   36.7180   24.7660 C.3    57  VAL57       0.1727
     65  C        -11.3160   36.7630   26.2010 C.2    57  VAL57       0.2616
     66  O        -10.2890   37.3910   26.4750 O.2    57  VAL57      -0.2715
     67  CB       -11.5360   35.3250   24.1400 C.3    57  VAL57       0.0290
     68  CG1      -12.1700   35.2220   22.7630 C.3    57  VAL57       0.0023
     69  CG2      -10.0480   35.0560   24.0480 C.3    57  VAL57       0.0023
     70  N        -11.9860   36.0390   27.0960 N.am   58  ILE58      -0.1977
     71  CA       -11.7440   36.1880   28.5280 C.3    58  ILE58       0.1596
     72  C        -10.3130   35.8200   28.8920 C.2    58  ILE58       0.2287
     73  O         -9.6400   35.0870   28.1660 O.2    58  ILE58      -0.2864
     74  CB       -12.7020   35.3250   29.3690 C.3    58  ILE58       0.0276
     75  CG1      -12.6120   33.8620   28.9460 C.3    58  ILE58       0.0022
     76  CG2      -14.1270   35.8340   29.2440 C.3    58  ILE58       0.0022
     77  CD1      -13.5270   32.9600   29.7180 C.3    58  ILE58       0.0001
     78  N         -8.8050   32.3090   28.7510 N.3    61  TRP61      -0.1241
     79  CA        -8.4870   31.8330   27.4120 C.3    61  TRP61       0.1605
     80  C         -7.1890   32.3860   26.8440 C.2    61  TRP61       0.2264
     81  O         -6.4090   31.6470   26.2450 O.2    61  TRP61      -0.2867
     82  CB        -9.6300   32.1380   26.4620 C.3    61  TRP61       0.0550
     83  CG       -10.6300   31.0380   26.4190 C.ar   61  TRP61       0.0003
     84  CD1      -11.2440   30.4510   27.4820 C.ar   61  TRP61       0.0946
     85  CD2      -11.1370   30.3840   25.2490 C.ar   61  TRP61       0.0152
     86  NE1      -12.1050   29.4750   27.0500 N.ar   61  TRP61      -0.2442
     87  CE2      -12.0600   29.4160   25.6810 C.ar   61  TRP61       0.0810
     88  CE3      -10.9020   30.5270   23.8770 C.ar   61  TRP61       0.0012
     89  CZ2      -12.7520   28.5920   24.7880 C.ar   61  TRP61       0.0191
     90  CZ3      -11.5900   29.7090   22.9960 C.ar   61  TRP61       0.0001
     91  CH2      -12.5020   28.7570   23.4540 C.ar   61  TRP61       0.0015
     92  N        -12.6540   35.2090   34.3160 N.3    94  ALA94      -0.1231
     93  CA       -13.8040   34.9320   33.4580 C.3    94  ALA94       0.1694
     94  C        -14.7620   36.1440   33.4210 C.2    94  ALA94       0.2592
     95  O        -14.3800   37.2320   32.9880 O.2    94  ALA94      -0.2718
     96  CB       -14.5210   33.6940   33.9240 C.3    94  ALA94       0.0304
     97  N        -16.0090   35.9540   33.8450 N.am   95  TYR95      -0.1976
     98  CA       -16.9800   37.0470   33.8220 C.3    95  TYR95       0.1639
     99  C        -17.2370   37.6980   35.1710 C.2    95  TYR95       0.2290
    100  O        -17.9760   38.6730   35.2500 O.2    95  TYR95      -0.2864
    101  CB       -18.3080   36.5730   33.2390 C.3    95  TYR95       0.0560
    102  CG       -18.1840   36.0290   31.8450 C.ar   95  TYR95      -0.0198
    103  CD1      -18.0240   36.8920   30.7680 C.ar   95  TYR95      -0.0009
    104  CD2      -18.2060   34.6620   31.5970 C.ar   95  TYR95      -0.0009
    105  CE1      -17.9000   36.4150   29.4820 C.ar   95  TYR95       0.0417
    106  CE2      -18.0840   34.1760   30.3160 C.ar   95  TYR95       0.0417
    107  CZ       -17.9330   35.0580   29.2600 C.ar   95  TYR95       0.1957
    108  OH       -17.8140   34.5950   27.9780 O.3    95  TYR95      -0.2866
    109  N        -20.4690   40.1440   38.1610 N.3    98  ARG98      -0.1245
    110  CA       -21.5550   40.5700   37.2920 C.3    98  ARG98       0.1563
    111  C        -22.1520   39.4550   36.4070 C.2    98  ARG98       0.2260
    112  O        -23.3650   39.3890   36.2340 O.2    98  ARG98      -0.2867
    113  CB       -21.0570   41.7190   36.4310 C.3    98  ARG98       0.0307
    114  CG       -22.1400   42.6310   35.9820 C.3    98  ARG98       0.0489
    115  CD       -21.5490   43.9560   35.5890 C.3    98  ARG98       0.2205
    116  NE       -20.1650   43.8260   35.1740 N.pl3  98  ARG98      -0.0865
    117  CZ       -19.6460   44.4750   34.1400 C.cat  98  ARG98       0.5346
    118  NH1      -20.4060   45.2660   33.4010 N.pl3  98  ARG98       0.1354
    119  NH2      -18.3760   44.3050   33.8210 N.pl3  98  ARG98       0.1354
    120  N        -22.9200   37.1060   32.8590 N.3   100  ILE100     -0.1245
    121  CA       -23.6740   37.4820   31.6610 C.3   100  ILE100      0.1561
    122  C        -25.1440   37.1560   31.8850 C.2   100  ILE100      0.2260
    123  O        -25.4960   36.0030   32.1290 O.2   100  ILE100     -0.2867
    124  CB       -23.2050   36.7760   30.3940 C.3   100  ILE100      0.0252
    125  CG1      -21.7640   37.1560   30.0880 C.3   100  ILE100      0.0019
    126  CG2      -24.1000   37.1700   29.2230 C.3   100  ILE100      0.0019
    127  CD1      -21.3090   36.7130   28.7310 C.3   100  ILE100      0.0001
    128  N        -27.3900   33.7650   30.9830 N.3   103  ILE103     -0.1231
    129  CA       -26.5100   32.6340   30.6830 C.3   103  ILE103      0.1692
    130  C        -25.6780   32.1830   31.8760 C.2   103  ILE103      0.2591
    131  O        -25.8110   31.0500   32.3410 O.2   103  ILE103     -0.2718
    132  CB       -25.5440   32.9570   29.5110 C.3   103  ILE103      0.0266
    133  CG1      -26.2580   33.7500   28.4120 C.3   103  ILE103      0.0019
    134  CG2      -25.0070   31.6870   28.8970 C.3   103  ILE103      0.0020
    135  CD1      -25.3420   34.2030   27.2890 C.3   103  ILE103      0.0001
    136  N        -24.8210   33.0770   32.3650 N.am  104  ILE104     -0.1980
    137  CA       -23.9040   32.7450   33.4520 C.3   104  ILE104      0.1595
    138  C        -24.1910   33.5530   34.7060 C.2   104  ILE104      0.2287
    139  O        -24.3930   34.7620   34.6520 O.2   104  ILE104     -0.2864
    140  CB       -22.4300   32.9510   33.0510 C.3   104  ILE104      0.0276
    141  CG1      -22.0920   32.0790   31.8440 C.3   104  ILE104      0.0022
    142  CG2      -21.5020   32.5710   34.1930 C.3   104  ILE104      0.0022
    143  CD1      -20.6100   31.9710   31.5750 C.3   104  ILE104      0.0001
    144  N        -13.7370   24.5670   30.7240 N.3   112  PHE112     -0.1241
    145  CA       -13.7790   24.4180   29.2790 C.3   112  PHE112      0.1605
    146  C        -13.0040   23.1900   28.8390 C.2   112  PHE112      0.2264
    147  O        -11.8230   23.0440   29.1630 O.2   112  PHE112     -0.2867
    148  CB       -13.2140   25.6590   28.5750 C.3   112  PHE112      0.0534
    149  CG       -14.1800   26.8080   28.5050 C.ar  112  PHE112     -0.0203
    150  CD1      -15.0790   26.9160   27.4560 C.ar  112  PHE112     -0.0042
    151  CD2      -14.1680   27.8000   29.4710 C.ar  112  PHE112     -0.0042
    152  CE1      -15.9670   27.9820   27.3790 C.ar  112  PHE112     -0.0003
    153  CE2      -15.0510   28.8690   29.3970 C.ar  112  PHE112     -0.0003
    154  CZ       -15.9510   28.9580   28.3450 C.ar  112  PHE112     -0.0000
@<TRIPOS>BOND
     1    35    34    2
     2    34    33    1
     3    43    44    1
     4    45    46    2
     5    45    44    1
     6    44    47    1
     7    33    36    1
     8    33    32    1
     9    62    60   am
    10    36    37    1
    11    37    38    1
    12    61    60    2
    13    47    48    1
    14    60    59    1
    15    39    38    1
    16    39    40    2
    17    49    48   ar
    18    49    51   ar
    19    48    50   ar
    20    51    53   ar
    21    42    40    1
    22    40    41    1
    23    50    52   ar
    24    53    52   ar
    25    59    58    1
    26    58    55    1
    27     1     2    1
    28    10     8   ar
    29    10    11   ar
    30     8     6   ar
    31    12    11    1
    32    55    54    1
    33    55    56    1
    34    68    67    1
    35    11     9   ar
    36     4     3    2
    37    90    91   ar
    38    90    88   ar
    39     2     3    1
    40     2     5    1
    41    30    29   ar
    42    57    56    2
    43    56    63   am
    44     6     5    1
    45     6     7   ar
    46    91    89   ar
    47    31    29   ar
    48     9     7   ar
    49    88    85   ar
    50    29    28    1
    51    69    67    1
    52    63    64    1
    53    67    64    1
    54    64    65    1
    55    89    87   ar
    56    26    25    1
    57    26    27    2
    58    85    87   ar
    59    85    83   ar
    60    28    25    1
    61    87    86   ar
    62    25    24    1
    63    65    66    2
    64    65    70   am
    65    81    80    2
    66    83    82    1
    67    83    84   ar
    68    82    79    1
    69    80    79    1
    70    16    15    2
    71    86    84   ar
    72    70    71    1
    73    24    15   am
    74   135   133    1
    75   152   150   ar
    76   152   154   ar
    77    79    78    1
    78   150   149   ar
    79    15    14    1
    80   108   107    1
    81    73    72    2
    82   154   153   ar
    83   133   132    1
    84   149   148    1
    85   149   151   ar
    86    71    72    1
    87    71    74    1
    88   148   145    1
    89   127   125    1
    90   146   147    2
    91   146   145    1
    92   134   132    1
    93    75    74    1
    94    75    77    1
    95    21    19   ar
    96    21    23   ar
    97    19    18   ar
    98    14    13    1
    99    14    17    1
   100   126   124    1
   101    76    74    1
   102   107   105   ar
   103   107   106   ar
   104   145   144    1
   105   153   151   ar
   106   105   103   ar
   107   132   129    1
   108    23    22   ar
   109    18    17    1
   110    18    20   ar
   111   125   124    1
   112   106   104   ar
   113   124   121    1
   114   129   128    1
   115   129   130    1
   116   103   102   ar
   117    22    20   ar
   118   143   141    1
   119   104   102   ar
   120   121   122    1
   121   121   120    1
   122   141   140    1
   123   102   101    1
   124   130   131    2
   125   130   136   am
   126   122   123    2
   127   136   137    1
   128    95    94    2
   129   140   137    1
   130   140   142    1
   131   101    98    1
   132   118   117    1
   133    94    93    1
   134    94    97   am
   135   137   138    1
   136    93    96    1
   137    93    92    1
   138   119   117    1
   139    98    97    1
   140    98    99    1
   141   117   116    2
   142   139   138    2
   143    99   100    2
   144   116   115    1
   145   115   114    1
   146   114   113    1
   147   112   111    2
   148   111   110    1
   149   113   110    1
   150   110   109    1
