@<TRIPOS>MOLECULE
tmp/5hwaA01.pdb
 138 134 0 0 0
SMALL
GASTEIGER

@<TRIPOS>ATOM
      1  N        -30.0780  -10.4870   25.8590 N.3    57  ARG57      -0.1245
      2  CA       -28.9480  -11.4420   25.7180 C.3    57  ARG57       0.1563
      3  C        -28.1440  -11.6160   26.9980 C.2    57  ARG57       0.2260
      4  O        -27.0880  -12.2110   26.9380 O.2    57  ARG57      -0.2867
      5  CB       -28.0230  -11.0690   24.5350 C.3    57  ARG57       0.0307
      6  CG       -28.7770  -11.0590   23.2040 C.3    57  ARG57       0.0489
      7  CD       -27.7640  -10.9120   22.1050 C.3    57  ARG57       0.2205
      8  NE       -28.3740  -11.0530   20.7560 N.pl3  57  ARG57      -0.0865
      9  CZ       -29.0150  -10.0740   20.1080 C.cat  57  ARG57       0.5346
     10  NH1      -29.2450   -8.8740   20.6610 N.pl3  57  ARG57       0.1354
     11  NH2      -29.4940  -10.3240   18.8930 N.pl3  57  ARG57       0.1354
     12  N        -15.5050   -8.7930   21.6910 N.3    64  PHE64      -0.1227
     13  CA       -16.4370   -9.2370   20.6420 C.3    64  PHE64       0.1736
     14  C        -17.8560   -9.3320   21.1510 C.2    64  PHE64       0.2596
     15  O        -18.6990   -9.9480   20.4970 O.2    64  PHE64      -0.2718
     16  CB       -15.9440  -10.5320   19.9280 C.3    64  PHE64       0.0547
     17  CG       -15.7390  -11.6920   20.8610 C.ar   64  PHE64      -0.0202
     18  CD1      -16.8000  -12.5500   21.1540 C.ar   64  PHE64      -0.0042
     19  CD2      -14.4610  -11.9610   21.4210 C.ar   64  PHE64      -0.0042
     20  CE1      -16.6200  -13.6170   22.0290 C.ar   64  PHE64      -0.0003
     21  CE2      -14.2910  -13.0390   22.2890 C.ar   64  PHE64      -0.0003
     22  CZ       -15.3610  -13.8510   22.5990 C.ar   64  PHE64      -0.0000
     23  N        -18.1190   -8.7280   22.3100 N.am   65  GLY65      -0.1957
     24  CA       -19.4900   -8.6760   22.8460 C.3    65  GLY65       0.1869
     25  C        -20.0390  -10.0700   23.1280 C.2    65  GLY65       0.2309
     26  O        -21.1620  -10.3980   22.7340 O.2    65  GLY65      -0.2863
     27  N        -21.8540  -12.8790   25.1470 N.3    67  THR67      -0.1218
     28  CA       -23.0620  -12.6580   25.9410 C.3    67  THR67       0.1862
     29  C        -23.2440  -13.7910   26.9520 C.2    67  THR67       0.2287
     30  O        -22.9040  -14.9540   26.6810 O.2    67  THR67      -0.2866
     31  CB       -24.2850  -12.5780   25.0000 C.3    67  THR67       0.1770
     32  OG1      -24.1730  -13.6480   24.0410 O.3    67  THR67      -0.2211
     33  CG2      -24.3430  -11.2150   24.2460 C.3    67  THR67       0.0375
     34  N        -33.1120  -13.8820   23.8690 N.3    72  ARG72      -0.1231
     35  CA       -32.7250  -13.6100   22.4900 C.3    72  ARG72       0.1694
     36  C        -31.4100  -14.2940   22.1160 C.2    72  ARG72       0.2592
     37  O        -30.9730  -14.2010   20.9730 O.2    72  ARG72      -0.2718
     38  CB       -32.6190  -12.1110   22.2840 C.3    72  ARG72       0.0321
     39  CG       -32.6290  -11.6700   20.8430 C.3    72  ARG72       0.0489
     40  CD       -32.4920  -10.1290   20.6990 C.3    72  ARG72       0.2205
     41  NE       -33.5060   -9.3790   21.4300 N.pl3  72  ARG72      -0.0865
     42  CZ       -34.7130   -9.0900   20.9570 C.cat  72  ARG72       0.5346
     43  NH1      -35.5660   -8.4290   21.7430 N.pl3  72  ARG72       0.1354
     44  NH2      -35.1240   -9.5170   19.7340 N.pl3  72  ARG72       0.1354
     45  N        -30.7480  -14.9370   23.0740 N.am   73  ASP73      -0.1974
     46  CA       -29.5240  -15.6680   22.7720 C.3    73  ASP73       0.1709
     47  C        -29.4290  -16.8330   23.7440 C.2    73  ASP73       0.2293
     48  O        -28.8240  -16.7700   24.8080 O.2    73  ASP73      -0.2864
     49  CB       -28.2770  -14.7740   22.8080 C.3    73  ASP73       0.1436
     50  CG       -27.0160  -15.5260   22.3940 C.2    73  ASP73       0.3671
     51  OD1      -27.1130  -16.6970   21.9190 O.co2  73  ASP73      -0.2456
     52  OD2      -25.9420  -14.9070   22.4500 O.co2  73  ASP73      -0.2456
     53  N        -28.0450  -19.7310   22.9110 N.3    75  HIS75      -0.1227
     54  CA       -26.7760  -20.4590   22.7130 C.3    75  HIS75       0.1737
     55  C        -25.6150  -19.4970   22.7560 C.2    75  HIS75       0.2438
     56  O        -24.8570  -19.3540   21.8070 O.2    75  HIS75      -0.2733
     57  CB       -26.8070  -21.2290   21.4080 C.3    75  HIS75       0.0758
     58  CG       -27.8430  -22.3320   21.3990 C.ar   75  HIS75       0.0818
     59  ND1      -27.6010  -23.5840   21.8770 N.ar   75  HIS75      -0.2268
     60  CD2      -29.1830  -22.3140   21.0040 C.ar   75  HIS75       0.1154
     61  CE1      -28.7210  -24.3370   21.7560 C.ar   75  HIS75       0.1986
     62  NE2      -29.6950  -23.5500   21.2370 N.ar   75  HIS75      -0.2212
     63  N        -25.4470  -18.8050   23.8890 N.am   76  PRO76      -0.2718
     64  CA       -24.4650  -17.7410   23.9740 C.3    76  PRO76       0.1535
     65  C        -23.0150  -18.2130   24.0150 C.2    76  PRO76       0.2598
     66  O        -22.7270  -19.3620   24.3350 O.2    76  PRO76      -0.2715
     67  CB       -24.8420  -17.0450   25.2770 C.3    76  PRO76       0.0310
     68  CG       -25.3330  -18.1820   26.1260 C.3    76  PRO76       0.0237
     69  CD       -26.2060  -18.9410   25.1450 C.3    76  PRO76       0.0939
     70  N        -22.1160  -17.2810   23.7280 N.am   77  ASP77      -0.1972
     71  CA       -20.6840  -17.5440   23.7440 C.3    77  ASP77       0.1709
     72  C        -20.0010  -17.2140   25.0650 C.2    77  ASP77       0.2293
     73  O        -18.8530  -17.6360   25.3010 O.2    77  ASP77      -0.2864
     74  CB       -20.0190  -16.7710   22.5930 C.3    77  ASP77       0.1436
     75  CG       -20.4170  -15.2890   22.5230 C.2    77  ASP77       0.3671
     76  OD1      -21.3830  -14.8470   23.1960 O.co2  77  ASP77      -0.2456
     77  OD2      -19.7750  -14.5490   21.7430 O.co2  77  ASP77      -0.2456
     78  N        -15.7870  -17.7910   16.4040 N.3   148  TYR148     -0.1241
     79  CA       -16.0750  -16.9780   15.2170 C.3   148  TYR148      0.1605
     80  C        -14.9930  -17.0140   14.1550 C.2   148  TYR148      0.2264
     81  O        -15.3040  -17.1410   12.9840 O.2   148  TYR148     -0.2867
     82  CB       -16.3370  -15.5040   15.6130 C.3   148  TYR148      0.0534
     83  CG       -17.4670  -15.4110   16.6250 C.ar  148  TYR148     -0.0201
     84  CD1      -18.7750  -15.6890   16.2500 C.ar  148  TYR148     -0.0009
     85  CD2      -17.2200  -14.9740   17.9210 C.ar  148  TYR148     -0.0009
     86  CE1      -19.8220  -15.6240   17.1560 C.ar  148  TYR148      0.0417
     87  CE2      -18.2600  -14.8630   18.8260 C.ar  148  TYR148      0.0417
     88  CZ       -19.5650  -15.1910   18.4280 C.ar  148  TYR148      0.1957
     89  OH       -20.6100  -15.1430   19.3270 O.3   148  TYR148     -0.2866
     90  N        -19.5960  -12.5400   14.6460 N.3   175  LEU175     -0.1231
     91  CA       -19.6480  -12.1600   16.0460 C.3   175  LEU175      0.1693
     92  C        -20.9260  -11.3600   16.3310 C.2   175  LEU175      0.2592
     93  O        -21.4500  -11.4340   17.4550 O.2   175  LEU175     -0.2718
     94  CB       -18.3870  -11.4400   16.4900 C.3   175  LEU175      0.0284
     95  CG       -18.1880  -10.0160   15.9500 C.3   175  LEU175      0.0019
     96  CD1      -18.8560   -8.9630   16.8260 C.3   175  LEU175      0.0001
     97  CD2      -16.6900   -9.7250   15.8430 C.3   175  LEU175      0.0001
     98  N        -21.4310  -10.6020   15.3380 N.am  176  ASN176     -0.1960
     99  CA       -22.5970   -9.7650   15.5910 C.3   176  ASN176      0.1819
    100  C        -23.8900  -10.5760   15.5950 C.2   176  ASN176      0.2621
    101  O        -24.8160  -10.2780   16.3870 O.2   176  ASN176     -0.2715
    102  CB       -22.5990   -8.6080   14.5770 C.3   176  ASN176      0.1195
    103  CG       -23.6770   -7.5660   14.8340 C.2   176  ASN176      0.2630
    104  OD1      -24.0580   -7.2380   16.0070 O.2   176  ASN176     -0.2716
    105  ND2      -24.0490   -6.9420   13.8070 N.am  176  ASN176     -0.0877
    106  N        -23.9820  -11.5170   14.6340 N.am  177  GLN177     -0.1963
    107  CA       -25.2370  -12.1780   14.3030 C.3   177  GLN177      0.1733
    108  C        -25.2100  -13.6910   14.5520 C.2   177  GLN177      0.2616
    109  O        -26.2230  -14.3430   14.3620 O.2   177  GLN177     -0.2715
    110  CB       -25.6480  -11.8510   12.8650 C.3   177  GLN177      0.0408
    111  CG       -25.8500  -10.3480   12.6980 C.3   177  GLN177      0.0908
    112  CD       -25.9670   -9.8690   11.2890 C.2   177  GLN177      0.2608
    113  OE1      -25.5850   -8.7130   11.0080 O.2   177  GLN177     -0.2717
    114  NE2      -26.5440  -10.6990   10.3980 N.am  177  GLN177     -0.0878
    115  N        -24.0710  -14.2080   15.0130 N.am  178  GLY178     -0.1955
    116  CA       -23.8720  -15.6280   15.2240 C.3   178  GLY178      0.1869
    117  C        -23.1400  -16.2440   14.0400 C.2   178  GLY178      0.2309
    118  O        -23.2910  -15.8090   12.8920 O.2   178  GLY178     -0.2863
    119  N        -33.8200   -7.7020   15.0650 N.3   217  ASN217     -0.1240
    120  CA       -33.5420   -8.6140   16.1720 C.3   217  ASN217      0.1653
    121  C        -32.4800   -8.0830   17.1070 C.2   217  ASN217      0.2266
    122  O        -31.6740   -8.8640   17.6760 O.2   217  ASN217     -0.2867
    123  CB       -33.1130  -10.0030   15.6230 C.3   217  ASN217      0.1155
    124  CG       -33.2030  -11.0900   16.6870 C.2   217  ASN217      0.2627
    125  OD1      -33.9990  -10.9990   17.6280 O.2   217  ASN217     -0.2716
    126  ND2      -32.4060  -12.1350   16.5250 N.am  217  ASN217     -0.0877
    127  N        -29.6810   -6.7690   16.6920 N.3   219  TYR219     -0.1241
    128  CA       -28.2240   -6.9690   16.4430 C.3   219  TYR219      0.1605
    129  C        -27.5070   -5.6400   16.5810 C.2   219  TYR219      0.2264
    130  O        -26.3350   -5.5810   16.9700 O.2   219  TYR219     -0.2867
    131  CB       -27.9250   -7.5300   15.0200 C.3   219  TYR219      0.0534
    132  CG       -28.6030   -8.8550   14.7670 C.ar  219  TYR219     -0.0201
    133  CD1      -28.4230   -9.9370   15.6380 C.ar  219  TYR219     -0.0009
    134  CD2      -29.4000   -9.0440   13.6230 C.ar  219  TYR219     -0.0009
    135  CE1      -29.1080  -11.1270   15.4270 C.ar  219  TYR219      0.0417
    136  CE2      -30.0630  -10.2470   13.3820 C.ar  219  TYR219      0.0417
    137  CZ       -29.9380  -11.2670   14.3080 C.ar  219  TYR219      0.1957
    138  OH       -30.6030  -12.4330   14.0610 O.3   219  TYR219     -0.2866
@<TRIPOS>BOND
     1   114   112   am
     2   113   112    2
     3   112   111    1
     4   111   110    1
     5   110   107    1
     6   118   117    2
     7    81    80    2
     8   136   134   ar
     9   136   137   ar
    10   134   132   ar
    11   105   103   am
    12   117   116    1
    13   138   137    1
    14    80    79    1
    15   107   108    1
    16   107   106    1
    17   137   135   ar
    18   109   108    2
    19   108   115   am
    20   102   103    1
    21   102    99    1
    22   106   100   am
    23    90    91    1
    24   132   131    1
    25   132   133   ar
    26   103   104    2
    27   115   116    1
    28   131   128    1
    29   119   120    1
    30    79    82    1
    31    79    78    1
    32    98    99    1
    33    98    92   am
    34   135   133   ar
    35    99   100    1
    36   100   101    2
    37    82    83    1
    38   123   120    1
    39   123   124    1
    40    97    95    1
    41    95    94    1
    42    95    96    1
    43    91    92    1
    44    91    94    1
    45   120   121    1
    46    84    83   ar
    47    84    86   ar
    48    92    93    2
    49   128   129    1
    50   128   127    1
    51   126   124   am
    52   129   130    2
    53    83    85   ar
    54   124   125    2
    55   121   122    2
    56    86    88   ar
    57    85    87   ar
    58    88    87   ar
    59    88    89    1
    60    11     9    1
    61    44    42    1
    62    16    13    1
    63    16    17    1
    64     9    10    1
    65     9     8    2
    66    15    14    2
    67    13    14    1
    68    13    12    1
    69    40    39    1
    70    40    41    1
    71     8     7    1
    72    39    38    1
    73    17    18   ar
    74    17    19   ar
    75    42    41    2
    76    42    43    1
    77    37    36    2
    78    60    62   ar
    79    60    58   ar
    80    14    23   am
    81    18    20   ar
    82    62    61   ar
    83    58    57    1
    84    58    59   ar
    85    57    54    1
    86    19    21   ar
    87    77    75   ar
    88    61    59   ar
    89    56    55    2
    90    51    50   ar
    91    20    22   ar
    92     7     6    1
    93    36    35    1
    94    36    45   am
    95    38    35    1
    96    21    22   ar
    97    23    24    1
    98    50    52   ar
    99    50    49    1
   100    35    34    1
   101    75    74    1
   102    75    76   ar
   103    74    71    1
   104    54    55    1
   105    54    53    1
   106    26    25    2
   107    55    63   am
   108    46    49    1
   109    46    45    1
   110    46    47    1
   111    24    25    1
   112     6     5    1
   113    70    71    1
   114    70    65   am
   115    71    72    1
   116    47    48    2
   117    63    64    1
   118    63    69    1
   119    64    65    1
   120    64    67    1
   121    65    66    2
   122    32    31    1
   123    33    31    1
   124     5     2    1
   125    31    28    1
   126    72    73    2
   127    69    68    1
   128    27    28    1
   129    67    68    1
   130     2     1    1
   131     2     3    1
   132    28    29    1
   133    30    29    2
   134     4     3    2
