@<TRIPOS>MOLECULE
tmp/5hwaA02.pdb
 106 105 0 0 0
SMALL
GASTEIGER

@<TRIPOS>ATOM
      1  N        -33.1120  -13.8820   23.8690 N.3    72  ARG72      -0.1231
      2  CA       -32.7250  -13.6100   22.4900 C.3    72  ARG72       0.1694
      3  C        -31.4100  -14.2940   22.1160 C.2    72  ARG72       0.2592
      4  O        -30.9730  -14.2010   20.9730 O.2    72  ARG72      -0.2718
      5  CB       -32.6190  -12.1110   22.2840 C.3    72  ARG72       0.0321
      6  CG       -32.6290  -11.6700   20.8430 C.3    72  ARG72       0.0489
      7  CD       -32.4920  -10.1290   20.6990 C.3    72  ARG72       0.2205
      8  NE       -33.5060   -9.3790   21.4300 N.pl3  72  ARG72      -0.0865
      9  CZ       -34.7130   -9.0900   20.9570 C.cat  72  ARG72       0.5346
     10  NH1      -35.5660   -8.4290   21.7430 N.pl3  72  ARG72       0.1354
     11  NH2      -35.1240   -9.5170   19.7340 N.pl3  72  ARG72       0.1354
     12  N        -30.7480  -14.9370   23.0740 N.am   73  ASP73      -0.1960
     13  CA       -29.5240  -15.6680   22.7720 C.3    73  ASP73       0.1840
     14  C        -29.4290  -16.8330   23.7440 C.2    73  ASP73       0.2623
     15  O        -28.8240  -16.7700   24.8080 O.2    73  ASP73      -0.2715
     16  CB       -28.2770  -14.7740   22.8080 C.3    73  ASP73       0.1450
     17  CG       -27.0160  -15.5260   22.3940 C.2    73  ASP73       0.3671
     18  OD1      -27.1130  -16.6970   21.9190 O.co2  73  ASP73      -0.2456
     19  OD2      -25.9420  -14.9070   22.4500 O.co2  73  ASP73      -0.2456
     20  N        -30.0100  -17.9330   23.3000 N.am   74  THR74      -0.1937
     21  CA       -30.0920  -19.1580   24.0890 C.3    74  THR74       0.2028
     22  C        -28.9210  -20.0870   23.8430 C.2    74  THR74       0.2642
     23  O        -28.8020  -21.1070   24.4960 O.2    74  THR74      -0.2714
     24  CB       -31.4120  -19.9020   23.8550 C.3    74  THR74       0.1808
     25  OG1      -31.4780  -20.2930   22.4870 O.3    74  THR74      -0.2208
     26  CG2      -32.5860  -18.9970   24.2140 C.3    74  THR74       0.0379
     27  N        -28.0450  -19.7310   22.9110 N.am   75  HIS75      -0.1959
     28  CA       -26.7760  -20.4590   22.7130 C.3    75  HIS75       0.1772
     29  C        -25.6150  -19.4970   22.7560 C.2    75  HIS75       0.2462
     30  O        -24.8570  -19.3540   21.8070 O.2    75  HIS75      -0.2730
     31  CB       -26.8070  -21.2290   21.4080 C.3    75  HIS75       0.0785
     32  CG       -27.8430  -22.3320   21.3990 C.ar   75  HIS75       0.0821
     33  ND1      -27.6010  -23.5840   21.8770 N.ar   75  HIS75      -0.2267
     34  CD2      -29.1830  -22.3140   21.0040 C.ar   75  HIS75       0.1154
     35  CE1      -28.7210  -24.3370   21.7560 C.ar   75  HIS75       0.1986
     36  NE2      -29.6950  -23.5500   21.2370 N.ar   75  HIS75      -0.2212
     37  N        -25.4470  -18.8050   23.8890 N.am   76  PRO76      -0.2716
     38  CA       -24.4650  -17.7410   23.9740 C.3    76  PRO76       0.1536
     39  C        -23.0150  -18.2130   24.0150 C.2    76  PRO76       0.2598
     40  O        -22.7270  -19.3620   24.3350 O.2    76  PRO76      -0.2715
     41  CB       -24.8420  -17.0450   25.2770 C.3    76  PRO76       0.0310
     42  CG       -25.3330  -18.1820   26.1260 C.3    76  PRO76       0.0237
     43  CD       -26.2060  -18.9410   25.1450 C.3    76  PRO76       0.0939
     44  N        -22.1160  -17.2810   23.7280 N.am   77  ASP77      -0.1972
     45  CA       -20.6840  -17.5440   23.7440 C.3    77  ASP77       0.1709
     46  C        -20.0010  -17.2140   25.0650 C.2    77  ASP77       0.2293
     47  O        -18.8530  -17.6360   25.3010 O.2    77  ASP77      -0.2864
     48  CB       -20.0190  -16.7710   22.5930 C.3    77  ASP77       0.1436
     49  CG       -20.4170  -15.2890   22.5230 C.2    77  ASP77       0.3671
     50  OD1      -21.3830  -14.8470   23.1960 O.co2  77  ASP77      -0.2456
     51  OD2      -19.7750  -14.5490   21.7430 O.co2  77  ASP77      -0.2456
     52  N        -14.9760  -19.6240   18.3970 N.3   147  VAL147     -0.1231
     53  CA       -16.4010  -19.4440   18.1110 C.3   147  VAL147      0.1692
     54  C        -16.6430  -18.7570   16.7720 C.2   147  VAL147      0.2592
     55  O        -17.5790  -19.1190   16.0490 O.2   147  VAL147     -0.2718
     56  CB       -17.1260  -18.6740   19.2460 C.3   147  VAL147      0.0266
     57  CG1      -18.6160  -18.4960   18.9380 C.3   147  VAL147      0.0020
     58  CG2      -16.9240  -19.4290   20.5710 C.3   147  VAL147      0.0020
     59  N        -15.7870  -17.7910   16.4040 N.am  148  TYR148     -0.1976
     60  CA       -16.0750  -16.9780   15.2170 C.3   148  TYR148      0.1639
     61  C        -14.9930  -17.0140   14.1550 C.2   148  TYR148      0.2290
     62  O        -15.3040  -17.1410   12.9840 O.2   148  TYR148     -0.2864
     63  CB       -16.3370  -15.5040   15.6130 C.3   148  TYR148      0.0560
     64  CG       -17.4670  -15.4110   16.6250 C.ar  148  TYR148     -0.0198
     65  CD1      -18.7750  -15.6890   16.2500 C.ar  148  TYR148     -0.0009
     66  CD2      -17.2200  -14.9740   17.9210 C.ar  148  TYR148     -0.0009
     67  CE1      -19.8220  -15.6240   17.1560 C.ar  148  TYR148      0.0417
     68  CE2      -18.2600  -14.8630   18.8260 C.ar  148  TYR148      0.0417
     69  CZ       -19.5650  -15.1910   18.4280 C.ar  148  TYR148      0.1957
     70  OH       -20.6100  -15.1430   19.3270 O.3   148  TYR148     -0.2866
     71  N        -23.9820  -11.5170   14.6340 N.3   177  GLN177     -0.1231
     72  CA       -25.2370  -12.1780   14.3030 C.3   177  GLN177      0.1698
     73  C        -25.2100  -13.6910   14.5520 C.2   177  GLN177      0.2593
     74  O        -26.2230  -14.3430   14.3620 O.2   177  GLN177     -0.2718
     75  CB       -25.6480  -11.8510   12.8650 C.3   177  GLN177      0.0381
     76  CG       -25.8500  -10.3480   12.6980 C.3   177  GLN177      0.0905
     77  CD       -25.9670   -9.8690   11.2890 C.2   177  GLN177      0.2608
     78  OE1      -25.5850   -8.7130   11.0080 O.2   177  GLN177     -0.2717
     79  NE2      -26.5440  -10.6990   10.3980 N.am  177  GLN177     -0.0878
     80  N        -24.0710  -14.2080   15.0130 N.am  178  GLY178     -0.1942
     81  CA       -23.8720  -15.6280   15.2240 C.3   178  GLY178      0.2014
     82  C        -23.1400  -16.2440   14.0400 C.2   178  GLY178      0.2639
     83  O        -23.2910  -15.8090   12.8920 O.2   178  GLY178     -0.2714
     84  N        -22.3060  -17.2330   14.3230 N.am  179  ALA179     -0.1963
     85  CA       -21.5500  -17.9130   13.2630 C.3   179  ALA179      0.1728
     86  C        -22.4160  -18.9060   12.4930 C.2   179  ALA179      0.2617
     87  O        -22.4310  -18.8520   11.2340 O.2   179  ALA179     -0.2715
     88  CB       -20.3210  -18.6190   13.8280 C.3   179  ALA179      0.0334
     89  N        -23.1230  -19.7920   13.2140 N.am  180  THR180     -0.1937
     90  CA       -23.9120  -20.8370   12.5840 C.3   180  THR180      0.2028
     91  C        -25.2410  -20.9240   13.3090 C.2   180  THR180      0.2642
     92  O        -25.3830  -20.4660   14.4750 O.2   180  THR180     -0.2714
     93  CB       -23.2090  -22.2040   12.6550 C.3   180  THR180      0.1808
     94  OG1      -23.0440  -22.5880   14.0340 O.3   180  THR180     -0.2208
     95  CG2      -21.8400  -22.1340   11.9600 C.3   180  THR180      0.0379
     96  N        -26.2170  -21.4980   12.6120 N.am  181  GLY181     -0.1954
     97  CA       -27.5460  -21.6590   13.1880 C.3   181  GLY181      0.1869
     98  C        -28.5500  -21.0390   12.2430 C.2   181  GLY181      0.2309
     99  O        -28.7310  -21.5200   11.1310 O.2   181  GLY181     -0.2863
    100  N        -27.3460  -15.6600   10.6970 N.3   185  THR185     -0.1218
    101  CA       -25.9630  -15.9450   11.0660 C.3   185  THR185      0.1862
    102  C        -25.0740  -15.8200    9.8350 C.2   185  THR185      0.2287
    103  O        -25.5470  -15.7420    8.6830 O.2   185  THR185     -0.2866
    104  CB       -25.8370  -17.3740   11.6430 C.3   185  THR185      0.1770
    105  OG1      -26.1800  -18.3510   10.6410 O.3   185  THR185     -0.2211
    106  CG2      -26.7000  -17.5410   12.8970 C.3   185  THR185      0.0375
@<TRIPOS>BOND
     1   103   102    2
     2   102   101    1
     3    79    77   am
     4   105   104    1
     5   100   101    1
     6    78    77    2
     7   101   104    1
     8    99    98    2
     9    87    86    2
    10    77    76    1
    11   104   106    1
    12    95    93    1
    13    98    97    1
    14    86    89   am
    15    86    85    1
    16    90    93    1
    17    90    89    1
    18    90    91    1
    19    96    97    1
    20    96    91   am
    21    93    94    1
    22    76    75    1
    23    75    72    1
    24    83    82    2
    25    62    61    2
    26    85    88    1
    27    85    84    1
    28    91    92    2
    29    82    84   am
    30    82    81    1
    31    61    60    1
    32    72    73    1
    33    72    71    1
    34    74    73    2
    35    73    80   am
    36    80    81    1
    37    60    63    1
    38    60    59    1
    39    63    64    1
    40    55    54    2
    41    65    64   ar
    42    65    67   ar
    43    59    54   am
    44    64    66   ar
    45    54    53    1
    46    67    69   ar
    47    66    68   ar
    48    53    52    1
    49    53    56    1
    50    69    68   ar
    51    69    70    1
    52    57    56    1
    53    56    58    1
    54    11     9    1
    55     7     6    1
    56     7     8    1
    57     6     5    1
    58     9     8    2
    59     9    10    1
    60     4     3    2
    61    34    36   ar
    62    34    32   ar
    63    36    35   ar
    64    32    31    1
    65    32    33   ar
    66    31    28    1
    67    51    49   ar
    68    35    33   ar
    69    30    29    2
    70    18    17   ar
    71     3     2    1
    72     3    12   am
    73     5     2    1
    74    17    19   ar
    75    17    16    1
    76    25    24    1
    77     2     1    1
    78    49    48    1
    79    49    50   ar
    80    48    45    1
    81    28    29    1
    82    28    27    1
    83    29    37   am
    84    13    16    1
    85    13    12    1
    86    13    14    1
    87    27    22   am
    88    20    14   am
    89    20    21    1
    90    44    45    1
    91    44    39   am
    92    14    15    2
    93    45    46    1
    94    22    21    1
    95    22    23    2
    96    24    21    1
    97    24    26    1
    98    37    38    1
    99    37    43    1
   100    38    39    1
   101    38    41    1
   102    39    40    2
   103    46    47    2
   104    43    42    1
   105    41    42    1
