@<TRIPOS>MOLECULE
tmp/5hwaA00.pdb
 118 110 0 0 0
SMALL
GASTEIGER

@<TRIPOS>ATOM
      1  N        -19.3090   -1.3870   17.9710 N.3    37  GLN37      -0.1245
      2  CA       -19.5190   -1.9210   19.3310 C.3    37  GLN37       0.1566
      3  C        -19.3440   -0.8790   20.4310 C.2    37  GLN37       0.2260
      4  O        -19.9830   -0.9610   21.5000 O.2    37  GLN37      -0.2867
      5  CB       -18.5510   -3.0850   19.6010 C.3    37  GLN37       0.0367
      6  CG       -18.7350   -4.3230   18.6900 C.3    37  GLN37       0.0905
      7  CD       -20.0740   -5.0350   18.7910 C.2    37  GLN37       0.2608
      8  OE1      -20.5490   -5.5480   17.7840 O.2    37  GLN37      -0.2717
      9  NE2      -20.6680   -5.1380   19.9950 N.am   37  GLN37      -0.0878
     10  N        -27.0320   -4.3440   27.9930 N.3    53  ILE53      -0.1245
     11  CA       -27.5180   -3.3350   27.0300 C.3    53  ILE53       0.1561
     12  C        -29.0130   -3.5090   26.7670 C.2    53  ILE53       0.2260
     13  O        -29.5570   -2.8780   25.8480 O.2    53  ILE53      -0.2867
     14  CB       -26.6780   -3.3060   25.7280 C.3    53  ILE53       0.0252
     15  CG1      -26.9080   -4.5680   24.8870 C.3    53  ILE53       0.0019
     16  CG2      -25.1840   -3.0490   26.0360 C.3    53  ILE53       0.0019
     17  CD1      -26.4930   -4.3340   23.4500 C.3    53  ILE53       0.0001
     18  N        -30.9320   -6.0160   25.6440 N.3    55  ASP55      -0.1239
     19  CA       -31.2670   -6.6610   24.3900 C.3    55  ASP55       0.1674
     20  C        -31.6850   -8.1170   24.5940 C.2    55  ASP55       0.2266
     21  O        -31.7330   -8.8860   23.6150 O.2    55  ASP55      -0.2867
     22  CB       -30.1020   -6.5540   23.3910 C.3    55  ASP55       0.1410
     23  CG       -28.8730   -7.3200   23.8420 C.2    55  ASP55       0.3668
     24  OD1      -28.7480   -7.6790   25.0530 O.co2  55  ASP55      -0.2456
     25  OD2      -28.0260   -7.6050   22.9400 O.co2  55  ASP55      -0.2456
     26  N        -30.0780  -10.4870   25.8590 N.3    57  ARG57      -0.1245
     27  CA       -28.9480  -11.4420   25.7180 C.3    57  ARG57       0.1563
     28  C        -28.1440  -11.6160   26.9980 C.2    57  ARG57       0.2260
     29  O        -27.0880  -12.2110   26.9380 O.2    57  ARG57      -0.2867
     30  CB       -28.0230  -11.0690   24.5350 C.3    57  ARG57       0.0307
     31  CG       -28.7770  -11.0590   23.2040 C.3    57  ARG57       0.0489
     32  CD       -27.7640  -10.9120   22.1050 C.3    57  ARG57       0.2205
     33  NE       -28.3740  -11.0530   20.7560 N.pl3  57  ARG57      -0.0865
     34  CZ       -29.0150  -10.0740   20.1080 C.cat  57  ARG57       0.5346
     35  NH1      -29.2450   -8.8740   20.6610 N.pl3  57  ARG57       0.1354
     36  NH2      -29.4940  -10.3240   18.8930 N.pl3  57  ARG57       0.1354
     37  N        -23.2760   -8.2610   28.0840 N.3    60  THR60      -0.1218
     38  CA       -22.3750   -8.2110   26.9090 C.3    60  THR60       0.1862
     39  C        -20.9720   -7.8730   27.3940 C.2    60  THR60       0.2287
     40  O        -20.8150   -6.9180   28.1520 O.2    60  THR60      -0.2866
     41  CB       -22.9020   -7.1620   25.9060 C.3    60  THR60       0.1770
     42  OG1      -24.2420   -7.5290   25.5750 O.3    60  THR60      -0.2211
     43  CG2      -22.1120   -7.1760   24.6160 C.3    60  THR60       0.0375
     44  N        -15.5050   -8.7930   21.6910 N.3    64  PHE64      -0.1227
     45  CA       -16.4370   -9.2370   20.6420 C.3    64  PHE64       0.1736
     46  C        -17.8560   -9.3320   21.1510 C.2    64  PHE64       0.2596
     47  O        -18.6990   -9.9480   20.4970 O.2    64  PHE64      -0.2718
     48  CB       -15.9440  -10.5320   19.9280 C.3    64  PHE64       0.0547
     49  CG       -15.7390  -11.6920   20.8610 C.ar   64  PHE64      -0.0202
     50  CD1      -16.8000  -12.5500   21.1540 C.ar   64  PHE64      -0.0042
     51  CD2      -14.4610  -11.9610   21.4210 C.ar   64  PHE64      -0.0042
     52  CE1      -16.6200  -13.6170   22.0290 C.ar   64  PHE64      -0.0003
     53  CE2      -14.2910  -13.0390   22.2890 C.ar   64  PHE64      -0.0003
     54  CZ       -15.3610  -13.8510   22.5990 C.ar   64  PHE64      -0.0000
     55  N        -18.1190   -8.7280   22.3100 N.am   65  GLY65      -0.1957
     56  CA       -19.4900   -8.6760   22.8460 C.3    65  GLY65       0.1869
     57  C        -20.0390  -10.0700   23.1280 C.2    65  GLY65       0.2309
     58  O        -21.1620  -10.3980   22.7340 O.2    65  GLY65      -0.2863
     59  N        -21.8540  -12.8790   25.1470 N.3    67  THR67      -0.1218
     60  CA       -23.0620  -12.6580   25.9410 C.3    67  THR67       0.1862
     61  C        -23.2440  -13.7910   26.9520 C.2    67  THR67       0.2287
     62  O        -22.9040  -14.9540   26.6810 O.2    67  THR67      -0.2866
     63  CB       -24.2850  -12.5780   25.0000 C.3    67  THR67       0.1770
     64  OG1      -24.1730  -13.6480   24.0410 O.3    67  THR67      -0.2211
     65  CG2      -24.3430  -11.2150   24.2460 C.3    67  THR67       0.0375
     66  N        -30.7480  -14.9370   23.0740 N.3    73  ASP73      -0.1239
     67  CA       -29.5240  -15.6680   22.7720 C.3    73  ASP73       0.1674
     68  C        -29.4290  -16.8330   23.7440 C.2    73  ASP73       0.2266
     69  O        -28.8240  -16.7700   24.8080 O.2    73  ASP73      -0.2867
     70  CB       -28.2770  -14.7740   22.8080 C.3    73  ASP73       0.1410
     71  CG       -27.0160  -15.5260   22.3940 C.2    73  ASP73       0.3668
     72  OD1      -27.1130  -16.6970   21.9190 O.co2  73  ASP73      -0.2456
     73  OD2      -25.9420  -14.9070   22.4500 O.co2  73  ASP73      -0.2456
     74  N        -19.5960  -12.5400   14.6460 N.3   175  LEU175     -0.1231
     75  CA       -19.6480  -12.1600   16.0460 C.3   175  LEU175      0.1693
     76  C        -20.9260  -11.3600   16.3310 C.2   175  LEU175      0.2592
     77  O        -21.4500  -11.4340   17.4550 O.2   175  LEU175     -0.2718
     78  CB       -18.3870  -11.4400   16.4900 C.3   175  LEU175      0.0284
     79  CG       -18.1880  -10.0160   15.9500 C.3   175  LEU175      0.0019
     80  CD1      -18.8560   -8.9630   16.8260 C.3   175  LEU175      0.0001
     81  CD2      -16.6900   -9.7250   15.8430 C.3   175  LEU175      0.0001
     82  N        -21.4310  -10.6020   15.3380 N.am  176  ASN176     -0.1974
     83  CA       -22.5970   -9.7650   15.5910 C.3   176  ASN176      0.1688
     84  C        -23.8900  -10.5760   15.5950 C.2   176  ASN176      0.2292
     85  O        -24.8160  -10.2780   16.3870 O.2   176  ASN176     -0.2864
     86  CB       -22.5990   -8.6080   14.5770 C.3   176  ASN176      0.1181
     87  CG       -23.6770   -7.5660   14.8340 C.2   176  ASN176      0.2629
     88  OD1      -24.0580   -7.2380   16.0070 O.2   176  ASN176     -0.2716
     89  ND2      -24.0490   -6.9420   13.8070 N.am  176  ASN176     -0.0877
     90  N        -32.4830   -6.7700   17.3450 N.3   218  LYS218     -0.1231
     91  CA       -31.5010   -6.1360   18.2230 C.3   218  LYS218      0.1693
     92  C        -30.0570   -6.5500   17.9590 C.2   218  LYS218      0.2592
     93  O        -29.2270   -6.5460   18.8780 O.2   218  LYS218     -0.2718
     94  CB       -31.8680   -6.2540   19.7390 C.3   218  LYS218      0.0285
     95  CG       -33.2590   -5.6990   20.0750 C.3   218  LYS218      0.0035
     96  CD       -33.4440   -5.5740   21.6000 C.3   218  LYS218      0.0206
     97  CE       -34.8050   -4.9920   21.9170 C.3   218  LYS218      0.1093
     98  NZ       -35.0150   -4.9830   23.4100 N.3   218  LYS218     -0.1314
     99  N        -29.6810   -6.7690   16.6920 N.am  219  TYR219     -0.1962
    100  CA       -28.2240   -6.9690   16.4430 C.3   219  TYR219      0.1771
    101  C        -27.5070   -5.6400   16.5810 C.2   219  TYR219      0.2619
    102  O        -26.3350   -5.5810   16.9700 O.2   219  TYR219     -0.2715
    103  CB       -27.9250   -7.5300   15.0200 C.3   219  TYR219      0.0574
    104  CG       -28.6030   -8.8550   14.7670 C.ar  219  TYR219     -0.0198
    105  CD1      -28.4230   -9.9370   15.6380 C.ar  219  TYR219     -0.0009
    106  CD2      -29.4000   -9.0440   13.6230 C.ar  219  TYR219     -0.0009
    107  CE1      -29.1080  -11.1270   15.4270 C.ar  219  TYR219      0.0417
    108  CE2      -30.0630  -10.2470   13.3820 C.ar  219  TYR219      0.0417
    109  CZ       -29.9380  -11.2670   14.3080 C.ar  219  TYR219      0.1957
    110  OH       -30.6030  -12.4330   14.0610 O.3   219  TYR219     -0.2866
    111  N        -28.2160   -4.5800   16.1710 N.am  220  ASN220     -0.1972
    112  CA       -27.7360   -3.1730   16.1890 C.3   220  ASN220      0.1688
    113  C        -28.9700   -2.3040   16.2610 C.2   220  ASN220      0.2292
    114  O        -30.0450   -2.7150   15.8370 O.2   220  ASN220     -0.2864
    115  CB       -26.9420   -2.7830   14.9280 C.3   220  ASN220      0.1181
    116  CG       -25.7950   -3.7290   14.6620 C.2   220  ASN220      0.2629
    117  OD1      -25.9400   -4.7740   13.9470 O.2   220  ASN220     -0.2716
    118  ND2      -24.6430   -3.3700   15.1640 N.am  220  ASN220     -0.0877
@<TRIPOS>BOND
     1   108   106   ar
     2   108   109   ar
     3   106   104   ar
     4    89    87   am
     5   117   116    2
     6   110   109    1
     7   109   107   ar
     8    86    87    1
     9    86    83    1
    10    74    75    1
    11   116   115    1
    12   116   118   am
    13   104   103    1
    14   104   105   ar
    15    87    88    2
    16   115   112    1
    17   103   100    1
    18    82    83    1
    19    82    76   am
    20   107   105   ar
    21    83    84    1
    22    84    85    2
    23   114   113    2
    24    81    79    1
    25    79    78    1
    26    79    80    1
    27    75    76    1
    28    75    78    1
    29   111   112    1
    30   111   101   am
    31   112   113    1
    32    76    77    2
    33   100   101    1
    34   100    99    1
    35   101   102    2
    36    99    92   am
    37    90    91    1
    38     8     7    2
    39    92    91    1
    40    92    93    2
    41     1     2    1
    42    91    94    1
    43     6     7    1
    44     6     5    1
    45     7     9   am
    46    36    34    1
    47     2     5    1
    48     2     3    1
    49    94    95    1
    50    48    45    1
    51    48    49    1
    52    95    96    1
    53    34    35    1
    54    34    33    2
    55     3     4    2
    56    47    46    2
    57    45    46    1
    58    45    44    1
    59    33    32    1
    60    49    50   ar
    61    49    51   ar
    62    46    55   am
    63    50    52   ar
    64    51    53   ar
    65    96    97    1
    66    97    98    1
    67    72    71   ar
    68    52    54   ar
    69    32    31    1
    70    53    54   ar
    71    55    56    1
    72    71    73   ar
    73    71    70    1
    74    58    57    2
    75    67    70    1
    76    67    66    1
    77    67    68    1
    78    56    57    1
    79    25    23   ar
    80    31    30    1
    81    22    23    1
    82    22    19    1
    83    17    15    1
    84    21    20    2
    85    68    69    2
    86    23    24   ar
    87    64    63    1
    88    65    63    1
    89    19    20    1
    90    19    18    1
    91    30    27    1
    92    43    41    1
    93    15    14    1
    94    63    60    1
    95    59    60    1
    96    42    41    1
    97    27    26    1
    98    27    28    1
    99    14    16    1
   100    14    11    1
   101    13    12    2
   102    41    38    1
   103    60    61    1
   104    62    61    2
   105    12    11    1
   106    38    39    1
   107    38    37    1
   108    29    28    2
   109    11    10    1
   110    39    40    2
