@<TRIPOS>MOLECULE
tmp/5hwcA00.pdb
 166 162 0 0 0
SMALL
GASTEIGER

@<TRIPOS>ATOM
      1  N          7.8190   54.0480    2.7250 N.3    28  TYR28      -0.1241
      2  CA         6.7070   53.2250    3.1880 C.3    28  TYR28       0.1605
      3  C          6.1410   52.2740    2.1290 C.2    28  TYR28       0.2264
      4  O          6.2960   52.4970    0.9310 O.2    28  TYR28      -0.2867
      5  CB         5.5810   54.1200    3.7280 C.3    28  TYR28       0.0534
      6  CG         4.8120   54.8990    2.6740 C.ar   28  TYR28      -0.0201
      7  CD1        3.6620   54.3780    2.0980 C.ar   28  TYR28      -0.0009
      8  CD2        5.2250   56.1660    2.2710 C.ar   28  TYR28      -0.0009
      9  CE1        2.9460   55.0940    1.1310 C.ar   28  TYR28       0.0417
     10  CE2        4.5160   56.8840    1.3070 C.ar   28  TYR28       0.0417
     11  CZ         3.3840   56.3400    0.7430 C.ar   28  TYR28       0.1957
     12  OH         2.6820   57.0460   -0.2050 O.3    28  TYR28      -0.2866
     13  N         -1.3100   48.6610   -1.8350 N.3    38  PHE38      -0.1227
     14  CA        -2.0690   49.7310   -2.4680 C.3    38  PHE38       0.1736
     15  C         -1.1860   50.9350   -2.8340 C.2    38  PHE38       0.2595
     16  O         -1.5210   51.7130   -3.7290 O.2    38  PHE38      -0.2718
     17  CB        -3.2780   50.1420   -1.6140 C.3    38  PHE38       0.0547
     18  CG        -2.9180   50.6630   -0.2490 C.ar   38  PHE38      -0.0202
     19  CD1       -2.5190   51.9800   -0.0750 C.ar   38  PHE38      -0.0042
     20  CD2       -3.0160   49.8410    0.8670 C.ar   38  PHE38      -0.0042
     21  CE1       -2.1980   52.4620    1.1860 C.ar   38  PHE38      -0.0003
     22  CE2       -2.7050   50.3150    2.1350 C.ar   38  PHE38      -0.0003
     23  CZ        -2.2900   51.6320    2.2910 C.ar   38  PHE38      -0.0000
     24  N         -0.0590   51.0910   -2.1470 N.am   39  ASP39      -0.1974
     25  CA         0.8720   52.1730   -2.4810 C.3    39  ASP39       0.1709
     26  C          2.2620   51.8830   -1.9190 C.2    39  ASP39       0.2293
     27  O          2.3950   51.1550   -0.9320 O.2    39  ASP39      -0.2864
     28  CB         0.3450   53.5220   -1.9640 C.3    39  ASP39       0.1436
     29  CG         1.1890   54.7100   -2.4330 C.2    39  ASP39       0.3671
     30  OD1        1.8160   54.6150   -3.5080 O.co2  39  ASP39      -0.2456
     31  OD2        1.2300   55.7400   -1.7210 O.co2  39  ASP39      -0.2456
     32  N          8.1750   53.6170   -5.9540 N.3    44  ARG44      -0.1245
     33  CA         8.1950   54.9010   -6.6360 C.3    44  ARG44       0.1563
     34  C          9.5900   55.5270   -6.5630 C.2    44  ARG44       0.2260
     35  O          9.8840   56.5130   -7.2410 O.2    44  ARG44      -0.2867
     36  CB         7.1610   55.8200   -5.9880 C.3    44  ARG44       0.0307
     37  CG         6.7560   57.0030   -6.8180 C.3    44  ARG44       0.0489
     38  CD         5.3930   57.5010   -6.4080 C.3    44  ARG44       0.2205
     39  NE         5.2410   57.5900   -4.9590 N.pl3  44  ARG44      -0.0865
     40  CZ         4.3330   56.9050   -4.2740 C.cat  44  ARG44       0.5346
     41  NH1        3.5170   56.0820   -4.9160 N.pl3  44  ARG44       0.1354
     42  NH2        4.2380   57.0480   -2.9600 N.pl3  44  ARG44       0.1354
     43  N         10.8400   57.4200   -4.4200 N.3    46  GLU46      -0.1245
     44  CA        10.8310   58.7940   -3.9210 C.3    46  GLU46       0.1567
     45  C         10.4300   58.8280   -2.4500 C.2    46  GLU46       0.2260
     46  O          9.3750   58.3190   -2.0740 O.2    46  GLU46      -0.2867
     47  CB         9.9960   59.7420   -4.7930 C.3    46  GLU46       0.0388
     48  CG         8.5140   59.4130   -4.9000 C.3    46  GLU46       0.1160
     49  CD         7.7070   60.6350   -5.3470 C.2    46  GLU46       0.3649
     50  OE1        7.3360   61.4610   -4.4770 O.co2  46  GLU46      -0.2457
     51  OE2        7.4920   60.7850   -6.5700 O.co2  46  GLU46      -0.2457
     52  N          9.0410   60.0700    1.0880 N.3    48  PHE48      -0.1241
     53  CA         7.8580   60.8470    1.4270 C.3    48  PHE48       0.1605
     54  C          8.1720   61.8010    2.5730 C.2    48  PHE48       0.2264
     55  O          8.8250   61.4320    3.5520 O.2    48  PHE48      -0.2867
     56  CB         6.6940   59.9350    1.8020 C.3    48  PHE48       0.0534
     57  CG         5.4890   60.6760    2.3130 C.ar   48  PHE48      -0.0203
     58  CD1        4.7770   61.5260    1.4820 C.ar   48  PHE48      -0.0042
     59  CD2        5.0700   60.5250    3.6260 C.ar   48  PHE48      -0.0042
     60  CE1        3.6670   62.2120    1.9510 C.ar   48  PHE48      -0.0003
     61  CE2        3.9560   61.2080    4.1030 C.ar   48  PHE48      -0.0003
     62  CZ         3.2600   62.0540    3.2680 C.ar   48  PHE48      -0.0000
     63  N          6.6920   64.9420    5.2550 N.3    50  THR50      -0.1218
     64  CA         5.5010   65.5550    5.8460 C.3    50  THR50       0.1862
     65  C          5.7200   66.0210    7.2740 C.2    50  THR50       0.2287
     66  O          6.5790   65.5020    7.9950 O.2    50  THR50      -0.2866
     67  CB         4.3130   64.5670    5.8840 C.3    50  THR50       0.1770
     68  OG1        3.1320   65.2380    6.3470 O.3    50  THR50      -0.2211
     69  CG2        4.6290   63.3840    6.7940 C.3    50  THR50       0.0375
     70  N         -2.1570   66.6440   11.8520 N.3    55  GLY55      -0.1210
     71  CA        -3.2630   66.2660   10.9960 C.3    55  GLY55       0.1956
     72  C         -3.0150   66.3110    9.4960 C.2    55  GLY55       0.2612
     73  O         -3.9690   66.2730    8.7280 O.2    55  GLY55      -0.2717
     74  N         -1.7530   66.3890    9.0730 N.am   56  ARG56      -0.1965
     75  CA        -1.4140   66.3910    7.6470 C.3    56  ARG56       0.1729
     76  C         -1.6550   65.0180    7.0150 C.2    56  ARG56       0.2616
     77  O         -1.8790   64.9040    5.8080 O.2    56  ARG56      -0.2715
     78  CB         0.0650   66.7610    7.4340 C.3    56  ARG56       0.0348
     79  CG         0.4050   68.2500    7.3330 C.3    56  ARG56       0.0492
     80  CD        -0.7970   69.1120    7.0190 C.3    56  ARG56       0.2205
     81  NE        -1.4370   69.5750    8.2430 N.pl3  56  ARG56      -0.0865
     82  CZ        -2.7190   69.9100    8.3300 C.cat  56  ARG56       0.5346
     83  NH1       -3.4990   69.8250    7.2600 N.pl3  56  ARG56       0.1354
     84  NH2       -3.2210   70.3280    9.4810 N.pl3  56  ARG56       0.1354
     85  N         -1.5560   63.9790    7.8350 N.am   57  VAL57      -0.1963
     86  CA        -1.6800   62.6030    7.3720 C.3    57  VAL57       0.1727
     87  C         -2.7040   61.8790    8.2460 C.2    57  VAL57       0.2616
     88  O         -3.1940   62.4520    9.2050 O.2    57  VAL57      -0.2715
     89  CB        -0.3290   61.8840    7.4350 C.3    57  VAL57       0.0290
     90  CG1        0.7000   62.5460    6.4770 C.3    57  VAL57       0.0023
     91  CG2        0.2050   61.8670    8.8560 C.3    57  VAL57       0.0023
     92  N         -3.0330   60.6280    7.9220 N.am   58  ILE58      -0.1977
     93  CA        -4.0290   59.8940    8.6980 C.3    58  ILE58       0.1596
     94  C         -3.6110   59.7680   10.1670 C.2    58  ILE58       0.2287
     95  O         -2.4250   59.7820   10.4790 O.2    58  ILE58      -0.2864
     96  CB        -4.3060   58.4950    8.1040 C.3    58  ILE58       0.0276
     97  CG1       -2.9970   57.7410    7.8940 C.3    58  ILE58       0.0022
     98  CG2       -5.0590   58.6110    6.7740 C.3    58  ILE58       0.0022
     99  CD1       -3.1950   56.2850    7.5170 C.3    58  ILE58       0.0001
    100  N         -0.7970   57.3590   11.2900 N.3    61  TRP61      -0.1241
    101  CA         0.5730   57.8540   11.1170 C.3    61  TRP61       0.1605
    102  C          0.9390   58.8800   12.2020 C.2    61  TRP61       0.2264
    103  O          1.9540   58.7430   12.8780 O.2    61  TRP61      -0.2867
    104  CB         0.7560   58.4660    9.7150 C.3    61  TRP61       0.0550
    105  CG         1.1510   57.4700    8.6450 C.ar   61  TRP61       0.0003
    106  CD1        0.5100   56.3140    8.3230 C.ar   61  TRP61       0.0946
    107  CD2        2.2820   57.5580    7.7630 C.ar   61  TRP61       0.0152
    108  NE1        1.1690   55.6680    7.3070 N.ar   61  TRP61      -0.2442
    109  CE2        2.2630   56.4100    6.9430 C.ar   61  TRP61       0.0810
    110  CE3        3.3200   58.4830    7.6030 C.ar   61  TRP61       0.0012
    111  CZ2        3.2360   56.1680    5.9640 C.ar   61  TRP61       0.0191
    112  CZ3        4.2900   58.2440    6.6220 C.ar   61  TRP61       0.0001
    113  CH2        4.2360   57.0970    5.8200 C.ar   61  TRP61       0.0015
    114  N         -7.6400   55.5020    9.8880 N.3    83  GLY83      -0.1210
    115  CA        -7.2300   55.5730    8.5010 C.3    83  GLY83       0.1956
    116  C         -8.2200   56.4180    7.7240 C.2    83  GLY83       0.2611
    117  O         -8.4320   57.5860    8.0530 O.2    83  GLY83      -0.2717
    118  N         -8.8460   55.8170    6.7140 N.am   84  TYR84      -0.1976
    119  CA        -9.7910   56.5390    5.8540 C.3    84  TYR84       0.1639
    120  C        -11.2680   56.2300    6.1280 C.2    84  TYR84       0.2290
    121  O        -12.1550   56.6520    5.3790 O.2    84  TYR84      -0.2864
    122  CB        -9.4520   56.2820    4.3920 C.3    84  TYR84       0.0560
    123  CG        -8.0960   56.8190    4.0340 C.ar   84  TYR84      -0.0198
    124  CD1       -7.9120   58.1750    3.7820 C.ar   84  TYR84      -0.0009
    125  CD2       -6.9880   55.9790    3.9720 C.ar   84  TYR84      -0.0009
    126  CE1       -6.6540   58.6870    3.4730 C.ar   84  TYR84       0.0417
    127  CE2       -5.7350   56.4770    3.6670 C.ar   84  TYR84       0.0417
    128  CZ        -5.5730   57.8330    3.4150 C.ar   84  TYR84       0.1957
    129  OH        -4.3250   58.3320    3.1100 O.3    84  TYR84      -0.2866
    130  N        -10.5050   55.7780    0.3740 N.3    89  PHE89      -0.1241
    131  CA        -9.8600   56.7980   -0.4450 C.3    89  PHE89       0.1605
    132  C        -10.1110   56.4450   -1.8980 C.2    89  PHE89       0.2264
    133  O         -9.5670   55.4550   -2.4060 O.2    89  PHE89      -0.2867
    134  CB        -8.3610   56.8880   -0.1580 C.3    89  PHE89       0.0534
    135  CG        -7.7130   58.1130   -0.7380 C.ar   89  PHE89      -0.0203
    136  CD1       -7.6400   59.2880   -0.0040 C.ar   89  PHE89      -0.0042
    137  CD2       -7.2070   58.1030   -2.0280 C.ar   89  PHE89      -0.0042
    138  CE1       -7.0590   60.4280   -0.5430 C.ar   89  PHE89      -0.0003
    139  CE2       -6.6190   59.2420   -2.5730 C.ar   89  PHE89      -0.0003
    140  CZ        -6.5420   60.4000   -1.8260 C.ar   89  PHE89      -0.0000
    141  N         -8.1840   54.0570   -4.5080 N.3    92  VAL92      -0.1231
    142  CA        -7.0320   53.4000   -3.8780 C.3    92  VAL92       0.1692
    143  C         -7.4310   52.4740   -2.7230 C.2    92  VAL92       0.2591
    144  O         -7.0080   51.3160   -2.6620 O.2    92  VAL92      -0.2718
    145  CB        -5.9860   54.4180   -3.3480 C.3    92  VAL92       0.0266
    146  CG1       -4.7640   53.6900   -2.8340 C.3    92  VAL92       0.0020
    147  CG2       -5.5760   55.4100   -4.4320 C.3    92  VAL92       0.0020
    148  N         -8.2350   52.9900   -1.8000 N.am   93  ILE93      -0.1980
    149  CA        -8.5510   52.2490   -0.5780 C.3    93  ILE93       0.1595
    150  C        -10.0530   52.1020   -0.3650 C.2    93  ILE93       0.2287
    151  O        -10.7670   53.0960   -0.2580 O.2    93  ILE93      -0.2864
    152  CB        -7.9430   52.9430    0.6640 C.3    93  ILE93       0.0276
    153  CG1       -6.4200   52.9530    0.5650 C.3    93  ILE93       0.0022
    154  CG2       -8.4240   52.2730    1.9620 C.3    93  ILE93       0.0022
    155  CD1       -5.7800   53.8980    1.5010 C.3    93  ILE93       0.0001
    156  N          1.0130   49.4510    7.1780 N.3   101  PHE101     -0.1241
    157  CA         2.1730   50.1130    6.5660 C.3   101  PHE101      0.1605
    158  C          3.4970   49.6010    7.1110 C.2   101  PHE101      0.2264
    159  O          3.6860   49.5380    8.3180 O.2   101  PHE101     -0.2867
    160  CB         2.1480   51.6240    6.8080 C.3   101  PHE101      0.0534
    161  CG         1.1000   52.3700    6.0290 C.ar  101  PHE101     -0.0203
    162  CD1        1.4140   52.9640    4.8170 C.ar  101  PHE101     -0.0042
    163  CD2       -0.1800   52.5300    6.5370 C.ar  101  PHE101     -0.0042
    164  CE1        0.4640   53.6760    4.1080 C.ar  101  PHE101     -0.0003
    165  CE2       -1.1380   53.2460    5.8320 C.ar  101  PHE101     -0.0003
    166  CZ        -0.8140   53.8170    4.6200 C.ar  101  PHE101     -0.0000
@<TRIPOS>BOND
     1    35    34    2
     2    37    38    1
     3    37    36    1
     4    33    34    1
     5    33    36    1
     6    33    32    1
     7    51    49   ar
     8    38    39    1
     9    49    48    1
    10    49    50   ar
    11    39    40    2
    12    41    40    1
    13    48    47    1
    14    47    44    1
    15   141   142    1
    16   147   145    1
    17    43    44    1
    18    40    42    1
    19    44    45    1
    20   142   145    1
    21   142   143    1
    22    16    15    2
    23    30    29   ar
    24   145   146    1
    25    15    14    1
    26    15    24   am
    27   143   144    2
    28   143   148   am
    29   139   137   ar
    30   139   140   ar
    31    25    24    1
    32    25    28    1
    33    25    26    1
    34    14    13    1
    35    14    17    1
    36    45    46    2
    37    29    28    1
    38    29    31   ar
    39   133   132    2
    40   137   135   ar
    41    26    27    2
    42   132   131    1
    43   140   138   ar
    44   148   149    1
    45    17    18    1
    46   135   134    1
    47   135   136   ar
    48   149   150    1
    49   149   152    1
    50   138   136   ar
    51   131   134    1
    52   131   130    1
    53   150   151    2
    54    18    19   ar
    55    18    20   ar
    56    12    11    1
    57    19    21   ar
    58   153   152    1
    59   153   155    1
    60   152   154    1
    61    11     9   ar
    62    11    10   ar
    63    20    22   ar
    64     4     3    2
    65    52    53    1
    66     9     7   ar
    67    21    23   ar
    68    10     8   ar
    69    53    56    1
    70    53    54    1
    71    58    60   ar
    72    58    57   ar
    73    56    57    1
    74    60    62   ar
    75     7     6   ar
    76     3     2    1
    77    22    23   ar
    78     8     6   ar
    79    57    59   ar
    80    54    55    2
    81     6     5    1
    82     1     2    1
    83   129   128    1
    84     2     5    1
    85    62    61   ar
    86   128   126   ar
    87   128   127   ar
    88   126   124   ar
    89    59    61   ar
    90   127   125   ar
    91   124   123   ar
    92   125   123   ar
    93   123   122    1
    94   164   166   ar
    95   164   162   ar
    96   122   119    1
    97   166   165   ar
    98   162   161   ar
    99    63    64    1
   100   121   120    2
   101    77    76    2
   102   113   111   ar
   103   113   112   ar
   104   165   163   ar
   105    64    67    1
   106    64    65    1
   107   119   120    1
   108   119   118    1
   109    67    68    1
   110    67    69    1
   111   111   109   ar
   112   161   163   ar
   113   161   160    1
   114    90    89    1
   115   157   160    1
   116   157   158    1
   117   157   156    1
   118   112   110   ar
   119   118   116   am
   120    98    96    1
   121   109   108   ar
   122   109   107   ar
   123    76    75    1
   124    76    85   am
   125    80    79    1
   126    80    81    1
   127   158   159    2
   128    83    82    1
   129    65    66    2
   130   108   106   ar
   131    79    78    1
   132    86    89    1
   133    86    85    1
   134    86    87    1
   135    78    75    1
   136    89    91    1
   137    99    97    1
   138   110   107   ar
   139    75    74    1
   140   116   117    2
   141   116   115    1
   142   107   105   ar
   143    97    96    1
   144    92    87   am
   145    92    93    1
   146    96    93    1
   147    81    82    2
   148    87    88    2
   149   106   105   ar
   150    82    84    1
   151   115   114    1
   152   105   104    1
   153    93    94    1
   154    73    72    2
   155    74    72   am
   156    72    71    1
   157   104   101    1
   158    94    95    2
   159    71    70    1
   160   101   100    1
   161   101   102    1
   162   102   103    2
