@<TRIPOS>MOLECULE
tmp/5hweA00.pdb
 122 114 0 0 0
SMALL
GASTEIGER

@<TRIPOS>ATOM
      1  N          4.2300    9.7400    5.7710 N.3    47  GLY47      -0.1210
      2  CA         5.4750    9.5590    6.4560 C.3    47  GLY47       0.1956
      3  C          6.6380    9.1090    5.6520 C.2    47  GLY47       0.2612
      4  O          7.6570    8.6800    6.2140 O.2    47  GLY47      -0.2717
      5  N          6.5050    9.1770    4.3280 N.am   48  GLY48      -0.1956
      6  CA         7.5070    8.6590    3.4120 C.3    48  GLY48       0.1869
      7  C          8.2020    9.7900    2.6640 C.2    48  GLY48       0.2309
      8  O          8.3640   10.9210    3.1820 O.2    48  GLY48      -0.2863
      9  N          5.5310   12.8760    0.8310 N.3    51  ASP51      -0.1239
     10  CA         4.5980   13.3490    1.8680 C.3    51  ASP51       0.1674
     11  C          4.5270   14.8240    1.7260 C.2    51  ASP51       0.2266
     12  O          5.4320   15.5030    2.1700 O.2    51  ASP51      -0.2867
     13  CB         5.0940   12.9330    3.2610 C.3    51  ASP51       0.1410
     14  CG         4.1550   13.3560    4.3840 C.2    51  ASP51       0.3668
     15  OD1        3.2790   14.2040    4.1900 O.co2  51  ASP51      -0.2456
     16  OD2        4.3470   12.8030    5.5030 O.co2  51  ASP51      -0.2456
     17  N          3.8240   17.9480    4.9500 N.3    54  ARG54      -0.1245
     18  CA         4.8490   18.6540    5.6820 C.3    54  ARG54       0.1563
     19  C          4.9610   20.0690    5.1380 C.2    54  ARG54       0.2260
     20  O          4.9460   21.0350    5.9140 O.2    54  ARG54      -0.2867
     21  CB         6.2110   17.9730    5.6440 C.3    54  ARG54       0.0307
     22  CG         6.1410   16.5890    6.2800 C.3    54  ARG54       0.0489
     23  CD         7.4790   15.8570    6.1590 C.3    54  ARG54       0.2205
     24  NE         7.5960   15.3990    4.7760 N.pl3  54  ARG54      -0.0865
     25  CZ         8.6820   14.8330    4.2850 C.cat  54  ARG54       0.5346
     26  NH1        9.7860   14.6950    5.0630 N.pl3  54  ARG54       0.1354
     27  NH2        8.6690   14.4450    3.0150 N.pl3  54  ARG54       0.1354
     28  N          8.6170   18.7960   10.7920 N.3    83  TRP83      -0.1227
     29  CA         7.3810   18.0450   10.6470 C.3    83  TRP83       0.1737
     30  C          7.7110   16.5710   10.3770 C.2    83  TRP83       0.2596
     31  O          8.4030   16.2830    9.4150 O.2    83  TRP83      -0.2718
     32  CB         6.5450   18.5710    9.4890 C.3    83  TRP83       0.0564
     33  CG         6.1820   19.9830    9.5670 C.ar   83  TRP83       0.0003
     34  CD1        6.7000   21.0050    8.8610 C.ar   83  TRP83       0.0946
     35  CD2        5.2900   20.5610   10.5210 C.ar   83  TRP83       0.0152
     36  NE1        6.1280   22.2100    9.2940 N.ar   83  TRP83      -0.2442
     37  CE2        5.2240   21.9470   10.2480 C.ar   83  TRP83       0.0810
     38  CE3        4.4690   20.0360   11.4870 C.ar   83  TRP83       0.0012
     39  CZ2        4.4600   22.8000   10.9850 C.ar   83  TRP83       0.0191
     40  CZ3        3.6830   20.8840   12.2230 C.ar   83  TRP83       0.0001
     41  CH2        3.6500   22.2490   11.9280 C.ar   83  TRP83       0.0015
     42  N          7.3060   15.7030   11.2900 N.am   84  SER84      -0.1938
     43  CA         7.4250   14.2990   11.1310 C.3    84  SER84       0.2055
     44  C          6.0720   13.8090   10.6240 C.2    84  SER84       0.2643
     45  O          5.0550   13.7500   11.3550 O.2    84  SER84      -0.2714
     46  CB         7.7840   13.6740   12.4650 C.3    84  SER84       0.2130
     47  OG         7.5410   12.2890   12.5010 O.3    84  SER84      -0.2179
     48  N          6.0370   13.4620    9.3400 N.am   85  GLY85      -0.1954
     49  CA         4.7640   12.9430    8.7630 C.3    85  GLY85       0.1869
     50  C          4.4740   11.5210    9.2040 C.2    85  GLY85       0.2309
     51  O          5.3780   10.7930    9.6770 O.2    85  GLY85      -0.2863
     52  N         17.0850    8.6980    3.4860 N.3   191  MET191     -0.1245
     53  CA        16.4600    9.2540    4.6900 C.3   191  MET191      0.1570
     54  C         16.9400    8.5270    5.9710 C.2   191  MET191      0.2261
     55  O         17.3470    9.1920    6.8910 O.2   191  MET191     -0.2867
     56  CB        14.9240    9.2810    4.5820 C.3   191  MET191      0.0387
     57  CG        14.2330    8.1060    5.2330 C.3   191  MET191      0.0595
     58  SD        12.4420    8.1460    5.5440 S.3   191  MET191     -0.1393
     59  CE        12.0400    9.5860    4.4910 C.3   191  MET191      0.0692
     60  N         19.4220   10.1970    8.8290 N.3   195  ASN195     -0.1240
     61  CA        19.1180   10.1970   10.2730 C.3   195  ASN195      0.1653
     62  C         20.1380    9.4140   11.0970 C.2   195  ASN195      0.2266
     63  O         20.5090    9.8460   12.1420 O.2   195  ASN195     -0.2867
     64  CB        17.7290    9.6340   10.4920 C.3   195  ASN195      0.1155
     65  CG        16.6750   10.4200    9.7580 C.2   195  ASN195      0.2627
     66  OD1       15.6020    9.9070    9.3980 O.2   195  ASN195     -0.2716
     67  ND2       16.9420   11.6000    9.5110 N.am  195  ASN195     -0.0877
     68  N         16.1570   12.0850   14.9250 N.3   230  CYS230     -0.1221
     69  CA        16.5740   12.6710   13.6480 C.3   230  CYS230      0.1808
     70  C         15.5750   12.4850   12.4830 C.2   230  CYS230      0.2602
     71  O         15.0500   11.4180   12.3260 O.2   230  CYS230     -0.2717
     72  CB        17.8960   12.0530   13.2850 C.3   230  CYS230      0.0970
     73  SG        19.1620   12.1400   14.6040 S.3   230  CYS230     -0.0800
     74  N         15.3860   13.5550   11.7180 N.am  231  SER231     -0.1938
     75  CA        14.4640   13.5950   10.6120 C.3   231  SER231      0.2055
     76  C         15.1900   14.1930    9.4110 C.2   231  SER231      0.2643
     77  O         16.2170   14.8670    9.5380 O.2   231  SER231     -0.2714
     78  CB        13.1920   14.3970   11.0140 C.3   231  SER231      0.2130
     79  OG        12.4080   14.7580    9.8970 O.3   231  SER231     -0.2179
     80  N         14.6370   13.9980    8.2270 N.am  232  SER232     -0.1949
     81  CA        15.3120   14.4610    7.0170 C.3   232  SER232      0.1924
     82  C         14.3190   14.9480    6.0040 C.2   232  SER232      0.2314
     83  O         13.1470   14.5950    6.0870 O.2   232  SER232     -0.2863
     84  CB        16.2020   13.3620    6.4280 C.3   232  SER232      0.2116
     85  OG        15.4560   12.1750    6.2350 O.3   232  SER232     -0.2180
     86  N         11.4280    7.7540   19.3600 N.3   300  LYS300     -0.1245
     87  CA        11.6670    7.0080   18.1400 C.3   300  LYS300      0.1561
     88  C         11.3180    5.5300   18.2780 C.2   300  LYS300      0.2260
     89  O         11.3410    4.9740   19.3700 O.2   300  LYS300     -0.2867
     90  CB        13.1550    7.0770   17.7420 C.3   300  LYS300      0.0271
     91  CG        13.5190    8.4280   17.0680 C.3   300  LYS300      0.0035
     92  CD        13.2350    8.3120   15.5880 C.3   300  LYS300      0.0206
     93  CE        13.5660    9.5690   14.8950 C.3   300  LYS300      0.1093
     94  NZ        13.3930    9.4780   13.4890 N.3   300  LYS300     -0.1314
     95  N          5.1730    2.3980   13.5190 N.3   329  LYS329     -0.1245
     96  CA         4.6700    3.6730   13.9830 C.3   329  LYS329      0.1561
     97  C          3.2590    3.5540   14.5990 C.2   329  LYS329      0.2260
     98  O          2.9800    4.1200   15.6280 O.2   329  LYS329     -0.2867
     99  CB         4.6320    4.6390   12.8380 C.3   329  LYS329      0.0271
    100  CG         4.1230    6.0410   13.2140 C.3   329  LYS329      0.0035
    101  CD         4.2840    6.9440   11.9830 C.3   329  LYS329      0.0206
    102  CE         5.6410    7.5230   11.9830 C.3   329  LYS329      0.1093
    103  NZ         5.8740    8.1370   10.6570 N.3   329  LYS329     -0.1314
    104  N          7.9910    9.0400   16.0220 N.3   348  SER348     -0.1202
    105  CA         8.7010    9.0600   14.7730 C.3   348  SER348      0.2020
    106  C          9.4220    7.7380   14.4890 C.2   348  SER348      0.2619
    107  O          9.8660    7.0760   15.4000 O.2   348  SER348     -0.2717
    108  CB         9.7390   10.2060   14.8840 C.3   348  SER348      0.2103
    109  OG        10.6720   10.2770   13.8550 O.3   348  SER348     -0.2182
    110  N          9.6080    7.4250   13.2130 N.am  349  VAL349     -0.1965
    111  CA        10.3780    6.2670   12.7670 C.3   349  VAL349      0.1727
    112  C         11.6350    6.6640   12.0390 C.2   349  VAL349      0.2616
    113  O         11.8130    7.7710   11.7570 O.2   349  VAL349     -0.2715
    114  CB         9.5220    5.3460   11.8700 C.3   349  VAL349      0.0290
    115  CG1        8.3570    4.9120   12.6260 C.3   349  VAL349      0.0023
    116  CG2        9.1250    5.9950   10.5950 C.3   349  VAL349      0.0023
    117  N         12.4880    5.6850   11.7600 N.am  350  SER350     -0.1950
    118  CA        13.8120    5.8570   11.1870 C.3   350  SER350      0.1924
    119  C         14.7530    6.1340   12.3610 C.2   350  SER350      0.2314
    120  O         15.0180    7.2690   12.6070 O.2   350  SER350     -0.2863
    121  CB        13.8650    6.9790   10.1840 C.3   350  SER350      0.2116
    122  OG        15.0550    6.9220    9.4240 O.3   350  SER350     -0.2180
@<TRIPOS>BOND
     1     9    10    1
     2    11    10    1
     3    11    12    2
     4    10    13    1
     5     7     8    2
     6     7     6    1
     7    27    25    1
     8    13    14    1
     9     6     5    1
    10    52    53    1
    11    15    14   ar
    12    25    24    2
    13    25    26    1
    14     5     3   am
    15    14    16   ar
    16    59    58    1
    17    56    53    1
    18    56    57    1
    19    53    54    1
    20    24    23    1
    21    17    18    1
    22    19    18    1
    23    19    20    2
    24    57    58    1
    25    21    18    1
    26    21    22    1
    27     3     4    2
    28     3     2    1
    29     1     2    1
    30    54    55    2
    31    82    83    2
    32    82    81    1
    33    23    22    1
    34    85    84    1
    35    84    81    1
    36    81    80    1
    37    80    76   am
    38    49    50    1
    39    49    48    1
    40    60    61    1
    41    34    36   ar
    42    34    33   ar
    43    50    51    2
    44    36    37   ar
    45    48    44   am
    46    66    65    2
    47    76    77    2
    48    76    75    1
    49    31    30    2
    50   122   121    1
    51    32    33    1
    52    32    29    1
    53    67    65   am
    54    33    35   ar
    55    65    64    1
    56    79    78    1
    57   121   118    1
    58    37    35   ar
    59    37    39   ar
    60    61    64    1
    61    61    62    1
    62    30    29    1
    63    30    42   am
    64    35    38   ar
    65   116   114    1
    66    75    78    1
    67    75    74    1
    68    44    43    1
    69    44    45    2
    70    29    28    1
    71   103   102    1
    72    39    41   ar
    73    62    63    2
    74    43    42    1
    75    43    46    1
    76   118   117    1
    77   118   119    1
    78    38    40   ar
    79    74    70   am
    80   113   112    2
    81   117   112   am
    82   114   115    1
    83   114   111    1
    84    41    40   ar
    85   101   102    1
    86   101   100    1
    87   112   111    1
    88    71    70    2
    89   119   120    2
    90    46    47    1
    91    70    69    1
    92   111   110    1
    93    99   100    1
    94    99    96    1
    95   110   106   am
    96    72    69    1
    97    72    73    1
    98    94    93    1
    99    95    96    1
   100    69    68    1
   101   109   108    1
   102    96    97    1
   103   106   105    1
   104   106   107    2
   105    97    98    2
   106   105   108    1
   107   105   104    1
   108    93    92    1
   109    92    91    1
   110    91    90    1
   111    90    87    1
   112    87    88    1
   113    87    86    1
   114    88    89    2
