@<TRIPOS>MOLECULE
tmp/5hwhA00.pdb
 82 76 0 0 0
SMALL
GASTEIGER

@<TRIPOS>ATOM
      1  N         20.6700   18.1790   13.8310 N.3    10  ASP10      -0.1239
      2  CA        22.0940   18.4160   13.5920 C.3    10  ASP10       0.1674
      3  C         22.6930   19.5710   14.3940 C.2    10  ASP10       0.2266
      4  O         23.5320   20.3100   13.8830 O.2    10  ASP10      -0.2867
      5  CB        22.3560   18.6560   12.0890 C.3    10  ASP10       0.1410
      6  CG        22.0510   17.4320   11.2260 C.2    10  ASP10       0.3668
      7  OD1       21.6770   16.3780   11.7820 O.co2  10  ASP10      -0.2456
      8  OD2       22.1890   17.5220    9.9790 O.co2  10  ASP10      -0.2456
      9  N         29.1020   21.1460   13.6160 N.3    15  VAL15      -0.1245
     10  CA        28.2410   21.7800   12.6150 C.3    15  VAL15       0.1561
     11  C         28.0190   23.2690   12.8910 C.2    15  VAL15       0.2260
     12  O         28.0630   24.0960   11.9720 O.2    15  VAL15      -0.2867
     13  CB        26.8780   21.0560   12.5340 C.3    15  VAL15       0.0252
     14  CG1       25.9100   21.7950   11.5870 C.3    15  VAL15       0.0019
     15  CG2       27.0700   19.6210   12.0680 C.3    15  VAL15       0.0019
     16  N         23.7940   13.9490   12.3100 N.3    48  HIS48      -0.1241
     17  CA        24.3590   13.6450   10.9940 C.3    48  HIS48       0.1621
     18  C         25.6380   12.8200   11.1710 C.2    48  HIS48       0.2264
     19  O         26.6520   13.3430   11.6260 O.2    48  HIS48      -0.2867
     20  CB        24.6590   14.9440   10.2320 C.3    48  HIS48       0.0745
     21  CG        24.9280   14.7520    8.7660 C.ar   48  HIS48       0.0817
     22  ND1       23.9860   14.2440    7.9000 N.ar   48  HIS48      -0.2268
     23  CD2       26.0270   15.0100    8.0180 C.ar   48  HIS48       0.1154
     24  CE1       24.4910   14.1920    6.6800 C.ar   48  HIS48       0.1986
     25  NE2       25.7300   14.6490    6.7230 N.ar   48  HIS48      -0.2212
     26  N         29.3100   13.7740   10.0050 N.3    51  VAL51      -0.1245
     27  CA        30.1260   14.6990   10.7910 C.3    51  VAL51       0.1561
     28  C         31.3350   13.9620   11.4020 C.2    51  VAL51       0.2260
     29  O         32.4060   14.5540   11.6070 O.2    51  VAL51      -0.2867
     30  CB        29.2850   15.3640   11.8860 C.3    51  VAL51       0.0252
     31  CG1       30.1520   16.1720   12.8450 C.3    51  VAL51       0.0019
     32  CG2       28.2320   16.2430   11.2480 C.3    51  VAL51       0.0019
     33  N         21.4720    9.8790   10.7570 N.3    75  LYS75      -0.1245
     34  CA        21.2090    9.9810    9.3250 C.3    75  LYS75       0.1561
     35  C         22.4780   10.1970    8.5340 C.2    75  LYS75       0.2260
     36  O         23.4930   10.5850    9.0880 O.2    75  LYS75      -0.2867
     37  CB        20.2410   11.1290    9.0380 C.3    75  LYS75       0.0271
     38  CG        20.8330   12.5200    9.2740 C.3    75  LYS75       0.0035
     39  CD        19.7700   13.5770    8.9580 C.3    75  LYS75       0.0206
     40  CE        20.2260   14.9810    9.3270 C.3    75  LYS75       0.1093
     41  NZ        21.3090   15.4860    8.4380 N.3    75  LYS75      -0.1314
     42  N         20.8240   14.9010    3.8580 N.3    78  ARG78      -0.1245
     43  CA        20.1640   16.1240    4.3410 C.3    78  ARG78       0.1563
     44  C         18.7570   15.8540    4.8590 C.2    78  ARG78       0.2260
     45  O         18.3300   16.4360    5.8550 O.2    78  ARG78      -0.2867
     46  CB        20.0970   17.1750    3.2280 C.3    78  ARG78       0.0307
     47  CG        21.4400   17.8210    2.9330 C.3    78  ARG78       0.0489
     48  CD        21.3820   18.6510    1.6640 C.3    78  ARG78       0.2205
     49  NE        22.7050   19.1530    1.2890 N.pl3  78  ARG78      -0.0865
     50  CZ        22.9410   19.8690    0.1900 C.cat  78  ARG78       0.5346
     51  NH1       21.9340   20.1960   -0.6190 N.pl3  78  ARG78       0.1354
     52  NH2       24.1770   20.2800   -0.0870 N.pl3  78  ARG78       0.1354
     53  N         20.2530   22.9640   12.6100 N.3   103  ALA103     -0.1231
     54  CA        21.1860   23.4520   11.5890 C.3   103  ALA103      0.1694
     55  C         21.3620   22.3540   10.5420 C.2   103  ALA103      0.2591
     56  O         21.0340   21.1920   10.8130 O.2   103  ALA103     -0.2718
     57  CB        22.5330   23.8390   12.2210 C.3   103  ALA103      0.0304
     58  N         21.8150   22.7020    9.3390 N.am  104  GLN104     -0.1979
     59  CA        21.9360   24.0950    8.9090 C.3   104  GLN104      0.1601
     60  C         20.6590   24.4930    8.1780 C.2   104  GLN104      0.2287
     61  O         20.0330   23.6520    7.5450 O.2   104  GLN104     -0.2864
     62  CB        23.1470   24.2780    7.9930 C.3   104  GLN104      0.0394
     63  CG        24.4790   24.1620    8.7060 C.3   104  GLN104      0.0908
     64  CD        25.6360   23.9890    7.7350 C.2   104  GLN104      0.2608
     65  OE1       26.3820   23.0180    7.8200 O.2   104  GLN104     -0.2717
     66  NE2       25.7790   24.9160    6.8030 N.am  104  GLN104     -0.0878
     67  N         20.3600   23.3290    4.5260 N.3   107  PHE107     -0.1227
     68  CA        20.6560   21.9600    4.1210 C.3   107  PHE107      0.1736
     69  C         19.7710   20.9560    4.8480 C.2   107  PHE107      0.2595
     70  O         18.7000   20.6230    4.3370 O.2   107  PHE107     -0.2718
     71  CB        22.1470   21.6890    4.3230 C.3   107  PHE107      0.0547
     72  CG        23.0350   22.6350    3.5390 C.ar  107  PHE107     -0.0202
     73  CD1       22.9970   22.6510    2.1560 C.ar  107  PHE107     -0.0042
     74  CD2       23.9000   23.4990    4.1910 C.ar  107  PHE107     -0.0042
     75  CE1       23.8050   23.5090    1.4330 C.ar  107  PHE107     -0.0003
     76  CE2       24.7210   24.3580    3.4720 C.ar  107  PHE107     -0.0003
     77  CZ        24.6740   24.3620    2.0910 C.ar  107  PHE107     -0.0000
     78  N         20.1840   20.4740    6.0240 N.am  108  ALA108     -0.1980
     79  CA        19.3620   19.4920    6.7590 C.3   108  ALA108      0.1597
     80  C         18.0030   20.0540    7.1770 C.2   108  ALA108      0.2287
     81  O         16.9830   19.3540    7.1260 O.2   108  ALA108     -0.2864
     82  CB        20.0990   18.9800    8.0070 C.3   108  ALA108      0.0319
@<TRIPOS>BOND
     1    51    50    1
     2    52    50    1
     3    50    49    2
     4    49    48    1
     5    75    77   ar
     6    75    73   ar
     7    48    47    1
     8    77    76   ar
     9    73    72   ar
    10    47    46    1
    11    46    43    1
    12    76    74   ar
    13    72    74   ar
    14    72    71    1
    15    42    43    1
    16    68    71    1
    17    68    67    1
    18    68    69    1
    19    70    69    2
    20    43    44    1
    21    69    78   am
    22    44    45    2
    23    78    79    1
    24    24    25   ar
    25    24    22   ar
    26    25    23   ar
    27    79    80    1
    28    79    82    1
    29    66    64   am
    30    81    80    2
    31    61    60    2
    32    64    65    2
    33    64    63    1
    34    22    21   ar
    35    62    63    1
    36    62    59    1
    37    23    21   ar
    38    60    59    1
    39    41    40    1
    40    35    36    2
    41    35    34    1
    42    21    20    1
    43    59    58    1
    44    39    38    1
    45    39    40    1
    46    37    38    1
    47    37    34    1
    48    34    33    1
    49    58    55   am
    50     8     6   ar
    51    26    27    1
    52    20    17    1
    53    55    56    2
    54    55    54    1
    55    27    28    1
    56    27    30    1
    57    17    18    1
    58    17    16    1
    59    18    19    2
    60     6     7   ar
    61     6     5    1
    62    32    30    1
    63    28    29    2
    64    14    13    1
    65    54    57    1
    66    54    53    1
    67    30    31    1
    68    12    11    2
    69    15    13    1
    70     5     2    1
    71    13    10    1
    72    10    11    1
    73    10     9    1
    74     2     1    1
    75     2     3    1
    76     4     3    2
