@<TRIPOS>MOLECULE
tmp/5hwiA00.pdb
 110 108 0 0 0
SMALL
GASTEIGER

@<TRIPOS>ATOM
      1  N         27.7810   49.7500   14.6470 N.3     7  LEU7       -0.1231
      2  CA        27.1990   50.5350   15.7350 C.3     7  LEU7        0.1693
      3  C         25.9360   51.2130   15.2080 C.2     7  LEU7        0.2593
      4  O         25.9790   51.8290   14.1340 O.2     7  LEU7       -0.2718
      5  CB        28.2040   51.6280   16.1320 C.3     7  LEU7        0.0284
      6  CG        27.7300   52.6340   17.1690 C.3     7  LEU7        0.0019
      7  CD1       27.4000   51.9220   18.4750 C.3     7  LEU7        0.0001
      8  CD2       28.8410   53.7390   17.3270 C.3     7  LEU7        0.0001
      9  N         24.8440   51.1020   15.9410 N.am    8  GLY8       -0.1942
     10  CA        23.6180   51.8710   15.6350 C.3     8  GLY8        0.2014
     11  C         23.3770   52.8830   16.7350 C.2     8  GLY8        0.2639
     12  O         23.4940   52.5660   17.9290 O.2     8  GLY8       -0.2714
     13  N         23.0470   54.1130   16.3350 N.am    9  TYR9       -0.1959
     14  CA        22.7220   55.1370   17.3150 C.3     9  TYR9        0.1771
     15  C         21.4120   55.8310   16.9730 C.2     9  TYR9        0.2620
     16  O         20.9860   56.6800   17.7520 O.2     9  TYR9       -0.2715
     17  CB        23.8440   56.1910   17.4110 C.3     9  TYR9        0.0574
     18  CG        24.1370   56.8240   16.0940 C.ar    9  TYR9       -0.0198
     19  CD1       23.4030   57.9630   15.6650 C.ar    9  TYR9       -0.0009
     20  CD2       25.1080   56.2910   15.2340 C.ar    9  TYR9       -0.0009
     21  CE1       23.6530   58.5440   14.4200 C.ar    9  TYR9        0.0417
     22  CE2       25.3420   56.8550   13.9780 C.ar    9  TYR9        0.0417
     23  CZ        24.6110   57.9900   13.5910 C.ar    9  TYR9        0.1957
     24  OH        24.8600   58.5460   12.3690 O.3     9  TYR9       -0.2866
     25  N         20.8190   55.5440   15.8240 N.am   10  GLY10      -0.1940
     26  CA        19.5180   56.1150   15.4650 C.3    10  GLY10       0.2014
     27  C         18.5880   54.9670   15.1550 C.2    10  GLY10       0.2640
     28  O         18.3950   54.0860   16.0160 O.2    10  GLY10      -0.2714
     29  N         18.0080   54.9350   13.9460 N.am   11  SER11      -0.1935
     30  CA        16.9910   53.9210   13.6600 C.3    11  SER11       0.2055
     31  C         17.5900   52.5200   13.6500 C.2    11  SER11       0.2642
     32  O         16.8500   51.5460   13.8440 O.2    11  SER11      -0.2714
     33  CB        16.2830   54.1750   12.3320 C.3    11  SER11       0.2130
     34  OG        17.1120   54.0040   11.2140 O.3    11  SER11      -0.2179
     35  N         18.9190   52.3900   13.5110 N.am   12  LEU12      -0.1977
     36  CA        19.4500   51.0280   13.6240 C.3    12  LEU12       0.1596
     37  C         19.2930   50.4280   15.0230 C.2    12  LEU12       0.2287
     38  O         19.3760   49.1960   15.1560 O.2    12  LEU12      -0.2864
     39  CB        20.9470   50.9720   13.2710 C.3    12  LEU12       0.0297
     40  CG        21.2790   51.0800   11.7950 C.3    12  LEU12       0.0022
     41  CD1       22.8130   51.3380   11.5420 C.3    12  LEU12       0.0001
     42  CD2       20.8110   49.7850   11.0790 C.3    12  LEU12       0.0001
     43  N         16.8720   63.5900   10.6900 N.3    51  VAL51      -0.1231
     44  CA        17.2550   62.3040   11.2630 C.3    51  VAL51       0.1692
     45  C         18.6300   62.4650   11.9380 C.2    51  VAL51       0.2591
     46  O         19.2440   63.5480   11.9400 O.2    51  VAL51      -0.2718
     47  CB        17.2530   61.1890   10.2030 C.3    51  VAL51       0.0266
     48  CG1       15.7830   60.9250    9.7150 C.3    51  VAL51       0.0020
     49  CG2       18.1690   61.5380    9.0210 C.3    51  VAL51       0.0020
     50  N         19.0830   61.3740   12.5940 N.am   52  ALA52      -0.1980
     51  CA        20.1880   61.4780   13.5490 C.3    52  ALA52       0.1597
     52  C         21.5260   61.3630   12.8680 C.2    52  ALA52       0.2287
     53  O         21.6970   60.5650   11.9260 O.2    52  ALA52      -0.2864
     54  CB        20.0850   60.3530   14.5930 C.3    52  ALA52       0.0319
     55  N         20.6530   51.5780    2.6100 N.3   109  ARG109     -0.1231
     56  CA        19.7910   52.1640    3.6280 C.3   109  ARG109      0.1694
     57  C         20.2730   53.5560    4.0660 C.2   109  ARG109      0.2591
     58  O         19.4530   54.4680    4.2790 O.2   109  ARG109     -0.2718
     59  CB        19.7140   51.2140    4.8200 C.3   109  ARG109      0.0321
     60  CG        18.7670   51.7020    5.9010 C.3   109  ARG109      0.0489
     61  CD        18.5570   50.6270    6.9440 C.3   109  ARG109      0.2205
     62  NE        18.1560   51.2070    8.2150 N.pl3 109  ARG109     -0.0865
     63  CZ        17.7200   50.4970    9.2450 C.cat 109  ARG109      0.5346
     64  NH1       17.6330   49.1640    9.1300 N.pl3 109  ARG109      0.1354
     65  NH2       17.3920   51.1190   10.3830 N.pl3 109  ARG109      0.1354
     66  N         21.5940   53.7460    4.2000 N.am  110  GLU110     -0.1979
     67  CA        22.1710   55.0170    4.6320 C.3   110  GLU110      0.1602
     68  C         22.7350   55.8540    3.4690 C.2   110  GLU110      0.2287
     69  O         23.7120   56.6060    3.6510 O.2   110  GLU110     -0.2864
     70  CB        23.2690   54.7910    5.6800 C.3   110  GLU110      0.0415
     71  CG        22.9750   53.7730    6.8200 C.3   110  GLU110      0.1163
     72  CD        21.9290   54.2250    7.8210 C.2   110  GLU110      0.3649
     73  OE1       21.6620   55.4550    7.9580 O.co2 110  GLU110     -0.2457
     74  OE2       21.3470   53.3230    8.4440 O.co2 110  GLU110     -0.2457
     75  N         25.4760   59.6950    4.4360 N.3   114  TYR114     -0.1241
     76  CA        26.2690   59.1080    5.5070 C.3   114  TYR114      0.1605
     77  C         27.5060   58.4720    4.9150 C.2   114  TYR114      0.2264
     78  O         27.4690   57.9280    3.8080 O.2   114  TYR114     -0.2867
     79  CB        25.4970   58.0390    6.2710 C.3   114  TYR114      0.0534
     80  CG        24.3680   58.5720    7.0940 C.ar  114  TYR114     -0.0201
     81  CD1       23.1430   58.9210    6.5030 C.ar  114  TYR114     -0.0009
     82  CD2       24.5000   58.6850    8.4610 C.ar  114  TYR114     -0.0009
     83  CE1       22.0820   59.3830    7.2770 C.ar  114  TYR114      0.0417
     84  CE2       23.4780   59.1460    9.2380 C.ar  114  TYR114      0.0417
     85  CZ        22.2610   59.5180    8.6310 C.ar  114  TYR114      0.1957
     86  OH        21.2220   59.9760    9.4150 O.3   114  TYR114     -0.2866
     87  N         27.8950   54.5250   10.6430 N.3   155  TYR155     -0.1241
     88  CA        27.5190   55.4720    9.5890 C.3   155  TYR155      0.1605
     89  C         27.2810   56.8600   10.1790 C.2   155  TYR155      0.2264
     90  O         26.4720   57.0150   11.0920 O.2   155  TYR155     -0.2867
     91  CB        26.2460   55.0250    8.8580 C.3   155  TYR155      0.0534
     92  CG        26.4980   53.7950    8.0220 C.ar  155  TYR155     -0.0201
     93  CD1       26.3360   52.5300    8.5710 C.ar  155  TYR155     -0.0009
     94  CD2       26.8920   53.9090    6.7060 C.ar  155  TYR155     -0.0009
     95  CE1       26.6000   51.3900    7.7880 C.ar  155  TYR155      0.0417
     96  CE2       27.1370   52.8110    5.9240 C.ar  155  TYR155      0.0417
     97  CZ        26.9940   51.5470    6.4820 C.ar  155  TYR155      0.1957
     98  OH        27.2530   50.4420    5.6820 O.3   155  TYR155     -0.2866
     99  N         10.1060   58.3720   13.8890 N.3   189  TYR189     -0.1241
    100  CA        11.5240   58.0880   13.9530 C.3   189  TYR189      0.1605
    101  C         12.1090   58.5790   15.2640 C.2   189  TYR189      0.2264
    102  O         12.8090   57.8280   15.9410 O.2   189  TYR189     -0.2867
    103  CB        12.2360   58.7170   12.7330 C.3   189  TYR189      0.0534
    104  CG        13.7400   58.6270   12.7310 C.ar  189  TYR189     -0.0201
    105  CD1       14.5280   59.4680   13.5190 C.ar  189  TYR189     -0.0009
    106  CD2       14.4010   57.7440   11.8860 C.ar  189  TYR189     -0.0009
    107  CE1       15.9590   59.4000   13.4500 C.ar  189  TYR189      0.0417
    108  CE2       15.7700   57.6760   11.8320 C.ar  189  TYR189      0.0417
    109  CZ        16.5440   58.5030   12.6150 C.ar  189  TYR189      0.1957
    110  OH        17.9330   58.4750   12.5820 O.3   189  TYR189     -0.2866
@<TRIPOS>BOND
     1    55    56    1
     2    68    69    2
     3    68    67    1
     4    56    57    1
     5    56    59    1
     6    78    77    2
     7    57    66   am
     8    57    58    2
     9    66    67    1
    10    75    76    1
    11    67    70    1
    12    59    60    1
    13    77    76    1
    14    76    79    1
    15    70    71    1
    16    98    97    1
    17    60    61    1
    18    96    97   ar
    19    96    94   ar
    20    79    80    1
    21    97    95   ar
    22    81    80   ar
    23    81    83   ar
    24    94    92   ar
    25    71    72    1
    26    61    62    1
    27    80    82   ar
    28    83    85   ar
    29    95    93   ar
    30    72    73   ar
    31    72    74   ar
    32    92    93   ar
    33    92    91    1
    34    62    63    2
    35    82    84   ar
    36    85    84   ar
    37    85    86    1
    38    91    88    1
    39    49    47    1
    40    64    63    1
    41    63    65    1
    42    88    89    1
    43    88    87    1
    44    48    47    1
    45    89    90    2
    46    47    44    1
    47    43    44    1
    48    42    40    1
    49    34    33    1
    50    44    45    1
    51    41    40    1
    52    40    39    1
    53   108   106   ar
    54   108   109   ar
    55   106   104   ar
    56    53    52    2
    57    45    46    2
    58    45    50   am
    59    33    30    1
    60    24    23    1
    61   110   109    1
    62    50    51    1
    63   109   107   ar
    64   104   103    1
    65   104   105   ar
    66   103   100    1
    67    52    51    1
    68    39    36    1
    69   107   105   ar
    70    35    36    1
    71    35    31   am
    72    51    54    1
    73    23    22   ar
    74    23    21   ar
    75    36    37    1
    76    31    30    1
    77    31    32    2
    78    30    29    1
    79    99   100    1
    80    29    27   am
    81   100   101    1
    82    22    20   ar
    83     4     3    2
    84    21    19   ar
    85     1     2    1
    86    37    38    2
    87    27    26    1
    88    27    28    2
    89     3     2    1
    90     3     9   am
    91    20    18   ar
    92   101   102    2
    93    26    25    1
    94    10     9    1
    95    10    11    1
    96    19    18   ar
    97     2     5    1
    98    25    15   am
    99    18    17    1
   100     5     6    1
   101    13    11   am
   102    13    14    1
   103    11    12    2
   104    15    14    1
   105    15    16    2
   106     6     8    1
   107     6     7    1
   108    14    17    1
