@<TRIPOS>MOLECULE
tmp/5hwkB00.pdb
 118 115 0 0 0
SMALL
GASTEIGER

@<TRIPOS>ATOM
      1  N        -61.9630   -8.7440  -67.7350 N.3     6  LEU6       -0.1231
      2  CA       -61.4880   -8.1350  -66.5000 C.3     6  LEU6        0.1693
      3  C        -60.9770   -9.2090  -65.5580 C.2     6  LEU6        0.2593
      4  O        -61.5770  -10.2840  -65.4620 O.2     6  LEU6       -0.2718
      5  CB       -62.6460   -7.4370  -65.7860 C.3     6  LEU6        0.0284
      6  CG       -63.1990   -6.1780  -66.4150 C.3     6  LEU6        0.0019
      7  CD1      -64.3010   -5.6530  -65.4870 C.3     6  LEU6        0.0001
      8  CD2      -62.0780   -5.1650  -66.6330 C.3     6  LEU6        0.0001
      9  N        -59.8600   -8.9150  -64.8970 N.am    7  GLY7       -0.1942
     10  CA       -59.4230   -9.7430  -63.7880 C.3     7  GLY7        0.2014
     11  C        -59.3520   -8.8880  -62.5510 C.2     7  GLY7        0.2639
     12  O        -58.7350   -7.8070  -62.5630 O.2     7  GLY7       -0.2714
     13  N        -59.9680   -9.3680  -61.4700 N.am    8  TYR8       -0.1959
     14  CA       -59.9010   -8.6770  -60.1890 C.3     8  TYR8        0.1771
     15  C        -59.5370   -9.6070  -59.0450 C.2     8  TYR8        0.2620
     16  O        -59.4070   -9.1360  -57.9090 O.2     8  TYR8       -0.2715
     17  CB       -61.2310   -7.9720  -59.8590 C.3     8  TYR8        0.0574
     18  CG       -62.3720   -8.9250  -59.7450 C.ar    8  TYR8       -0.0198
     19  CD1      -62.6750   -9.5370  -58.5300 C.ar    8  TYR8       -0.0009
     20  CD2      -63.1220   -9.2640  -60.8550 C.ar    8  TYR8       -0.0009
     21  CE1      -63.6830  -10.4700  -58.4310 C.ar    8  TYR8        0.0417
     22  CE2      -64.1800  -10.1620  -60.7560 C.ar    8  TYR8        0.0417
     23  CZ       -64.4710  -10.7530  -59.5340 C.ar    8  TYR8        0.1957
     24  OH       -65.4900  -11.6730  -59.3760 O.3     8  TYR8       -0.2866
     25  N        -59.3670  -10.8990  -59.3100 N.am    9  GLY9       -0.1940
     26  CA       -59.0240  -11.8820  -58.3040 C.3     9  GLY9        0.2014
     27  C        -57.8690  -12.7030  -58.8220 C.2     9  GLY9        0.2640
     28  O        -56.8290  -12.1500  -59.2320 O.2     9  GLY9       -0.2714
     29  N        -58.0320  -14.0300  -58.8360 N.am   10  SER10      -0.1935
     30  CA       -56.9330  -14.8680  -59.2430 C.3    10  SER10       0.2055
     31  C        -56.5690  -14.7170  -60.6950 C.2    10  SER10       0.2642
     32  O        -55.4590  -15.1160  -61.0450 O.2    10  SER10      -0.2714
     33  CB       -57.1650  -16.3490  -58.9660 C.3    10  SER10       0.2130
     34  OG       -58.2590  -16.8270  -59.7020 O.3    10  SER10      -0.2179
     35  N        -57.4460  -14.1810  -61.5640 N.am   11  LEU11      -0.1977
     36  CA       -56.9710  -13.9740  -62.9500 C.3    11  LEU11       0.1596
     37  C        -55.8570  -12.9540  -63.0270 C.2    11  LEU11       0.2287
     38  O        -55.1410  -12.9310  -64.0290 O.2    11  LEU11      -0.2864
     39  CB       -58.1090  -13.4920  -63.8670 C.3    11  LEU11       0.0297
     40  CG       -59.1350  -14.5850  -64.2270 C.3    11  LEU11       0.0022
     41  CD1      -60.4130  -13.9830  -64.8520 C.3    11  LEU11       0.0001
     42  CD2      -58.5790  -15.6620  -65.1390 C.3    11  LEU11       0.0001
     43  N        -62.7870  -13.4550  -53.7130 N.3    52  ALA52      -0.1245
     44  CA       -63.2120  -12.1450  -54.1710 C.3    52  ALA52       0.1562
     45  C        -64.4250  -12.1660  -55.0970 C.2    52  ALA52       0.2260
     46  O        -64.5570  -13.0210  -55.9740 O.2    52  ALA52      -0.2867
     47  CB       -62.0710  -11.4620  -54.9360 C.3    52  ALA52       0.0290
     48  N        -63.0850  -20.5780  -65.3920 N.3   106  LEU106     -0.1245
     49  CA       -63.1710  -20.8730  -63.9650 C.3   106  LEU106      0.1561
     50  C        -62.9250  -22.3420  -63.6370 C.2   106  LEU106      0.2260
     51  O        -62.8860  -22.6880  -62.4410 O.2   106  LEU106     -0.2867
     52  CB       -64.5040  -20.4090  -63.3740 C.3   106  LEU106      0.0270
     53  CG       -64.7660  -18.8870  -63.5310 C.3   106  LEU106      0.0019
     54  CD1      -65.8590  -18.4740  -62.6130 C.3   106  LEU106      0.0001
     55  CD2      -63.5120  -18.0680  -63.2390 C.3   106  LEU106      0.0001
     56  N        -60.1110  -22.6660  -61.1660 N.3   109  ARG109     -0.1231
     57  CA       -60.0350  -21.7030  -60.0750 C.3   109  ARG109      0.1694
     58  C        -61.3740  -21.6610  -59.3250 C.2   109  ARG109      0.2591
     59  O        -62.1860  -22.5880  -59.4110 O.2   109  ARG109     -0.2718
     60  CB       -59.5300  -20.3420  -60.5660 C.3   109  ARG109      0.0321
     61  CG       -60.4660  -19.7160  -61.5570 C.3   109  ARG109      0.0489
     62  CD       -59.8230  -18.4790  -62.2220 C.3   109  ARG109      0.2205
     63  NE       -58.8930  -18.8320  -63.2960 N.pl3 109  ARG109     -0.0865
     64  CZ       -57.6310  -18.4290  -63.3450 C.cat 109  ARG109      0.5346
     65  NH1      -57.1320  -17.6850  -62.3550 N.pl3 109  ARG109      0.1354
     66  NH2      -56.8990  -18.7580  -64.3950 N.pl3 109  ARG109      0.1354
     67  N        -61.5710  -20.6080  -58.5340 N.am  110  GLU110     -0.1979
     68  CA       -62.8120  -20.4060  -57.8030 C.3   110  GLU110      0.1602
     69  C        -63.9460  -20.3220  -58.8080 C.2   110  GLU110      0.2287
     70  O        -63.8280  -19.6590  -59.8560 O.2   110  GLU110     -0.2864
     71  CB       -62.7140  -19.0960  -57.0430 C.3   110  GLU110      0.0415
     72  CG       -61.4040  -19.0240  -56.2070 C.3   110  GLU110      0.1163
     73  CD       -60.1420  -18.6390  -57.0140 C.2   110  GLU110      0.3649
     74  OE1      -60.1600  -17.9280  -58.0540 O.co2 110  GLU110     -0.2457
     75  OE2      -59.0490  -19.0360  -56.5860 O.co2 110  GLU110     -0.2457
     76  N        -70.2820  -18.3140  -59.5140 N.3   114  TYR114     -0.1241
     77  CA       -69.8780  -17.2050  -60.3680 C.3   114  TYR114      0.1605
     78  C        -70.6330  -17.3160  -61.6770 C.2   114  TYR114      0.2264
     79  O        -70.8290  -18.4190  -62.1970 O.2   114  TYR114     -0.2867
     80  CB       -68.3640  -17.2440  -60.6540 C.3   114  TYR114      0.0534
     81  CG       -67.5320  -16.8110  -59.4840 C.ar  114  TYR114     -0.0201
     82  CD1      -67.0920  -17.7380  -58.5350 C.ar  114  TYR114     -0.0009
     83  CD2      -67.1620  -15.4810  -59.3330 C.ar  114  TYR114     -0.0009
     84  CE1      -66.2870  -17.3410  -57.4570 C.ar  114  TYR114      0.0417
     85  CE2      -66.3730  -15.0780  -58.2600 C.ar  114  TYR114      0.0417
     86  CZ       -65.9350  -16.0130  -57.3150 C.ar  114  TYR114      0.1957
     87  OH       -65.1580  -15.6430  -56.2410 O.3   114  TYR114     -0.2866
     88  N        -66.6410  -10.2640  -67.5640 N.3   155  VAL155     -0.1231
     89  CA       -66.1630  -10.4220  -66.1850 C.3   155  VAL155      0.1692
     90  C        -66.9630  -11.5320  -65.5050 C.2   155  VAL155      0.2592
     91  O        -68.1360  -11.7190  -65.7810 O.2   155  VAL155     -0.2718
     92  CB       -66.2980   -9.0740  -65.4460 C.3   155  VAL155      0.0266
     93  CG1      -67.7330   -8.5690  -65.3900 C.3   155  VAL155      0.0020
     94  CG2      -65.6460   -9.1090  -64.0870 C.3   155  VAL155      0.0020
     95  N        -66.3070  -12.3110  -64.6300 N.am  156  TYR156     -0.1976
     96  CA       -67.0150  -13.3030  -63.8050 C.3   156  TYR156      0.1639
     97  C        -67.2640  -12.7050  -62.4340 C.2   156  TYR156      0.2290
     98  O        -66.3260  -12.2290  -61.7900 O.2   156  TYR156     -0.2864
     99  CB       -66.1640  -14.5720  -63.6360 C.3   156  TYR156      0.0560
    100  CG       -66.2320  -15.5510  -64.7830 C.ar  156  TYR156     -0.0198
    101  CD1      -67.3220  -16.4190  -64.9230 C.ar  156  TYR156     -0.0009
    102  CD2      -65.2090  -15.6090  -65.7250 C.ar  156  TYR156     -0.0009
    103  CE1      -67.3840  -17.3530  -65.9670 C.ar  156  TYR156      0.0417
    104  CE2      -65.2700  -16.5180  -66.7960 C.ar  156  TYR156      0.0417
    105  CZ       -66.3590  -17.3790  -66.9060 C.ar  156  TYR156      0.1957
    106  OH       -66.4420  -18.3180  -67.9060 O.3   156  TYR156     -0.2866
    107  N        -54.3690  -17.0720  -50.6280 N.3   191  TYR191     -0.1241
    108  CA       -55.1230  -16.4170  -51.6770 C.3   191  TYR191      0.1605
    109  C        -55.1120  -14.9000  -51.4790 C.2   191  TYR191      0.2264
    110  O        -54.8760  -14.1300  -52.4300 O.2   191  TYR191     -0.2867
    111  CB       -56.5530  -16.9740  -51.6300 C.3   191  TYR191      0.0534
    112  CG       -57.5180  -16.3100  -52.5650 C.ar  191  TYR191     -0.0201
    113  CD1      -58.2440  -15.1770  -52.1530 C.ar  191  TYR191     -0.0009
    114  CD2      -57.7750  -16.8350  -53.8460 C.ar  191  TYR191     -0.0009
    115  CE1      -59.1700  -14.5650  -52.9890 C.ar  191  TYR191      0.0417
    116  CE2      -58.7240  -16.2200  -54.7130 C.ar  191  TYR191      0.0417
    117  CZ       -59.3990  -15.0730  -54.2880 C.ar  191  TYR191      0.1957
    118  OH       -60.3360  -14.4600  -55.0870 O.3   191  TYR191     -0.2866
@<TRIPOS>BOND
     1   106   105    1
     2     1     2    1
     3    88    89    1
     4   105   104   ar
     5   105   103   ar
     6   104   102   ar
     7     8     6    1
     8     2     5    1
     9     2     3    1
    10     6     5    1
    11     6     7    1
    12    89    90    1
    13    89    92    1
    14   103   101   ar
    15    91    90    2
    16   102   100   ar
    17     3     4    2
    18     3     9   am
    19    90    95   am
    20    92    93    1
    21    92    94    1
    22    48    49    1
    23    42    40    1
    24   101   100   ar
    25     9    10    1
    26    41    40    1
    27   100    99    1
    28    95    96    1
    29    66    64    1
    30    40    39    1
    31    38    37    2
    32    49    50    1
    33    49    52    1
    34    39    36    1
    35    96    99    1
    36    96    97    1
    37    10    11    1
    38    50    51    2
    39    53    52    1
    40    53    55    1
    41    53    54    1
    42    64    63    2
    43    64    65    1
    44    63    62    1
    45    37    36    1
    46    36    35    1
    47    12    11    2
    48    11    13   am
    49    97    98    2
    50    62    61    1
    51    79    78    2
    52    78    77    1
    53    35    31   am
    54    61    60    1
    55    13    14    1
    56    56    57    1
    57    32    31    2
    58    20    22   ar
    59    20    18   ar
    60    22    23   ar
    61    31    30    1
    62    80    77    1
    63    80    81    1
    64    60    57    1
    65    77    76    1
    66    14    17    1
    67    14    15    1
    68    57    58    1
    69    17    18    1
    70    70    69    2
    71    18    19   ar
    72    34    33    1
    73    23    24    1
    74    23    21   ar
    75    81    83   ar
    76    81    82   ar
    77    59    58    2
    78    83    85   ar
    79    58    67   am
    80    25    15   am
    81    25    26    1
    82    30    33    1
    83    30    29    1
    84    28    27    2
    85    15    16    2
    86    29    27   am
    87    27    26    1
    88    69    68    1
    89    82    84   ar
    90    67    68    1
    91    19    21   ar
    92    85    86   ar
    93    74    73   ar
    94    68    71    1
    95    84    86   ar
    96    86    87    1
    97    71    72    1
    98    73    75   ar
    99    73    72    1
   100    46    45    2
   101    45    44    1
   102   118   117    1
   103    47    44    1
   104   116   117   ar
   105   116   114   ar
   106   117   115   ar
   107    44    43    1
   108   114   112   ar
   109   115   113   ar
   110   112   113   ar
   111   112   111    1
   112   110   109    2
   113   108   111    1
   114   108   109    1
   115   108   107    1
