@<TRIPOS>MOLECULE
tmp/5hwlB00.pdb
 153 148 0 0 0
SMALL
GASTEIGER

@<TRIPOS>ATOM
      1  N         26.3600   -2.2800   10.6070 N.3     5  TYR5       -0.1227
      2  CA        25.2670   -3.1360   10.6810 C.3     5  TYR5        0.1736
      3  C         25.4920   -4.4640    9.8820 C.2     5  TYR5        0.2595
      4  O         26.4170   -4.5500    9.1700 O.2     5  TYR5       -0.2718
      5  CB        23.9620   -2.5010   10.2630 C.3     5  TYR5        0.0548
      6  CG        22.6590   -3.2440   10.7130 C.ar    5  TYR5       -0.0200
      7  CD1       22.3600   -3.4920   12.0090 C.ar    5  TYR5       -0.0009
      8  CD2       21.7610   -3.7040    9.7960 C.ar    5  TYR5       -0.0009
      9  CE1       21.2390   -4.1500   12.4330 C.ar    5  TYR5        0.0417
     10  CE2       20.6450   -4.4330   10.1630 C.ar    5  TYR5        0.0417
     11  CZ        20.3280   -4.5880   11.5320 C.ar    5  TYR5        0.1957
     12  OH        19.2840   -5.2180   11.9520 O.3     5  TYR5       -0.2866
     13  N         24.6380   -5.3760   10.1100 N.am    6  TRP6       -0.1976
     14  CA        24.5590   -6.5470    9.3930 C.3     6  TRP6        0.1640
     15  C         24.1890   -6.1830    7.9140 C.2     6  TRP6        0.2290
     16  O         23.6520   -5.2080    7.6340 O.2     6  TRP6       -0.2864
     17  CB        23.5520   -7.5030    9.9500 C.3     6  TRP6        0.0576
     18  CG        23.7750   -8.0310   11.3270 C.ar    6  TRP6        0.0006
     19  CD1       23.0350   -7.8250   12.4000 C.ar    6  TRP6        0.0946
     20  CD2       24.8260   -8.8580   11.7310 C.ar    6  TRP6        0.0152
     21  NE1       23.5470   -8.4150   13.4460 N.ar    6  TRP6       -0.2442
     22  CE2       24.6740   -9.0730   13.0500 C.ar    6  TRP6        0.0810
     23  CE3       25.9330   -9.4260   11.0800 C.ar    6  TRP6        0.0012
     24  CZ2       25.5200   -9.8750   13.7300 C.ar    6  TRP6        0.0191
     25  CZ3       26.7970  -10.2200   11.8110 C.ar    6  TRP6        0.0001
     26  CH2       26.5780  -10.4420   13.0760 C.ar    6  TRP6        0.0015
     27  N         21.9410   -6.5990    5.8710 N.3     8  ILE8       -0.1245
     28  CA        20.5220   -6.8730    5.6430 C.3     8  ILE8        0.1561
     29  C         19.7780   -5.5740    5.8720 C.2     8  ILE8        0.2260
     30  O         20.3560   -4.6770    6.2190 O.2     8  ILE8       -0.2867
     31  CB        19.9950   -7.8680    6.6530 C.3     8  ILE8        0.0252
     32  CG1       20.1060   -7.2810    8.0500 C.3     8  ILE8        0.0019
     33  CG2       20.7970   -9.1260    6.5690 C.3     8  ILE8        0.0019
     34  CD1       19.3960   -8.0120    9.0800 C.3     8  ILE8        0.0001
     35  N         16.8190   -4.9320    8.0910 N.3    10  GLY10      -0.1210
     36  CA        16.6410   -4.8890    9.4990 C.3    10  GLY10       0.1956
     37  C         16.4810   -3.4810   10.0840 C.2    10  GLY10       0.2611
     38  O         15.8010   -2.7110    9.5830 O.2    10  GLY10      -0.2717
     39  N         17.1560   -3.2530   11.1830 N.am   11  LEU11      -0.1979
     40  CA        17.0700   -2.0360   11.9510 C.3    11  LEU11       0.1596
     41  C         17.8250   -0.8740   11.3600 C.2    11  LEU11       0.2287
     42  O         17.7910    0.0990   11.8730 O.2    11  LEU11      -0.2864
     43  CB        17.5650   -2.2220   13.4630 C.3    11  LEU11       0.0297
     44  CG        16.5220   -2.9990   14.2810 C.3    11  LEU11       0.0022
     45  CD1       17.1040   -3.4920   15.5760 C.3    11  LEU11       0.0001
     46  CD2       15.3880   -2.0340   14.6230 C.3    11  LEU11       0.0001
     47  N         24.7310   -3.5850   17.1610 N.3    58  LEU58      -0.1245
     48  CA        24.4740   -3.3290   15.8050 C.3    58  LEU58       0.1561
     49  C         22.9790   -2.9460   15.7480 C.2    58  LEU58       0.2260
     50  O         22.2030   -3.6150   16.1810 O.2    58  LEU58      -0.2867
     51  CB        24.6740   -4.5470   14.9330 C.3    58  LEU58       0.0270
     52  CG        26.0920   -5.0230   14.8700 C.3    58  LEU58       0.0019
     53  CD1       26.1820   -6.3370   14.1590 C.3    58  LEU58       0.0001
     54  CD2       26.9100   -3.9760   14.1760 C.3    58  LEU58       0.0001
     55  N          7.9710    0.6480   17.0800 N.3   103  MET103     -0.1230
     56  CA         8.9300   -0.2890   17.5870 C.3   103  MET103      0.1702
     57  C          8.1290   -1.5570   18.0130 C.2   103  MET103      0.2592
     58  O          8.5300   -2.5790   17.7470 O.2   103  MET103     -0.2718
     59  CB         9.7990    0.1600   18.7500 C.3   103  MET103      0.0401
     60  CG        10.9060   -0.6980   19.1550 C.3   103  MET103      0.0596
     61  SD        12.0880   -1.1810   17.8540 S.3   103  MET103     -0.1393
     62  CE        13.2410    0.1280   17.9050 C.3   103  MET103      0.0692
     63  N          6.9960   -1.3500   18.6550 N.am  104  ASP104     -0.1974
     64  CA         6.1720   -2.4970   19.0420 C.3   104  ASP104      0.1709
     65  C          5.7770   -3.2760   17.7580 C.2   104  ASP104      0.2293
     66  O          5.7970   -4.3490   17.7550 O.2   104  ASP104     -0.2864
     67  CB         4.9060   -2.0460   19.7380 C.3   104  ASP104      0.1436
     68  CG         5.1270   -1.6690   21.2630 C.2   104  ASP104      0.3671
     69  OD1        6.1270   -1.9810   21.7470 O.co2 104  ASP104     -0.2456
     70  OD2        4.1480   -1.2580   21.7970 O.co2 104  ASP104     -0.2456
     71  N          7.2760   -3.2980   14.8590 N.3   106  ARG106     -0.1231
     72  CA         8.4530   -3.9100   14.2680 C.3   106  ARG106      0.1694
     73  C          8.6820   -5.2460   14.9050 C.2   106  ARG106      0.2592
     74  O          8.8810   -6.1490   14.3610 O.2   106  ARG106     -0.2718
     75  CB         9.6900   -3.0200   14.4440 C.3   106  ARG106      0.0321
     76  CG        10.9640   -3.5020   13.8770 C.3   106  ARG106      0.0489
     77  CD        12.1860   -2.6460   14.2700 C.3   106  ARG106      0.2205
     78  NE        12.0560   -1.3480   13.6660 N.pl3 106  ARG106     -0.0865
     79  CZ        12.2110   -1.1210   12.3980 C.cat 106  ARG106      0.5346
     80  NH1       12.5450   -2.0520   11.5910 N.pl3 106  ARG106      0.1354
     81  NH2       12.0760    0.0560   11.9780 N.pl3 106  ARG106      0.1354
     82  N          8.6510   -5.1910   16.1960 N.am  107  MET107     -0.1965
     83  CA         8.9050   -6.3720   17.0330 C.3   107  MET107      0.1736
     84  C          7.8780   -7.4210   16.9330 C.2   107  MET107      0.2616
     85  O          8.1880   -8.5490   17.0850 O.2   107  MET107     -0.2715
     86  CB         9.1270   -6.0230   18.4900 C.3   107  MET107      0.0427
     87  CG         9.0040   -7.1500   19.4850 C.3   107  MET107      0.0599
     88  SD        10.5600   -8.0690   19.4220 S.3   107  MET107     -0.1393
     89  CE        11.7090   -6.8060   19.3620 C.3   107  MET107      0.0692
     90  N          6.6590   -7.1060   16.7190 N.am  108  GLN108     -0.1977
     91  CA         5.6700   -8.1520   16.5620 C.3   108  GLN108      0.1601
     92  C          5.9900   -8.9310   15.2640 C.2   108  GLN108      0.2287
     93  O          5.9020  -10.0130   15.2580 O.2   108  GLN108     -0.2864
     94  CB         4.2850   -7.7010   16.3480 C.3   108  GLN108      0.0394
     95  CG         3.6400   -7.1680   17.4990 C.3   108  GLN108      0.0908
     96  CD         2.3510   -6.4220   17.1740 C.2   108  GLN108      0.2608
     97  OE1        2.0200   -6.1310   16.0110 O.2   108  GLN108     -0.2717
     98  NE2        1.6910   -6.0080   18.1870 N.am  108  GLN108     -0.0878
     99  N          8.9290   -9.0950   13.7710 N.3   110  ALA110     -0.1231
    100  CA        10.1740   -9.8330   13.9870 C.3   110  ALA110      0.1694
    101  C          9.9410  -11.0820   14.8280 C.2   110  ALA110      0.2591
    102  O         10.4830  -12.1510   14.5200 O.2   110  ALA110     -0.2718
    103  CB        11.2190   -8.9390   14.6590 C.3   110  ALA110      0.0304
    104  N          9.1390  -10.9720   15.8940 N.am  111  LYS111     -0.1980
    105  CA         8.8970  -12.1380   16.7410 C.3   111  LYS111      0.1596
    106  C          8.2380  -13.2550   15.9530 C.2   111  LYS111      0.2287
    107  O          8.5870  -14.4300   16.1160 O.2   111  LYS111     -0.2864
    108  CB         8.0120  -11.7770   17.9380 C.3   111  LYS111      0.0298
    109  CG         8.7410  -11.1090   19.0900 C.3   111  LYS111      0.0038
    110  CD         7.7600  -10.7810   20.2120 C.3   111  LYS111      0.0206
    111  CE         8.4760  -10.5170   21.5270 C.3   111  LYS111      0.1093
    112  NZ         7.6180   -9.7410   22.4720 N.3   111  LYS111     -0.1314
    113  N         10.8950  -14.9310   13.3010 N.3   114  TYR114     -0.1241
    114  CA        11.9370  -15.6700   13.8120 C.3   114  TYR114      0.1605
    115  C         11.3060  -16.8900   14.6350 C.2   114  TYR114      0.2264
    116  O         12.0350  -17.6360   15.1710 O.2   114  TYR114     -0.2867
    117  CB        12.8020  -14.7830   14.7780 C.3   114  TYR114      0.0534
    118  CG        13.8190  -13.9330   14.1190 C.ar  114  TYR114     -0.0201
    119  CD1       13.5060  -12.7960   13.5370 C.ar  114  TYR114     -0.0009
    120  CD2       15.0650  -14.2970   14.0990 C.ar  114  TYR114     -0.0009
    121  CE1       14.4260  -12.0400   12.9350 C.ar  114  TYR114      0.0417
    122  CE2       16.0050  -13.5520   13.5240 C.ar  114  TYR114      0.0417
    123  CZ        15.6620  -12.4070   12.8900 C.ar  114  TYR114      0.1957
    124  OH        16.6460  -11.7370   12.3720 O.3   114  TYR114     -0.2866
    125  N          7.5970   -2.8480    4.9570 N.3   164  ARG164     -0.1245
    126  CA         7.9110   -4.2140    5.1350 C.3   164  ARG164      0.1563
    127  C          6.7000   -5.1300    5.4060 C.2   164  ARG164      0.2260
    128  O          6.7660   -6.2130    5.0910 O.2   164  ARG164     -0.2867
    129  CB         9.0110   -4.4030    6.1520 C.3   164  ARG164      0.0307
    130  CG         8.6730   -4.1680    7.5440 C.3   164  ARG164      0.0489
    131  CD         9.7690   -4.6950    8.5060 C.3   164  ARG164      0.2205
    132  NE        10.9640   -3.9590    8.3220 N.pl3 164  ARG164     -0.0865
    133  CZ        12.1510   -4.2230    8.7780 C.cat 164  ARG164      0.5346
    134  NH1       12.2670   -5.2650    9.5660 N.pl3 164  ARG164      0.1354
    135  NH2       13.1680   -3.3860    8.5020 N.pl3 164  ARG164      0.1354
    136  N         15.4750   -9.6380    7.3730 N.3   207  PHE207     -0.1227
    137  CA        15.9700  -10.1100    8.6320 C.3   207  PHE207      0.1736
    138  C         17.2950  -10.8880    8.5110 C.2   207  PHE207      0.2596
    139  O         17.7640  -11.0790    7.4610 O.2   207  PHE207     -0.2718
    140  CB        14.9310  -10.9960    9.4010 C.3   207  PHE207      0.0547
    141  CG        13.6580  -10.3140    9.7240 C.ar  207  PHE207     -0.0202
    142  CD1       13.6140   -9.1890   10.5690 C.ar  207  PHE207     -0.0042
    143  CD2       12.5170  -10.7270    9.2490 C.ar  207  PHE207     -0.0042
    144  CE1       12.4780   -8.6170   10.8970 C.ar  207  PHE207     -0.0003
    145  CE2       11.4090  -10.1240    9.5540 C.ar  207  PHE207     -0.0003
    146  CZ        11.3540   -9.0270   10.3580 C.ar  207  PHE207     -0.0000
    147  N         17.8060  -11.3270    9.6450 N.am  208  THR208     -0.1953
    148  CA        19.0450  -12.0510    9.7240 C.3   208  THR208      0.1897
    149  C         18.8770  -13.5080    9.2160 C.2   208  THR208      0.2313
    150  O         17.8810  -13.9210    9.1050 O.2   208  THR208     -0.2863
    151  CB        19.6180  -12.0960   11.1210 C.3   208  THR208      0.1794
    152  OG1       18.9160  -12.9750   11.9880 O.3   208  THR208     -0.2208
    153  CG2       19.8950  -10.7600   11.6840 C.3   208  THR208      0.0378
@<TRIPOS>BOND
     1   125   126    1
     2   128   127    2
     3   126   127    1
     4   126   129    1
     5    28    27    1
     6    28    29    1
     7    28    31    1
     8    29    30    2
     9   129   130    1
    10    33    31    1
    11    31    32    1
    12   136   137    1
    13   139   138    2
    14   130   131    1
    15    16    15    2
    16    15    14    1
    17    32    34    1
    18    35    36    1
    19   132   131    1
    20   132   133    2
    21   135   133    1
    22   138   137    1
    23   138   147   am
    24   137   140    1
    25   133   134    1
    26   150   149    2
    27     4     3    2
    28   149   148    1
    29   143   145   ar
    30   143   141   ar
    31    14    17    1
    32    14    13    1
    33   140   141    1
    34    36    37    1
    35   145   146   ar
    36    38    37    2
    37   147   148    1
    38   148   151    1
    39   141   142   ar
    40     8    10   ar
    41     8     6   ar
    42     3    13   am
    43     3     2    1
    44    17    18    1
    45    37    39   am
    46    10    11   ar
    47     5     2    1
    48     5     6    1
    49   146   144   ar
    50   142   144   ar
    51     1     2    1
    52     6     7   ar
    53    23    20   ar
    54    23    25   ar
    55   151   153    1
    56   151   152    1
    57    39    40    1
    58    18    20   ar
    59    18    19   ar
    60    41    42    2
    61    41    40    1
    62    11    12    1
    63    11     9   ar
    64    80    79    1
    65    20    22   ar
    66    25    26   ar
    67    40    43    1
    68    81    79    1
    69     7     9   ar
    70   124   123    1
    71    79    78    2
    72    19    21   ar
    73   123   121   ar
    74   123   122   ar
    75   121   119   ar
    76    22    21   ar
    77    22    24   ar
    78    26    24   ar
    79   113   114    1
    80    43    44    1
    81   122   120   ar
    82   119   118   ar
    83    78    77    1
    84    99   100    1
    85   114   115    1
    86   114   117    1
    87    76    77    1
    88    76    75    1
    89   100   103    1
    90   100   101    1
    91   120   118   ar
    92   118   117    1
    93    53    52    1
    94    54    52    1
    95    72    75    1
    96    72    71    1
    97    72    73    1
    98    44    46    1
    99    44    45    1
   100    74    73    2
   101   102   101    2
   102   115   116    2
   103   101   104   am
   104    52    51    1
   105    73    82   am
   106    51    48    1
   107    93    92    2
   108    92    91    1
   109    49    48    1
   110    49    50    2
   111    48    47    1
   112   104   105    1
   113   106   107    2
   114   106   105    1
   115    97    96    2
   116    82    83    1
   117    94    91    1
   118    94    95    1
   119    91    90    1
   120    90    84   am
   121   105   108    1
   122    84    83    1
   123    84    85    2
   124    83    86    1
   125    55    56    1
   126    96    95    1
   127    96    98   am
   128    56    57    1
   129    56    59    1
   130    58    57    2
   131    66    65    2
   132    65    64    1
   133    61    62    1
   134    61    60    1
   135   108   109    1
   136    57    63   am
   137    86    87    1
   138    63    64    1
   139    59    60    1
   140    64    67    1
   141   109   110    1
   142    89    88    1
   143    88    87    1
   144    67    68    1
   145   110   111    1
   146    68    69   ar
   147    68    70   ar
   148   111   112    1
