@<TRIPOS>MOLECULE
tmp/5hwmA00.pdb
 130 122 0 0 0
SMALL
GASTEIGER

@<TRIPOS>ATOM
      1  N        -38.8650   -4.4370   45.9480 N.3    17  PHE17      -0.1241
      2  CA       -37.8650   -3.7110   45.2240 C.3    17  PHE17       0.1605
      3  C        -37.6030   -2.3260   45.8690 C.2    17  PHE17       0.2264
      4  O        -38.3010   -1.3630   45.5680 O.2    17  PHE17      -0.2867
      5  CB       -38.3240   -3.4850   43.8240 C.3    17  PHE17       0.0534
      6  CG       -38.3590   -4.7100   42.9610 C.ar   17  PHE17      -0.0203
      7  CD1      -39.2670   -5.7280   43.1840 C.ar   17  PHE17      -0.0042
      8  CD2      -37.5330   -4.7850   41.8500 C.ar   17  PHE17      -0.0042
      9  CE1      -39.2900   -6.8590   42.3490 C.ar   17  PHE17      -0.0003
     10  CE2      -37.5540   -5.8930   40.9960 C.ar   17  PHE17      -0.0003
     11  CZ       -38.4530   -6.9310   41.2580 C.ar   17  PHE17      -0.0000
     12  N        -35.8970   -1.7710   38.7790 N.3    53  GLY53      -0.1210
     13  CA       -36.5240   -0.6200   38.1570 C.3    53  GLY53       0.1956
     14  C        -37.0710    0.3450   39.1660 C.2    53  GLY53       0.2612
     15  O        -36.8690    1.5060   38.9860 O.2    53  GLY53      -0.2717
     16  N        -37.7740   -0.1240   40.2060 N.am   54  THR54      -0.1952
     17  CA       -38.2520    0.7590   41.2760 C.3    54  THR54       0.1897
     18  C        -37.0510    1.3970   41.9660 C.2    54  THR54       0.2313
     19  O        -37.1150    2.4960   42.5250 O.2    54  THR54      -0.2863
     20  CB       -39.0830   -0.0080   42.3190 C.3    54  THR54       0.1794
     21  OG1      -40.0000   -0.8740   41.6670 O.3    54  THR54      -0.2208
     22  CG2      -39.8460    0.9510   43.2170 C.3    54  THR54       0.0378
     23  N        -32.0790    1.9860   35.7370 N.3    58  PHE58      -0.1241
     24  CA       -31.8810    2.5680   34.3790 C.3    58  PHE58       0.1605
     25  C        -31.2210    3.9560   34.4460 C.2    58  PHE58       0.2264
     26  O        -31.0060    4.5870   33.4200 O.2    58  PHE58      -0.2867
     27  CB       -33.2290    2.6650   33.6580 C.3    58  PHE58       0.0534
     28  CG       -34.3210    3.1850   34.5690 C.ar   58  PHE58      -0.0203
     29  CD1      -34.3720    4.5220   34.9010 C.ar   58  PHE58      -0.0042
     30  CD2      -35.2080    2.3070   35.1900 C.ar   58  PHE58      -0.0042
     31  CE1      -35.3320    5.0120   35.8530 C.ar   58  PHE58      -0.0003
     32  CE2      -36.1810    2.7920   36.1380 C.ar   58  PHE58      -0.0003
     33  CZ       -36.2380    4.1450   36.4350 C.ar   58  PHE58      -0.0000
     34  N        -31.8030  -10.0500   38.2160 N.3   108  LEU108     -0.1245
     35  CA       -32.9920   -9.8170   37.4610 C.3   108  LEU108      0.1561
     36  C        -32.5210   -9.0460   36.1930 C.2   108  LEU108      0.2260
     37  O        -31.8670   -8.0060   36.2950 O.2   108  LEU108     -0.2867
     38  CB       -34.0280   -9.0410   38.2900 C.3   108  LEU108      0.0270
     39  CG       -35.2080   -8.5150   37.4810 C.3   108  LEU108      0.0019
     40  CD1      -36.1820   -9.6370   37.0980 C.3   108  LEU108      0.0001
     41  CD2      -35.8730   -7.4260   38.2320 C.3   108  LEU108      0.0001
     42  N        -33.1300   -6.9200   33.2960 N.3   110  LEU110     -0.1245
     43  CA       -33.9550   -5.9730   32.5860 C.3   110  LEU110      0.1561
     44  C        -33.6550   -6.0670   31.0770 C.2   110  LEU110      0.2260
     45  O        -32.6640   -6.7010   30.6840 O.2   110  LEU110     -0.2867
     46  CB       -33.6910   -4.5730   33.1310 C.3   110  LEU110      0.0270
     47  CG       -34.5530   -4.2690   34.3880 C.3   110  LEU110      0.0019
     48  CD1      -34.3190   -5.1920   35.5820 C.3   110  LEU110      0.0001
     49  CD2      -34.3090   -2.9000   34.8360 C.3   110  LEU110      0.0001
     50  N        -37.1430  -10.9740   32.3780 N.3   140  TYR140     -0.1241
     51  CA       -38.1190   -9.9390   32.6490 C.3   140  TYR140      0.1605
     52  C        -38.7660   -9.4860   31.3250 C.2   140  TYR140      0.2264
     53  O        -38.1380   -8.7380   30.5590 O.2   140  TYR140     -0.2867
     54  CB       -37.4000   -8.7950   33.3580 C.3   140  TYR140      0.0534
     55  CG       -38.2040   -7.6370   33.8550 C.ar  140  TYR140     -0.0201
     56  CD1      -39.6000   -7.5810   33.7610 C.ar  140  TYR140     -0.0009
     57  CD2      -37.5570   -6.5920   34.4720 C.ar  140  TYR140     -0.0009
     58  CE1      -40.3200   -6.4370   34.3010 C.ar  140  TYR140      0.0417
     59  CE2      -38.2240   -5.4960   34.9450 C.ar  140  TYR140      0.0417
     60  CZ       -39.5890   -5.4000   34.8930 C.ar  140  TYR140      0.1957
     61  OH       -40.1660   -4.2310   35.4480 O.3   140  TYR140     -0.2866
     62  N        -40.8680   -7.3020   29.0870 N.3   142  ARG142     -0.1245
     63  CA       -41.3930   -5.9330   29.0520 C.3   142  ARG142      0.1563
     64  C        -40.7830   -5.1340   27.9180 C.2   142  ARG142      0.2260
     65  O        -39.6480   -5.3110   27.5760 O.2   142  ARG142     -0.2867
     66  CB       -41.1940   -5.1790   30.3980 C.3   142  ARG142      0.0307
     67  CG       -39.7960   -4.6920   30.8020 C.3   142  ARG142      0.0489
     68  CD       -39.8260   -3.8050   32.1030 C.3   142  ARG142      0.2205
     69  NE       -39.9960   -2.3650   31.8840 N.pl3 142  ARG142     -0.0865
     70  CZ       -40.0340   -1.4470   32.8520 C.cat 142  ARG142      0.5346
     71  NH1      -39.9210   -1.7620   34.1480 N.pl3 142  ARG142      0.1354
     72  NH2      -40.2130   -0.1930   32.5130 N.pl3 142  ARG142      0.1354
     73  N        -40.1980  -12.7240   35.3160 N.3   166  LYS166     -0.1245
     74  CA       -41.0220  -11.5750   35.7710 C.3   166  LYS166      0.1561
     75  C        -41.7770  -10.9310   34.6020 C.2   166  LYS166      0.2260
     76  O        -41.2100  -10.7110   33.5380 O.2   166  LYS166     -0.2867
     77  CB       -40.1670  -10.5400   36.4780 C.3   166  LYS166      0.0271
     78  CG       -40.8440   -9.2420   36.8220 C.3   166  LYS166      0.0035
     79  CD       -39.8180   -8.2400   37.4190 C.3   166  LYS166      0.0206
     80  CE       -40.4930   -6.9390   37.9260 C.3   166  LYS166      0.1093
     81  NZ       -39.5920   -5.7060   38.2350 N.3   166  LYS166     -0.1314
     82  N        -45.2530   -8.5230   37.8020 N.3   191  GLY191     -0.1210
     83  CA       -44.3520   -7.3790   37.8320 C.3   191  GLY191      0.1956
     84  C        -44.8720   -6.0860   37.2330 C.2   191  GLY191      0.2612
     85  O        -44.1110   -5.1690   36.9200 O.2   191  GLY191     -0.2717
     86  N        -46.1780   -6.0000   37.0710 N.am  192  MET192     -0.1965
     87  CA       -46.7600   -4.7690   36.5560 C.3   192  MET192      0.1721
     88  C        -46.5320   -3.6380   37.5350 C.2   192  MET192      0.2458
     89  O        -46.3150   -3.8850   38.7190 O.2   192  MET192     -0.2730
     90  CB       -48.2540   -4.9190   36.3170 C.3   192  MET192      0.0427
     91  CG       -48.6450   -5.8370   35.2080 C.3   192  MET192      0.0599
     92  SD       -47.9420   -5.3170   33.6480 S.3   192  MET192     -0.1393
     93  CE       -49.1010   -4.1030   33.1450 C.3   192  MET192      0.0692
     94  N        -46.5440   -2.3890   37.0460 N.am  193  PRO193     -0.2716
     95  CA       -46.5110   -1.3290   38.0480 C.3   193  PRO193      0.1536
     96  C        -47.8090   -1.3960   38.8430 C.2   193  PRO193      0.2599
     97  O        -48.9020   -1.4570   38.2620 O.2   193  PRO193     -0.2715
     98  CB       -46.3740   -0.0500   37.2150 C.3   193  PRO193      0.0310
     99  CG       -45.8090   -0.5390   35.8870 C.3   193  PRO193      0.0237
    100  CD       -46.4750   -1.8420   35.6810 C.3   193  PRO193      0.0939
    101  N        -47.6440   -1.4590   40.1550 N.am  194  THR194     -0.1951
    102  CA       -48.7410   -1.5960   41.1340 C.3   194  THR194      0.1897
    103  C        -49.4430   -2.9560   40.9600 C.2   194  THR194      0.2313
    104  O        -50.6240   -3.0550   40.6000 O.2   194  THR194     -0.2863
    105  CB       -49.7040   -0.4370   41.0270 C.3   194  THR194      0.1794
    106  OG1      -48.9640    0.7800   40.9110 O.3   194  THR194     -0.2208
    107  CG2      -50.5460   -0.3750   42.2600 C.3   194  THR194      0.0378
    108  N        -44.5390   -8.8150   43.0130 N.3   211  SER211     -0.1217
    109  CA       -43.7450   -7.8100   43.7100 C.3   211  SER211      0.1889
    110  C        -44.5240   -6.5190   43.8690 C.2   211  SER211      0.2288
    111  O        -45.2290   -6.0700   42.9480 O.2   211  SER211     -0.2866
    112  CB       -42.4430   -7.5000   42.9850 C.3   211  SER211      0.2089
    113  OG       -42.6780   -6.9460   41.6980 O.3   211  SER211     -0.2183
    114  N        -44.1210   -2.7660   44.6620 N.3   213  ALA213     -0.1245
    115  CA       -43.5180   -1.4610   44.8140 C.3   213  ALA213      0.1562
    116  C        -44.0400   -0.7490   46.1290 C.2   213  ALA213      0.2260
    117  O        -43.2440   -0.2440   46.9110 O.2   213  ALA213     -0.2867
    118  CB       -43.8060   -0.7000   43.6800 C.3   213  ALA213      0.0290
    119  N        -44.8040    5.8270   38.4620 N.3   259  ALA259     -0.1231
    120  CA       -44.6750    4.4830   39.0120 C.3   259  ALA259      0.1694
    121  C        -43.4220    4.3200   39.8680 C.2   259  ALA259      0.2591
    122  O        -43.3800    3.4740   40.7560 O.2   259  ALA259     -0.2718
    123  CB       -44.6550    3.4370   37.8900 C.3   259  ALA259      0.0304
    124  N        -42.3900    5.0900   39.6030 N.am  260  VAL260     -0.1980
    125  CA       -41.2780    5.1060   40.5240 C.3   260  VAL260      0.1595
    126  C        -41.2930    6.3460   41.4340 C.2   260  VAL260      0.2287
    127  O        -41.1710    6.2010   42.6420 O.2   260  VAL260     -0.2864
    128  CB       -39.9450    5.0380   39.8070 C.3   260  VAL260      0.0276
    129  CG1      -38.7630    5.2040   40.8100 C.3   260  VAL260      0.0022
    130  CG2      -39.8720    3.7300   39.0480 C.3   260  VAL260      0.0022
@<TRIPOS>BOND
     1    65    64    2
     2    64    63    1
     3    63    62    1
     4    63    66    1
     5    66    67    1
     6    53    52    2
     7    45    44    2
     8    67    68    1
     9    44    43    1
    10    52    51    1
    11    69    68    1
    12    69    70    2
    13    50    51    1
    14    72    70    1
    15    43    46    1
    16    43    42    1
    17    51    54    1
    18    70    71    1
    19    46    47    1
    20    93    92    1
    21    54    55    1
    22    26    25    2
    23    76    75    2
    24    92    91    1
    25    27    24    1
    26    27    28    1
    27    56    55   ar
    28    56    58   ar
    29    55    57   ar
    30    58    60   ar
    31    24    25    1
    32    24    23    1
    33    47    49    1
    34    47    48    1
    35    57    59   ar
    36    28    29   ar
    37    28    30   ar
    38    75    74    1
    39    60    59   ar
    40    60    61    1
    41    29    31   ar
    42    30    32   ar
    43    91    90    1
    44    73    74    1
    45   100    99    1
    46   100    94    1
    47    74    77    1
    48    31    33   ar
    49    99    98    1
    50    32    33   ar
    51    36    37    2
    52    36    35    1
    53    90    87    1
    54    77    78    1
    55    87    86    1
    56    87    88    1
    57    78    79    1
    58    85    84    2
    59    94    88   am
    60    94    95    1
    61    86    84   am
    62    40    39    1
    63    98    95    1
    64    84    83    1
    65    79    80    1
    66    35    34    1
    67    35    38    1
    68    39    41    1
    69    39    38    1
    70    88    89    2
    71    82    83    1
    72   123   120    1
    73    80    81    1
    74    95    96    1
    75    13    12    1
    76    13    14    1
    77    97    96    2
    78   119   120    1
    79    96   101   am
    80    15    14    2
    81   120   121    1
    82   130   128    1
    83    14    16   am
    84   124   121   am
    85   124   125    1
    86   128   125    1
    87   128   129    1
    88   121   122    2
    89   101   102    1
    90    16    17    1
    91   125   126    1
    92   104   103    2
    93   106   105    1
    94   103   102    1
    95    10    11   ar
    96    10     8   ar
    97   105   102    1
    98   105   107    1
    99    11     9   ar
   100    17    18    1
   101    17    20    1
   102   126   127    2
   103    21    20    1
   104   113   112    1
   105     8     6   ar
   106    18    19    2
   107    20    22    1
   108     9     7   ar
   109   111   110    2
   110     6     7   ar
   111     6     5    1
   112   112   109    1
   113   108   109    1
   114   118   115    1
   115   109   110    1
   116     5     2    1
   117   114   115    1
   118   115   116    1
   119     2     3    1
   120     2     1    1
   121     4     3    2
   122   116   117    2
