@<TRIPOS>MOLECULE
tmp/5hwpA00.pdb
 212 203 0 0 0
SMALL
GASTEIGER

@<TRIPOS>ATOM
      1  N          8.2730   34.0730  120.9450 N.3    29  ASP29      -0.1239
      2  CA         9.0620   32.8550  120.8470 C.3    29  ASP29       0.1674
      3  C         10.1880   32.9030  121.8760 C.2    29  ASP29       0.2266
      4  O         11.0200   33.8240  121.8250 O.2    29  ASP29      -0.2867
      5  CB         9.6310   32.7050  119.4380 C.3    29  ASP29       0.1410
      6  CG        10.3180   31.3680  119.2210 C.2    29  ASP29       0.3668
      7  OD1       10.8570   30.7980  120.1940 O.co2  29  ASP29      -0.2456
      8  OD2       10.3170   30.8850  118.0690 O.co2  29  ASP29      -0.2456
      9  N         12.9790   31.5470  122.0730 N.3    31  ALA31      -0.1231
     10  CA        14.3100   31.6060  121.4810 C.3    31  ALA31       0.1694
     11  C         14.7340   33.0300  121.1460 C.2    31  ALA31       0.2591
     12  O         15.9350   33.2880  121.0140 O.2    31  ALA31      -0.2718
     13  CB        14.3650   30.7370  120.2230 C.3    31  ALA31       0.0304
     14  N         13.7860   33.9600  121.0020 N.am   32  LYS32      -0.1980
     15  CA        14.1640   35.3450  120.7370 C.3    32  LYS32       0.1596
     16  C         14.9370   35.9320  121.9110 C.2    32  LYS32       0.2287
     17  O         15.9330   36.6380  121.7180 O.2    32  LYS32      -0.2864
     18  CB        12.9280   36.1950  120.4380 C.3    32  LYS32       0.0298
     19  CG        13.2610   37.6710  120.2480 C.3    32  LYS32       0.0038
     20  CD        12.0620   38.5020  119.8180 C.3    32  LYS32       0.0206
     21  CE        12.4670   39.9580  119.6250 C.3    32  LYS32       0.1093
     22  NZ        11.3370   40.8300  119.2060 N.3    32  LYS32      -0.1314
     23  N         18.2660   33.0230  122.5690 N.3    35  ALA35      -0.1231
     24  CA        19.2460   33.0500  121.4900 C.3    35  ALA35       0.1694
     25  C         19.4070   34.4500  120.9100 C.2    35  ALA35       0.2593
     26  O         20.5330   34.9180  120.7100 O.2    35  ALA35      -0.2718
     27  CB        18.8450   32.0690  120.3840 C.3    35  ALA35       0.0304
     28  N         18.2910   35.1280  120.6400 N.am   36  GLY36      -0.1942
     29  CA        18.3640   36.4370  120.0160 C.3    36  GLY36       0.2014
     30  C         19.0190   37.4770  120.9030 C.2    36  GLY36       0.2638
     31  O         19.8100   38.2980  120.4290 O.2    36  GLY36      -0.2714
     32  N         18.6990   37.4630  122.1990 N.am   37  LEU37      -0.1977
     33  CA        19.2440   38.4310  123.1400 C.3    37  LEU37       0.1596
     34  C         20.3020   37.8570  124.0700 C.2    37  LEU37       0.2287
     35  O         21.0950   38.6290  124.6190 O.2    37  LEU37      -0.2864
     36  CB        18.1170   39.0390  123.9880 C.3    37  LEU37       0.0297
     37  CG        16.9990   39.7440  123.2160 C.3    37  LEU37       0.0022
     38  CD1       15.9710   40.3020  124.1860 C.3    37  LEU37       0.0001
     39  CD2       17.5480   40.8480  122.3170 C.3    37  LEU37       0.0001
     40  N         11.5790   49.3520  131.6050 N.3   146  TYR146     -0.1241
     41  CA        11.0010   49.7780  130.3380 C.3   146  TYR146      0.1605
     42  C          9.4840   49.6870  130.3030 C.2   146  TYR146      0.2264
     43  O          8.8530   50.4540  129.5750 O.2   146  TYR146     -0.2867
     44  CB        11.5790   48.9490  129.1840 C.3   146  TYR146      0.0534
     45  CG        13.0450   49.2200  128.9250 C.ar  146  TYR146     -0.0201
     46  CD1       13.4420   50.2840  128.1260 C.ar  146  TYR146     -0.0009
     47  CD2       14.0300   48.4170  129.4810 C.ar  146  TYR146     -0.0009
     48  CE1       14.7800   50.5390  127.8870 C.ar  146  TYR146      0.0417
     49  CE2       15.3700   48.6650  129.2480 C.ar  146  TYR146      0.0417
     50  CZ        15.7380   49.7280  128.4530 C.ar  146  TYR146      0.1957
     51  OH        17.0710   49.9720  128.2200 O.3   146  TYR146     -0.2866
     52  N          9.2980   46.7100  123.9800 N.3   151  ALA151     -0.1231
     53  CA        10.4030   45.9920  123.3540 C.3   151  ALA151      0.1694
     54  C         11.5900   45.8590  124.2950 C.2   151  ALA151      0.2592
     55  O         12.3410   44.8810  124.2120 O.2   151  ALA151     -0.2718
     56  CB        10.8280   46.7000  122.0670 C.3   151  ALA151      0.0304
     57  N         11.7790   46.8260  125.1930 N.am  152  GLY152     -0.1957
     58  CA        12.8910   46.7890  126.1220 C.3   152  GLY152      0.1869
     59  C         12.6700   45.9480  127.3580 C.2   152  GLY152      0.2309
     60  O         13.6280   45.7070  128.0990 O.2   152  GLY152     -0.2863
     61  N         12.3950   42.7160  128.0480 N.3   154  PRO154     -0.2102
     62  CA        13.2620   41.5600  128.3290 C.3   154  PRO154      0.1504
     63  C         14.7030   41.9230  128.6500 C.2   154  PRO154      0.2576
     64  O         15.4540   41.0400  129.0860 O.2   154  PRO154     -0.2718
     65  CB        13.1730   40.7310  127.0400 C.3   154  PRO154      0.0282
     66  CG        12.8060   41.7060  125.9880 C.3   154  PRO154      0.0208
     67  CD        11.9210   42.7150  126.6520 C.3   154  PRO154      0.0893
     68  N         15.1200   43.1730  128.4470 N.am  155  THR155     -0.1953
     69  CA        16.4560   43.6170  128.8230 C.3   155  THR155      0.1897
     70  C         16.4710   44.3410  130.1660 C.2   155  THR155      0.2313
     71  O         17.4830   44.9540  130.5170 O.2   155  THR155     -0.2863
     72  CB        17.0480   44.5270  127.7420 C.3   155  THR155      0.1794
     73  OG1       16.3940   45.8020  127.7660 O.3   155  THR155     -0.2208
     74  CG2       16.8980   43.9060  126.3580 C.3   155  THR155      0.0378
     75  N         18.0240   56.9920  123.9070 N.3   189  PHE189     -0.1241
     76  CA        17.4170   56.4380  125.1100 C.3   189  PHE189      0.1605
     77  C         17.4010   57.5420  126.1540 C.2   189  PHE189      0.2264
     78  O         18.4150   58.2180  126.3520 O.2   189  PHE189     -0.2867
     79  CB        18.2020   55.2090  125.6000 C.3   189  PHE189      0.0534
     80  CG        17.8900   54.7860  127.0160 C.ar  189  PHE189     -0.0203
     81  CD1       18.3950   55.4920  128.0990 C.ar  189  PHE189     -0.0042
     82  CD2       17.1330   53.6520  127.2630 C.ar  189  PHE189     -0.0042
     83  CE1       18.1210   55.0980  129.3940 C.ar  189  PHE189     -0.0003
     84  CE2       16.8600   53.2520  128.5620 C.ar  189  PHE189     -0.0003
     85  CZ        17.3570   53.9760  129.6260 C.ar  189  PHE189     -0.0000
     86  N         12.9870   54.8560  124.4210 N.3   200  VAL200     -0.1245
     87  CA        14.1150   54.3060  123.6800 C.3   200  VAL200      0.1561
     88  C         13.7110   54.0920  122.2290 C.2   200  VAL200      0.2260
     89  O         12.6120   53.6150  121.9330 O.2   200  VAL200     -0.2867
     90  CB        14.6130   52.9920  124.3270 C.3   200  VAL200      0.0252
     91  CG1       13.5420   51.9030  124.2460 C.3   200  VAL200      0.0019
     92  CG2       15.9000   52.5410  123.6760 C.3   200  VAL200      0.0019
     93  N         15.0050   51.6650  119.9830 N.3   202  GLY202     -0.1210
     94  CA        15.8130   50.4710  120.1640 C.3   202  GLY202      0.1956
     95  C         16.9820   50.2980  119.2150 C.2   202  GLY202      0.2611
     96  O         18.1410   50.3290  119.6410 O.2   202  GLY202     -0.2717
     97  N         16.6960   50.0980  117.9270 N.am  203  HIS203     -0.1975
     98  CA        17.7650   49.8400  116.9700 C.3   203  HIS203      0.1656
     99  C         18.6220   51.0710  116.7180 C.2   203  HIS203      0.2291
    100  O         19.7740   50.9320  116.2980 O.2   203  HIS203     -0.2864
    101  CB        17.1740   49.3210  115.6610 C.3   203  HIS203      0.0771
    102  CG        16.6150   47.9380  115.7690 C.ar  203  HIS203      0.0820
    103  ND1       15.3100   47.6890  116.1390 N.ar  203  HIS203     -0.2267
    104  CD2       17.1900   46.7270  115.5810 C.ar  203  HIS203      0.1154
    105  CE1       15.1030   46.3850  116.1610 C.ar  203  HIS203      0.1986
    106  NE2       16.2280   45.7780  115.8270 N.ar  203  HIS203     -0.2212
    107  N         19.5320   53.0860  119.2110 N.3   205  SER205     -0.1202
    108  CA        20.4870   53.0610  120.3140 C.3   205  SER205      0.2020
    109  C         21.6210   52.0820  120.0440 C.2   205  SER205      0.2618
    110  O         22.7470   52.2990  120.5050 O.2   205  SER205     -0.2717
    111  CB        19.7800   52.7040  121.6240 C.3   205  SER205      0.2103
    112  OG        19.4010   51.3380  121.6530 O.3   205  SER205     -0.2182
    113  N         21.3460   51.0070  119.3070 N.am  206  ILE206     -0.1979
    114  CA        22.4040   50.0800  118.9170 C.3   206  ILE206      0.1595
    115  C         23.3930   50.7700  117.9860 C.2   206  ILE206      0.2287
    116  O         24.6130   50.6540  118.1530 O.2   206  ILE206     -0.2864
    117  CB        21.7940   48.8190  118.2740 C.3   206  ILE206      0.0276
    118  CG1       21.0870   47.9860  119.3460 C.3   206  ILE206      0.0022
    119  CG2       22.8640   47.9800  117.5640 C.3   206  ILE206      0.0022
    120  CD1       20.2210   46.8670  118.8000 C.3   206  ILE206      0.0001
    121  N         25.4410   53.2050  119.9390 N.3   209  TYR209     -0.1241
    122  CA        26.4240   52.4240  120.6840 C.3   209  TYR209      0.1605
    123  C         27.6410   52.1190  119.8190 C.2   209  TYR209      0.2264
    124  O         28.7810   52.4100  120.2000 O.2   209  TYR209     -0.2867
    125  CB        25.7670   51.1330  121.1870 C.3   209  TYR209      0.0534
    126  CG        26.6310   50.2330  122.0530 C.ar  209  TYR209     -0.0201
    127  CD1       27.7610   49.6050  121.5390 C.ar  209  TYR209     -0.0009
    128  CD2       26.2860   49.9720  123.3730 C.ar  209  TYR209     -0.0009
    129  CE1       28.5380   48.7720  122.3230 C.ar  209  TYR209      0.0417
    130  CE2       27.0570   49.1370  124.1650 C.ar  209  TYR209      0.0417
    131  CZ        28.1810   48.5400  123.6330 C.ar  209  TYR209      0.1957
    132  OH        28.9530   47.7080  124.4110 O.3   209  TYR209     -0.2866
    133  N         30.0430   47.2450  127.6860 N.3   247  HIS247     -0.1241
    134  CA        28.7500   47.5060  128.3000 C.3   247  HIS247      0.1621
    135  C         27.7070   46.5640  127.7140 C.2   247  HIS247      0.2264
    136  O         27.5270   46.4970  126.4950 O.2   247  HIS247     -0.2867
    137  CB        28.3410   48.9610  128.0740 C.3   247  HIS247      0.0745
    138  CG        26.9190   49.2470  128.4370 C.ar  247  HIS247      0.0817
    139  ND1       26.4330   49.0950  129.7180 N.ar  247  HIS247     -0.2268
    140  CD2       25.8730   49.6630  127.6850 C.ar  247  HIS247      0.1154
    141  CE1       25.1500   49.4100  129.7400 C.ar  247  HIS247      0.1986
    142  NE2       24.7860   49.7590  128.5200 N.ar  247  HIS247     -0.2212
    143  N         23.9730   45.9520  127.5070 N.3   249  PRO249     -0.2102
    144  CA        22.5220   46.1350  127.6590 C.3   249  PRO249      0.1504
    145  C         21.7740   44.8270  127.5070 C.2   249  PRO249      0.2575
    146  O         20.7470   44.6200  128.1650 O.2   249  PRO249     -0.2718
    147  CB        22.1740   47.1310  126.5460 C.3   249  PRO249      0.0282
    148  CG        23.2080   46.8900  125.5030 C.3   249  PRO249      0.0208
    149  CD        24.4700   46.5160  126.2390 C.3   249  PRO249      0.0893
    150  N         22.2670   43.9480  126.6380 N.am  250  PHE250     -0.1977
    151  CA        21.8520   42.5590  126.5600 C.3   250  PHE250      0.1639
    152  C         23.0560   41.7740  126.0600 C.2   250  PHE250      0.2290
    153  O         23.9570   42.3310  125.4280 O.2   250  PHE250     -0.2864
    154  CB        20.6290   42.3730  125.6510 C.3   250  PHE250      0.0560
    155  CG        20.7920   42.9680  124.2830 C.ar  250  PHE250     -0.0200
    156  CD1       20.6220   44.3270  124.0810 C.ar  250  PHE250     -0.0042
    157  CD2       21.1070   42.1680  123.1980 C.ar  250  PHE250     -0.0042
    158  CE1       20.7730   44.8780  122.8240 C.ar  250  PHE250     -0.0003
    159  CE2       21.2560   42.7130  121.9380 C.ar  250  PHE250     -0.0003
    160  CZ        21.0880   44.0680  121.7500 C.ar  250  PHE250     -0.0000
    161  N         23.8610   39.5130  123.8180 N.3   252  LYS252     -0.1231
    162  CA        24.2540   39.4460  122.4150 C.3   252  LYS252      0.1693
    163  C         24.8690   40.7510  121.9290 C.2   252  LYS252      0.2591
    164  O         25.5500   40.7560  120.8980 O.2   252  LYS252     -0.2718
    165  CB        23.0500   39.0810  121.5440 C.3   252  LYS252      0.0285
    166  CG        23.4250   38.8380  120.0920 C.3   252  LYS252      0.0035
    167  CD        23.9800   37.4000  119.9820 C.3   252  LYS252      0.0206
    168  CE        24.0430   37.0470  118.5020 C.3   252  LYS252      0.1093
    169  NZ        24.8790   35.8340  118.3580 N.3   252  LYS252     -0.1314
    170  N         24.6520   41.8530  122.6500 N.am  253  MET253     -0.1979
    171  CA        25.2650   43.1220  122.2790 C.3   253  MET253      0.1605
    172  C         26.7840   43.0620  122.3350 C.2   253  MET253      0.2287
    173  O         27.4480   43.8650  121.6710 O.2   253  MET253     -0.2864
    174  CB        24.7600   44.2340  123.1990 C.3   253  MET253      0.0413
    175  CG        25.1440   45.6300  122.7450 C.3   253  MET253      0.0598
    176  SD        24.2960   46.0910  121.2250 S.3   253  MET253     -0.1393
    177  CE        25.5020   47.1920  120.4970 C.3   253  MET253      0.0692
    178  N         28.0790   42.0000  118.8440 N.3   256  LYS256     -0.1245
    179  CA        28.0090   43.1380  117.9320 C.3   256  LYS256      0.1561
    180  C         29.1500   44.1100  118.1940 C.2   256  LYS256      0.2260
    181  O         29.8310   44.5580  117.2650 O.2   256  LYS256     -0.2867
    182  CB        26.6650   43.8530  118.0800 C.3   256  LYS256      0.0271
    183  CG        25.4510   42.9740  117.8710 C.3   256  LYS256      0.0035
    184  CD        24.1670   43.7900  117.9360 C.3   256  LYS256      0.0206
    185  CE        22.9420   42.9190  117.7210 C.3   256  LYS256      0.1093
    186  NZ        23.0470   42.1050  116.4790 N.3   256  LYS256     -0.1314
    187  N         20.0880   44.0640  132.2360 N.3   306  ASN306     -0.1240
    188  CA        20.7240   45.3720  132.1620 C.3   306  ASN306      0.1653
    189  C         20.7000   46.0470  133.5290 C.2   306  ASN306      0.2266
    190  O         19.6440   46.1550  134.1620 O.2   306  ASN306     -0.2867
    191  CB        20.0160   46.2450  131.1270 C.3   306  ASN306      0.1155
    192  CG        20.8740   47.4030  130.6550 C.2   306  ASN306      0.2627
    193  OD1       21.9920   47.6040  131.1330 O.2   306  ASN306     -0.2716
    194  ND2       20.3610   48.1600  129.6940 N.am  306  ASN306     -0.0877
    195  N         29.6520   52.5370  127.5730 N.3   337  TYR337     -0.1241
    196  CA        28.7420   53.3410  126.7750 C.3   337  TYR337      0.1605
    197  C         27.6460   53.9200  127.6540 C.2   337  TYR337      0.2264
    198  O         27.1910   53.2900  128.6150 O.2   337  TYR337     -0.2867
    199  CB        28.0990   52.5290  125.6450 C.3   337  TYR337      0.0534
    200  CG        27.1240   53.3420  124.8260 C.ar  337  TYR337     -0.0201
    201  CD1       27.5750   54.3010  123.9320 C.ar  337  TYR337     -0.0009
    202  CD2       25.7540   53.1590  124.9530 C.ar  337  TYR337     -0.0009
    203  CE1       26.6910   55.0540  123.1840 C.ar  337  TYR337      0.0417
    204  CE2       24.8610   53.9070  124.2080 C.ar  337  TYR337      0.0417
    205  CZ        25.3370   54.8530  123.3250 C.ar  337  TYR337      0.1957
    206  OH        24.4540   55.6000  122.5810 O.3   337  TYR337     -0.2866
    207  N         23.9280   56.0160  126.8190 N.3   339  SER339     -0.1217
    208  CA        23.0070   56.6610  125.8950 C.3   339  SER339      0.1889
    209  C         22.9370   58.1510  126.2000 C.2   339  SER339      0.2288
    210  O         23.0170   58.5660  127.3590 O.2   339  SER339     -0.2866
    211  CB        21.6210   56.0330  126.0020 C.3   339  SER339      0.2089
    212  OG        21.6450   54.6620  125.6430 O.3   339  SER339     -0.2183
@<TRIPOS>BOND
     1   104   102   ar
     2   104   106   ar
     3   101   102    1
     4   101    98    1
     5   102   103   ar
     6   106   105   ar
     7   103   105   ar
     8   100    99    2
     9   186   185    1
    10    99    98    1
    11    98    97    1
    12   181   180    2
    13   119   117    1
    14   185   184    1
    15   183   184    1
    16   183   182    1
    17    97    95   am
    18   179   182    1
    19   179   180    1
    20   179   178    1
    21   115   116    2
    22   115   114    1
    23     8     6   ar
    24   117   114    1
    25   117   118    1
    26   169   168    1
    27   168   167    1
    28   120   118    1
    29   114   113    1
    30    22    21    1
    31   107   108    1
    32    95    96    2
    33    95    94    1
    34     6     5    1
    35     6     7   ar
    36   113   109   am
    37     5     2    1
    38    21    20    1
    39    20    19    1
    40   123   124    2
    41   123   122    1
    42   121   122    1
    43   167   166    1
    44    93    94    1
    45    29    28    1
    46    29    30    1
    47   109   108    1
    48   109   110    2
    49   166   165    1
    50    13    10    1
    51    19    18    1
    52   108   111    1
    53    27    24    1
    54    31    30    2
    55    18    15    1
    56   177   176    1
    57    28    25   am
    58   122   125    1
    59    26    25    2
    60    15    14    1
    61    15    16    1
    62     2     1    1
    63     2     3    1
    64   164   163    2
    65    30    32   am
    66    25    24    1
    67    14    11   am
    68    12    11    2
    69    11    10    1
    70   125   126    1
    71   176   175    1
    72    10     9    1
    73    24    23    1
    74   127   126   ar
    75   127   129   ar
    76   165   162    1
    77   111   112    1
    78   173   172    2
    79    17    16    2
    80   160   159   ar
    81   160   158   ar
    82     4     3    2
    83   163   162    1
    84   163   170   am
    85    89    88    2
    86   159   157   ar
    87   126   128   ar
    88    56    53    1
    89    32    33    1
    90    88    87    1
    91   171   172    1
    92   171   170    1
    93   171   174    1
    94    39    37    1
    95   129   131   ar
    96   162   161    1
    97   206   205    1
    98   175   174    1
    99   158   156   ar
   100    33    36    1
   101    33    34    1
   102   203   205   ar
   103   203   201   ar
   104   157   155   ar
   105    37    36    1
   106    37    38    1
   107   205   204   ar
   108    53    52    1
   109    53    54    1
   110   128   130   ar
   111   131   130   ar
   112   131   132    1
   113    92    90    1
   114    87    90    1
   115    87    86    1
   116    75    76    1
   117   201   200   ar
   118    34    35    2
   119   156   155   ar
   120   204   202   ar
   121    55    54    2
   122    91    90    1
   123   155   154    1
   124    54    57   am
   125   200   202   ar
   126   200   199    1
   127    76    79    1
   128    76    77    1
   129    57    58    1
   130   153   152    2
   131   148   149    1
   132   148   147    1
   133    79    80    1
   134   212   211    1
   135   199   196    1
   136   154   151    1
   137   208   211    1
   138   208   209    1
   139   208   207    1
   140    66    67    1
   141    66    65    1
   142   152   151    1
   143    58    59    1
   144    77    78    2
   145   209   210    2
   146   149   143    1
   147    74    72    1
   148   136   135    2
   149   147   144    1
   150   151   150    1
   151   150   145   am
   152    67    61    1
   153   196   195    1
   154   196   197    1
   155    80    82   ar
   156    80    81   ar
   157    65    62    1
   158    82    84   ar
   159    59    60    2
   160   145   144    1
   161   145   146    2
   162   143   144    1
   163   197   198    2
   164   140   138   ar
   165   140   142   ar
   166   133   134    1
   167   135   134    1
   168    72    73    1
   169    72    69    1
   170    48    46   ar
   171    48    50   ar
   172    61    62    1
   173   137   134    1
   174   137   138    1
   175    81    83   ar
   176    46    45   ar
   177    51    50    1
   178    62    63    1
   179   138   139   ar
   180    68    63   am
   181    68    69    1
   182    50    49   ar
   183   142   141   ar
   184    84    85   ar
   185    63    64    2
   186    69    70    1
   187    45    44    1
   188    45    47   ar
   189    44    41    1
   190    49    47   ar
   191    83    85   ar
   192    43    42    2
   193   194   192   am
   194   139   141   ar
   195    70    71    2
   196    42    41    1
   197    41    40    1
   198   192   191    1
   199   192   193    2
   200   191   188    1
   201   188   187    1
   202   188   189    1
   203   189   190    2
