@<TRIPOS>MOLECULE
tmp/5hwvA00.pdb
 117 115 0 0 0
SMALL
GASTEIGER

@<TRIPOS>ATOM
      1  N         -3.9020   -0.7340  -29.4690 N.3     5  PHE5       -0.1227
      2  CA        -3.8150    0.5330  -28.7210 C.3     5  PHE5        0.1736
      3  C         -4.8540    0.4680  -27.6070 C.2     5  PHE5        0.2595
      4  O         -5.9710   -0.0190  -27.8280 O.2     5  PHE5       -0.2718
      5  CB        -4.2190    1.7090  -29.6580 C.3     5  PHE5        0.0547
      6  CG        -3.4990    1.6960  -30.9930 C.ar    5  PHE5       -0.0202
      7  CD1       -2.1450    1.8160  -31.0270 C.ar    5  PHE5       -0.0042
      8  CD2       -4.2100    1.4920  -32.1900 C.ar    5  PHE5       -0.0042
      9  CE1       -1.4540    1.8520  -32.2260 C.ar    5  PHE5       -0.0003
     10  CE2       -3.5330    1.4820  -33.4400 C.ar    5  PHE5       -0.0003
     11  CZ        -2.1480    1.6350  -33.4310 C.ar    5  PHE5       -0.0000
     12  N         -4.4940    0.8810  -26.4010 N.am    6  VAL6       -0.1966
     13  CA        -5.4960    0.9860  -25.3430 C.3     6  VAL6        0.1727
     14  C         -5.2450    2.1900  -24.4370 C.2     6  VAL6        0.2616
     15  O         -4.1030    2.6520  -24.2390 O.2     6  VAL6       -0.2715
     16  CB        -5.5310   -0.3130  -24.4830 C.3     6  VAL6        0.0290
     17  CG1       -4.1450   -0.5120  -23.7900 C.3     6  VAL6        0.0023
     18  CG2       -6.7120   -0.2710  -23.4810 C.3     6  VAL6        0.0023
     19  N         -6.3480    2.7450  -23.9670 N.am    7  GLY7       -0.1955
     20  CA        -6.3290    3.9410  -23.1250 C.3     7  GLY7        0.1869
     21  C         -7.4280    3.8110  -22.0770 C.2     7  GLY7        0.2309
     22  O         -8.5560    3.3370  -22.3270 O.2     7  GLY7       -0.2863
     23  N         -2.2810    5.4230  -21.2060 N.3    18  VAL18      -0.1245
     24  CA        -2.2890    4.9770  -22.5930 C.3    18  VAL18       0.1561
     25  C         -1.0750    4.0500  -22.7470 C.2    18  VAL18       0.2260
     26  O          0.0020    4.2780  -22.1260 O.2    18  VAL18      -0.2867
     27  CB        -2.1460    6.1350  -23.5480 C.3    18  VAL18       0.0252
     28  CG1       -2.0220    5.6310  -24.9950 C.3    18  VAL18       0.0019
     29  CG2       -3.3240    7.0780  -23.4020 C.3    18  VAL18       0.0019
     30  N          0.5630    2.9810  -28.4840 N.3    22  ALA22      -0.1245
     31  CA        -0.2710    4.1000  -29.0210 C.3    22  ALA22       0.1562
     32  C          0.5170    5.3980  -28.9170 C.2    22  ALA22       0.2260
     33  O          0.4630    6.2360  -29.8030 O.2    22  ALA22      -0.2867
     34  CB        -1.6460    4.2420  -28.3140 C.3    22  ALA22       0.0290
     35  N         -9.6130   13.2610  -24.3280 N.3    37  PHE37      -0.1241
     36  CA        -8.9990   12.3470  -25.3070 C.3    37  PHE37       0.1605
     37  C         -9.0760   12.8930  -26.7540 C.2    37  PHE37       0.2264
     38  O         -8.1340   12.6810  -27.5020 O.2    37  PHE37      -0.2867
     39  CB        -9.7350   11.0240  -25.1550 C.3    37  PHE37       0.0534
     40  CG        -9.2610    9.9040  -26.0280 C.ar   37  PHE37      -0.0203
     41  CD1       -7.9120    9.4550  -25.9910 C.ar   37  PHE37      -0.0042
     42  CD2      -10.2070    9.1830  -26.8320 C.ar   37  PHE37      -0.0042
     43  CE1       -7.5270    8.3000  -26.6730 C.ar   37  PHE37      -0.0003
     44  CE2       -9.8030    8.0320  -27.5820 C.ar   37  PHE37      -0.0003
     45  CZ        -8.4420    7.5970  -27.5040 C.ar   37  PHE37      -0.0000
     46  N         -3.7930   11.8620  -32.0980 N.3    42  TRP42      -0.1227
     47  CA        -4.4180   10.8310  -32.9660 C.3    42  TRP42       0.1737
     48  C         -5.6670   11.3260  -33.7150 C.2    42  TRP42       0.2595
     49  O         -5.9110   10.8550  -34.8570 O.2    42  TRP42      -0.2718
     50  CB        -4.8970    9.6080  -32.1680 C.3    42  TRP42       0.0564
     51  CG        -3.7500    8.9520  -31.3310 C.ar   42  TRP42       0.0003
     52  CD1       -2.7340    8.1470  -31.7970 C.ar   42  TRP42       0.0946
     53  CD2       -3.6140    9.0010  -29.9110 C.ar   42  TRP42       0.0152
     54  NE1       -1.9550    7.7290  -30.7050 N.ar   42  TRP42      -0.2442
     55  CE2       -2.4980    8.2280  -29.5520 C.ar   42  TRP42       0.0810
     56  CE3       -4.3700    9.6250  -28.8770 C.ar   42  TRP42       0.0012
     57  CZ2       -2.0700    8.1020  -28.1890 C.ar   42  TRP42       0.0191
     58  CZ3       -3.9470    9.4510  -27.5040 C.ar   42  TRP42       0.0001
     59  CH2       -2.8100    8.6960  -27.2170 C.ar   42  TRP42       0.0015
     60  N         -6.4190   12.1950  -33.0620 N.am   43  TRP43      -0.1976
     61  CA        -7.7230   12.6160  -33.5500 C.3    43  TRP43       0.1640
     62  C         -7.7180   13.9150  -34.3410 C.2    43  TRP43       0.2290
     63  O         -8.7990   14.4550  -34.6410 O.2    43  TRP43      -0.2864
     64  CB        -8.6940   12.7130  -32.3510 C.3    43  TRP43       0.0576
     65  CG        -8.6390   11.4660  -31.5990 C.ar   43  TRP43       0.0006
     66  CD1       -8.1680   11.2670  -30.3370 C.ar   43  TRP43       0.0946
     67  CD2       -9.0990   10.1690  -32.0800 C.ar   43  TRP43       0.0152
     68  NE1       -8.2570    9.9000  -29.9970 N.ar   43  TRP43      -0.2442
     69  CE2       -8.8510    9.2150  -31.0400 C.ar   43  TRP43       0.0810
     70  CE3       -9.6760    9.7530  -33.2520 C.ar   43  TRP43       0.0012
     71  CZ2       -9.1890    7.8460  -31.1900 C.ar   43  TRP43       0.0191
     72  CZ3      -10.0970    8.3830  -33.3550 C.ar   43  TRP43       0.0001
     73  CH2       -9.7780    7.4600  -32.3600 C.ar   43  TRP43       0.0015
     74  N         -6.6410    7.5190  -37.8820 N.3    72  ILE72      -0.1245
     75  CA        -5.9050    8.2730  -36.9020 C.3    72  ILE72       0.1561
     76  C         -4.4780    8.5640  -37.3530 C.2    72  ILE72       0.2260
     77  O         -3.9150    7.8490  -38.2010 O.2    72  ILE72      -0.2867
     78  CB        -5.8240    7.5950  -35.5270 C.3    72  ILE72       0.0252
     79  CG1       -5.0850    6.2580  -35.6270 C.3    72  ILE72       0.0019
     80  CG2       -7.2450    7.4630  -34.9430 C.3    72  ILE72       0.0019
     81  CD1       -4.8760    5.5010  -34.2800 C.3    72  ILE72       0.0001
     82  N         -8.2250    2.3350  -38.1910 N.3    84  VAL84      -0.1245
     83  CA        -8.3510    1.6410  -36.9010 C.3    84  VAL84       0.1561
     84  C         -9.8180    1.2240  -36.6490 C.2    84  VAL84       0.2260
     85  O        -10.7630    1.9700  -36.8730 O.2    84  VAL84      -0.2867
     86  CB        -7.8250    2.5850  -35.7870 C.3    84  VAL84       0.0252
     87  CG1       -8.2040    2.1460  -34.4210 C.3    84  VAL84       0.0019
     88  CG2       -6.2930    2.6780  -35.8740 C.3    84  VAL84       0.0019
     89  N        -12.0710    0.9590  -33.8880 N.3    86  PHE86      -0.1241
     90  CA       -12.0250    1.6780  -32.6060 C.3    86  PHE86       0.1605
     91  C        -13.2390    1.3490  -31.7300 C.2    86  PHE86       0.2264
     92  O        -14.3450    1.2820  -32.2350 O.2    86  PHE86      -0.2867
     93  CB       -11.9900    3.1770  -32.9180 C.3    86  PHE86       0.0534
     94  CG       -12.1310    4.0460  -31.7150 C.ar   86  PHE86      -0.0203
     95  CD1      -11.0510    4.1640  -30.8350 C.ar   86  PHE86      -0.0042
     96  CD2      -13.3040    4.7690  -31.4530 C.ar   86  PHE86      -0.0042
     97  CE1      -11.1540    4.9750  -29.6880 C.ar   86  PHE86      -0.0003
     98  CE2      -13.4270    5.5780  -30.2920 C.ar   86  PHE86      -0.0003
     99  CZ       -12.3350    5.6890  -29.4010 C.ar   86  PHE86      -0.0000
    100  N        -10.7160    2.8880  -24.0470 N.3   103  ALA103     -0.1231
    101  CA       -10.5840    3.1030  -25.4840 C.3   103  ALA103      0.1694
    102  C         -9.6940    2.0290  -26.0610 C.2   103  ALA103      0.2592
    103  O         -8.6290    1.7560  -25.5080 O.2   103  ALA103     -0.2718
    104  CB        -9.9740    4.5120  -25.7070 C.3   103  ALA103      0.0304
    105  N        -10.1030    1.3790  -27.1510 N.am  104  GLU104     -0.1966
    106  CA        -9.2830    0.3100  -27.6940 C.3   104  GLU104      0.1733
    107  C         -9.2240    0.4990  -29.1900 C.2   104  GLU104      0.2616
    108  O        -10.1840    1.0200  -29.8100 O.2   104  GLU104     -0.2715
    109  CB        -9.9200   -1.0860  -27.4270 C.3   104  GLU104      0.0429
    110  CG        -9.9270   -1.5670  -25.9720 C.3   104  GLU104      0.1163
    111  CD       -10.5970   -2.8870  -25.9100 C.2   104  GLU104      0.3649
    112  OE1       -9.9470   -3.8750  -26.2780 O.co2 104  GLU104     -0.2457
    113  OE2      -11.7950   -2.9520  -25.6020 O.co2 104  GLU104     -0.2457
    114  N         -8.1250    0.0740  -29.7760 N.am  105  GLY105     -0.1955
    115  CA        -8.0870    0.0740  -31.2690 C.3   105  GLY105      0.1869
    116  C         -7.1510   -0.9560  -31.8310 C.2   105  GLY105      0.2309
    117  O         -6.2190   -1.3680  -31.1680 O.2   105  GLY105     -0.2863
@<TRIPOS>BOND
     1    77    76    2
     2    82    83    1
     3    74    75    1
     4    76    75    1
     5    75    78    1
     6    83    84    1
     7    83    86    1
     8    85    84    2
     9    88    86    1
    10    86    87    1
    11    79    78    1
    12    79    81    1
    13    78    80    1
    14    49    48    2
    15    63    62    2
    16    62    61    1
    17    89    90    1
    18    48    60   am
    19    48    47    1
    20    61    60    1
    21    61    64    1
    22    10    11   ar
    23    10     8   ar
    24    11     9   ar
    25    72    70   ar
    26    72    73   ar
    27    70    67   ar
    28    47    50    1
    29    47    46    1
    30    93    90    1
    31    93    94    1
    32    90    91    1
    33    73    71   ar
    34    64    65    1
    35    92    91    2
    36     9     7   ar
    37     8     6   ar
    38    50    51    1
    39    67    65   ar
    40    67    69   ar
    41   116   115    1
    42   116   117    2
    43    52    51   ar
    44    52    54   ar
    45    94    96   ar
    46    94    95   ar
    47    65    66   ar
    48    96    98   ar
    49    51    53   ar
    50   115   114    1
    51    71    69   ar
    52    69    68   ar
    53     7     6   ar
    54     6     5    1
    55    95    97   ar
    56    54    55   ar
    57    66    68   ar
    58    98    99   ar
    59    53    55   ar
    60    53    56   ar
    61   108   107    2
    62    33    32    2
    63   114   107   am
    64    97    99   ar
    65     5     2    1
    66    55    57   ar
    67     1     2    1
    68   107   106    1
    69    31    32    1
    70    31    30    1
    71    31    34    1
    72    56    58   ar
    73     2     3    1
    74    57    59   ar
    75     4     3    2
    76   106   109    1
    77   106   105    1
    78     3    12   am
    79    44    45   ar
    80    44    42   ar
    81    45    43   ar
    82    58    59   ar
    83    38    37    2
    84   109   110    1
    85   105   102   am
    86    42    40   ar
    87    37    36    1
    88    43    41   ar
    89    12    13    1
    90   112   111   ar
    91   102   103    2
    92   102   101    1
    93    40    41   ar
    94    40    39    1
    95   110   111    1
    96   111   113   ar
    97   104   101    1
    98   101   100    1
    99    13    16    1
   100    13    14    1
   101    36    39    1
   102    36    35    1
   103    28    27    1
   104    16    17    1
   105    16    18    1
   106    14    15    2
   107    14    19   am
   108    19    20    1
   109    27    29    1
   110    27    24    1
   111    20    21    1
   112    25    24    1
   113    25    26    2
   114    24    23    1
   115    22    21    2
