@<TRIPOS>MOLECULE
tmp/5hwwA00.pdb
 117 115 0 0 0
SMALL
GASTEIGER

@<TRIPOS>ATOM
      1  N         -8.7670   -5.4100   15.9630 N.3     8  PHE8       -0.1227
      2  CA        -9.9020   -4.9740   15.0900 C.3     8  PHE8        0.1736
      3  C        -10.3470   -3.5920   15.5170 C.2     8  PHE8        0.2595
      4  O        -10.4120   -3.3110   16.7190 O.2     8  PHE8       -0.2718
      5  CB       -11.1450   -5.8570   15.2180 C.3     8  PHE8        0.0547
      6  CG       -11.0110   -7.2410   14.6250 C.ar    8  PHE8       -0.0202
      7  CD1       -9.7680   -7.8040   14.3690 C.ar    8  PHE8       -0.0042
      8  CD2      -12.1610   -7.9980   14.3600 C.ar    8  PHE8       -0.0042
      9  CE1       -9.6610   -9.0990   13.8590 C.ar    8  PHE8       -0.0003
     10  CE2      -12.0590   -9.3030   13.8510 C.ar    8  PHE8       -0.0003
     11  CZ       -10.8070   -9.8540   13.5990 C.ar    8  PHE8       -0.0000
     12  N        -10.7010   -2.7440   14.5440 N.am    9  VAL9       -0.1966
     13  CA       -11.2130   -1.3890   14.8850 C.3     9  VAL9        0.1727
     14  C        -12.1780   -0.9190   13.7830 C.2     9  VAL9        0.2616
     15  O        -11.9810   -1.2050   12.6070 O.2     9  VAL9       -0.2715
     16  CB       -10.1190   -0.3590   15.1520 C.3     9  VAL9        0.0290
     17  CG1       -9.3360   -0.0670   13.8750 C.3     9  VAL9        0.0023
     18  CG2      -10.7080    0.9070   15.7810 C.3     9  VAL9        0.0023
     19  N        -13.2290   -0.2160   14.1800 N.am   10  GLY10      -0.1955
     20  CA       -14.1560    0.2910   13.2280 C.3    10  GLY10       0.1869
     21  C        -14.8210    1.5360   13.7440 C.2    10  GLY10       0.2309
     22  O        -14.9140    1.6900   14.9550 O.2    10  GLY10      -0.2863
     23  N        -13.5270    0.5410    8.6210 N.3    21  VAL21      -0.1245
     24  CA       -13.1150   -0.7160    9.2710 C.3    21  VAL21       0.1561
     25  C        -11.6970   -0.9780    8.8000 C.2    21  VAL21       0.2260
     26  O        -11.4410   -0.8970    7.5960 O.2    21  VAL21      -0.2867
     27  CB       -14.0630   -1.9170    8.8690 C.3    21  VAL21       0.0252
     28  CG1      -13.6660   -3.1920    9.5910 C.3    21  VAL21       0.0019
     29  CG2      -15.5020   -1.6870    9.3770 C.3    21  VAL21       0.0019
     30  N         -9.7090   -6.4750   10.4880 N.3    25  ALA25      -0.1245
     31  CA       -11.0650   -6.9010   10.8470 C.3    25  ALA25       0.1562
     32  C        -11.8160   -7.4340    9.6260 C.2    25  ALA25       0.2260
     33  O        -12.5800   -8.4150    9.7450 O.2    25  ALA25      -0.2867
     34  CB       -11.8700   -5.7870   11.5200 C.3    25  ALA25       0.0290
     35  N        -23.7850   -2.2180   11.9060 N.3    41  PHE41      -0.1241
     36  CA       -22.6850   -3.0820   12.3480 C.3    41  PHE41       0.1605
     37  C        -23.1460   -4.4910   12.7040 C.2    41  PHE41       0.2264
     38  O        -22.4500   -5.4420   12.3620 O.2    41  PHE41      -0.2867
     39  CB       -22.0680   -2.4310   13.5830 C.3    41  PHE41       0.0534
     40  CG       -20.7700   -3.0480   14.0660 C.ar   41  PHE41      -0.0203
     41  CD1      -19.6760   -3.2440   13.2080 C.ar   41  PHE41      -0.0042
     42  CD2      -20.6030   -3.3250   15.4230 C.ar   41  PHE41      -0.0042
     43  CE1      -18.4630   -3.7370   13.7050 C.ar   41  PHE41      -0.0003
     44  CE2      -19.3970   -3.8090   15.9090 C.ar   41  PHE41      -0.0003
     45  CZ       -18.3290   -4.0260   15.0440 C.ar   41  PHE41      -0.0000
     46  N        -19.2410  -10.7760   11.2500 N.3    46  TRP46      -0.1227
     47  CA       -18.6560  -11.1230   12.5750 C.3    46  TRP46       0.1737
     48  C        -19.7230  -11.5570   13.5830 C.2    46  TRP46       0.2595
     49  O        -19.4480  -12.3610   14.4700 O.2    46  TRP46      -0.2718
     50  CB       -17.9810   -9.8980   13.1960 C.3    46  TRP46       0.0564
     51  CG       -16.8830   -9.2890   12.3290 C.ar   46  TRP46       0.0003
     52  CD1      -15.6750   -9.8330   12.0220 C.ar   46  TRP46       0.0946
     53  CD2      -16.9400   -8.0100   11.6730 C.ar   46  TRP46       0.0152
     54  NE1      -14.9280   -8.9460   11.2310 N.ar   46  TRP46      -0.2442
     55  CE2      -15.6920   -7.8280   10.9950 C.ar   46  TRP46       0.0810
     56  CE3      -17.9060   -6.9880   11.6140 C.ar   46  TRP46       0.0012
     57  CZ2      -15.3960   -6.6560   10.2510 C.ar   46  TRP46       0.0191
     58  CZ3      -17.5970   -5.7860   10.9210 C.ar   46  TRP46       0.0001
     59  CH2      -16.3540   -5.6450   10.2280 C.ar   46  TRP46       0.0015
     60  N        -20.9070  -10.9460   13.4820 N.am   47  TRP47      -0.1976
     61  CA       -21.9120  -11.0800   14.5130 C.3    47  TRP47       0.1640
     62  C        -22.9490  -12.1120   14.1010 C.2    47  TRP47       0.2290
     63  O        -23.9920  -12.2050   14.7180 O.2    47  TRP47      -0.2864
     64  CB       -22.5750   -9.7160   14.7410 C.3    47  TRP47       0.0576
     65  CG       -21.5380   -8.6320   15.0950 C.ar   47  TRP47       0.0006
     66  CD1      -21.1900   -7.5380   14.3390 C.ar   47  TRP47       0.0946
     67  CD2      -20.6960   -8.5820   16.2800 C.ar   47  TRP47       0.0152
     68  NE1      -20.2160   -6.8270   14.9820 N.ar   47  TRP47      -0.2442
     69  CE2      -19.8680   -7.4530   16.1520 C.ar   47  TRP47       0.0810
     70  CE3      -20.5820   -9.3830   17.4430 C.ar   47  TRP47       0.0012
     71  CZ2      -18.9420   -7.0730   17.1560 C.ar   47  TRP47       0.0191
     72  CZ3      -19.6440   -9.0290   18.4290 C.ar   47  TRP47       0.0001
     73  CH2      -18.8430   -7.8890   18.2780 C.ar   47  TRP47       0.0015
     74  N        -16.8780  -14.2540   18.0280 N.3    76  ILE76      -0.1245
     75  CA       -17.3090  -13.7830   16.7180 C.3    76  ILE76       0.1561
     76  C        -16.6890  -14.6330   15.6090 C.2    76  ILE76       0.2260
     77  O        -15.7600  -15.4030   15.8600 O.2    76  ILE76      -0.2867
     78  CB       -16.8180  -12.3500   16.4920 C.3    76  ILE76       0.0252
     79  CG1      -15.2770  -12.3080   16.5080 C.3    76  ILE76       0.0019
     80  CG2      -17.4090  -11.4110   17.5460 C.3    76  ILE76       0.0019
     81  CD1      -14.7190  -10.9250   16.3160 C.3    76  ILE76       0.0001
     82  N        -13.1270  -12.5430   21.5790 N.3    88  VAL88      -0.1245
     83  CA       -12.6070  -11.1760   21.5280 C.3    88  VAL88       0.1561
     84  C        -13.0190  -10.3680   22.7760 C.2    88  VAL88       0.2260
     85  O        -14.1480  -10.5150   23.2940 O.2    88  VAL88      -0.2867
     86  CB       -13.0960  -10.4600   20.2280 C.3    88  VAL88       0.0252
     87  CG1      -14.6130  -10.2910   20.2010 C.3    88  VAL88       0.0019
     88  CG2      -12.5040   -9.0950   20.1220 C.3    88  VAL88       0.0019
     89  N        -14.2600   -7.1280   23.4910 N.3    90  PHE90      -0.1241
     90  CA       -14.9980   -6.1620   22.6210 C.3    90  PHE90       0.1605
     91  C        -15.3710   -4.8820   23.3880 C.2    90  PHE90       0.2264
     92  O        -15.8040   -4.9780   24.5220 O.2    90  PHE90      -0.2867
     93  CB       -16.2580   -6.8450   22.0300 C.3    90  PHE90       0.0534
     94  CG       -17.1840   -5.8680   21.2850 C.ar   90  PHE90      -0.0203
     95  CD1      -16.8120   -5.4020   20.0060 C.ar   90  PHE90      -0.0042
     96  CD2      -18.3900   -5.3580   21.8900 C.ar   90  PHE90      -0.0042
     97  CE1      -17.6180   -4.4680   19.3380 C.ar   90  PHE90      -0.0003
     98  CE2      -19.1720   -4.3790   21.2240 C.ar   90  PHE90      -0.0003
     99  CZ       -18.7780   -3.9760   19.9280 C.ar   90  PHE90      -0.0000
    100  N        -15.7560    0.9290   17.6250 N.3   107  ALA107     -0.1231
    101  CA       -15.7370   -0.5200   17.9360 C.3   107  ALA107      0.1694
    102  C        -14.3070   -0.9790   17.9150 C.2   107  ALA107      0.2592
    103  O        -13.5620   -0.7120   16.9190 O.2   107  ALA107     -0.2718
    104  CB       -16.5180   -1.3150   16.8550 C.3   107  ALA107      0.0304
    105  N        -13.9140   -1.6550   18.9970 N.am  108  GLU108     -0.1966
    106  CA       -12.5980   -2.2430   19.0760 C.3   108  GLU108      0.1733
    107  C        -12.6220   -3.6920   19.5170 C.2   108  GLU108      0.2616
    108  O        -13.5200   -4.1100   20.2660 O.2   108  GLU108     -0.2715
    109  CB       -11.8070   -1.4940   20.1470 C.3   108  GLU108      0.0429
    110  CG       -11.4170   -0.0700   19.7250 C.3   108  GLU108      0.1163
    111  CD       -10.5750    0.5820   20.8350 C.2   108  GLU108      0.3649
    112  OE1       -9.3800    0.2060   20.9760 O.co2 108  GLU108     -0.2457
    113  OE2      -11.1550    1.4250   21.5770 O.co2 108  GLU108     -0.2457
    114  N        -11.5890   -4.4590   19.1440 N.am  109  GLY109     -0.1955
    115  CA       -11.6200   -5.8760   19.4370 C.3   109  GLY109      0.1869
    116  C        -10.2040   -6.3330   19.5510 C.2   109  GLY109      0.2309
    117  O         -9.4180   -6.0500   18.6730 O.2   109  GLY109     -0.2863
@<TRIPOS>BOND
     1    26    25    2
     2    23    24    1
     3    25    24    1
     4    27    24    1
     5    27    29    1
     6    27    28    1
     7    32    33    2
     8    32    31    1
     9    59    57   ar
    10    59    58   ar
    11    57    55   ar
    12    30    31    1
    13    31    34    1
    14    58    56   ar
    15    55    54   ar
    16    55    53   ar
    17    54    52   ar
    18    46    47    1
    19    56    53   ar
    20    53    51   ar
    21    35    36    1
    22    52    51   ar
    23    51    50    1
    24    36    37    1
    25    36    39    1
    26    38    37    2
    27    47    50    1
    28    47    48    1
    29    15    14    2
    30    41    43   ar
    31    41    40   ar
    32    20    21    1
    33    20    19    1
    34    60    48   am
    35    60    61    1
    36    48    49    2
    37    39    40    1
    38    11    10   ar
    39    11     9   ar
    40    43    45   ar
    41    21    22    2
    42    14    19   am
    43    14    13    1
    44    10     8   ar
    45     9     7   ar
    46    17    16    1
    47    40    42   ar
    48    62    61    1
    49    62    63    2
    50    66    68   ar
    51    66    65   ar
    52     8     6   ar
    53     7     6   ar
    54    61    64    1
    55    12    13    1
    56    12     3   am
    57     6     5    1
    58    64    65    1
    59    13    16    1
    60    68    69   ar
    61    45    44   ar
    62     2     5    1
    63     2     3    1
    64     2     1    1
    65    65    67   ar
    66    16    18    1
    67    42    44   ar
    68     3     4    2
    69    76    77    2
    70    76    75    1
    71    69    67   ar
    72    69    71   ar
    73    67    70   ar
    74    81    79    1
    75    78    79    1
    76    78    75    1
    77    78    80    1
    78    75    74    1
    79   104   101    1
    80   103   102    2
    81    71    73   ar
    82    70    72   ar
    83   100   101    1
    84   102   101    1
    85   102   105   am
    86    73    72   ar
    87   117   116    2
    88   105   106    1
    89   106   107    1
    90   106   109    1
    91   114   115    1
    92   114   107   am
    93    97    99   ar
    94    97    95   ar
    95   115   116    1
    96   107   108    2
    97   110   109    1
    98   110   111    1
    99    99    98   ar
   100    95    94   ar
   101    88    86    1
   102    87    86    1
   103    86    83    1
   104   111   112   ar
   105   111   113   ar
   106    98    96   ar
   107    94    96   ar
   108    94    93    1
   109    83    82    1
   110    83    84    1
   111    93    90    1
   112    90    91    1
   113    90    89    1
   114    84    85    2
   115    91    92    2
