@<TRIPOS>MOLECULE
tmp/5hwxA03.pdb
 76 70 0 0 0
SMALL
GASTEIGER

@<TRIPOS>ATOM
      1  N         12.1380   21.6180  -31.6460 N.3   252  VAL252     -0.1245
      2  CA        12.2770   22.8300  -30.8610 C.3   252  VAL252      0.1561
      3  C         11.2280   22.8520  -29.7530 C.2   252  VAL252      0.2260
      4  O         11.5510   23.0760  -28.5880 O.2   252  VAL252     -0.2867
      5  CB        12.1470   24.0930  -31.7330 C.3   252  VAL252      0.0252
      6  CG1       12.0250   25.3340  -30.8620 C.3   252  VAL252      0.0019
      7  CG2       13.3350   24.2090  -32.6710 C.3   252  VAL252      0.0019
      8  N         11.7010   22.5270  -25.6240 N.3   256  VAL256     -0.1245
      9  CA        11.1210   23.4780  -24.6860 C.3   256  VAL256      0.1561
     10  C         10.2900   22.7460  -23.6350 C.2   256  VAL256      0.2260
     11  O         10.3740   23.0490  -22.4460 O.2   256  VAL256     -0.2867
     12  CB        10.2420   24.5240  -25.3950 C.3   256  VAL256      0.0252
     13  CG1        9.5910   25.4480  -24.3730 C.3   256  VAL256      0.0019
     14  CG2       11.0680   25.3320  -26.3800 C.3   256  VAL256      0.0019
     15  N         12.4820   20.9150  -21.0550 N.3   259  ILE259     -0.1231
     16  CA        13.0960   21.8540  -20.1190 C.3   259  ILE259      0.1692
     17  C         12.1130   22.3270  -19.0400 C.2   259  ILE259      0.2591
     18  O         12.4580   22.3950  -17.8580 O.2   259  ILE259     -0.2718
     19  CB        13.6660   23.0720  -20.8770 C.3   259  ILE259      0.0266
     20  CG1       14.8340   22.6360  -21.7640 C.3   259  ILE259      0.0019
     21  CG2       14.0990   24.1710  -19.9160 C.3   259  ILE259      0.0020
     22  CD1       15.3950   23.7510  -22.6300 C.3   259  ILE259      0.0001
     23  N         10.8870   22.6390  -19.4500 N.am  260  MET260     -0.1979
     24  CA         9.8550   23.0700  -18.5110 C.3   260  MET260      0.1605
     25  C          9.3670   21.9310  -17.6180 C.2   260  MET260      0.2287
     26  O          9.0790   22.1420  -16.4370 O.2   260  MET260     -0.2864
     27  CB         8.6810   23.6770  -19.2680 C.3   260  MET260      0.0413
     28  CG         9.0860   24.8140  -20.1970 C.3   260  MET260      0.0598
     29  SD         7.6720   25.6890  -20.8740 S.3   260  MET260     -0.1393
     30  CE         7.3000   26.7630  -19.4830 C.3   260  MET260      0.0692
     31  N          8.9860   32.1760  -19.1190 N.3   284  LEU284     -0.1245
     32  CA         9.3660   31.2050  -20.1360 C.3   284  LEU284      0.1561
     33  C          8.2880   31.0460  -21.1990 C.2   284  LEU284      0.2260
     34  O          8.5890   30.8950  -22.3850 O.2   284  LEU284     -0.2867
     35  CB         9.6620   29.8550  -19.4930 C.3   284  LEU284      0.0270
     36  CG        10.9490   29.8300  -18.6720 C.3   284  LEU284      0.0019
     37  CD1       11.1370   28.4620  -18.0490 C.3   284  LEU284      0.0001
     38  CD2       12.1380   30.1980  -19.5400 C.3   284  LEU284      0.0001
     39  N          8.3450   34.2380  -23.3760 N.3   287  ILE287     -0.1231
     40  CA         9.4720   34.1060  -24.2910 C.3   287  ILE287      0.1692
     41  C          9.1460   33.1150  -25.4130 C.2   287  ILE287      0.2591
     42  O          9.4870   33.3450  -26.5740 O.2   287  ILE287     -0.2718
     43  CB        10.7450   33.6430  -23.5520 C.3   287  ILE287      0.0266
     44  CG1       11.2430   34.7350  -22.6070 C.3   287  ILE287      0.0019
     45  CG2       11.8490   33.2890  -24.5350 C.3   287  ILE287      0.0020
     46  CD1       12.4500   34.3110  -21.7890 C.3   287  ILE287      0.0001
     47  N          8.4740   32.0190  -25.0680 N.am  288  ALA288     -0.1980
     48  CA         8.1260   30.9940  -26.0510 C.3   288  ALA288      0.1597
     49  C          7.1610   31.5130  -27.1210 C.2   288  ALA288      0.2287
     50  O          7.3830   31.3070  -28.3150 O.2   288  ALA288     -0.2864
     51  CB         7.5330   29.7820  -25.3590 C.3   288  ALA288      0.0319
     52  N          8.9050   33.8650  -29.6360 N.3   291  SER291     -0.1202
     53  CA         9.9770   33.4570  -30.5390 C.3   291  SER291      0.2020
     54  C          9.7600   32.1500  -31.3050 C.2   291  SER291      0.2619
     55  O         10.4370   31.9090  -32.3040 O.2   291  SER291     -0.2717
     56  CB        11.2890   33.3680  -29.7580 C.3   291  SER291      0.2103
     57  OG        11.1530   32.5210  -28.6330 O.3   291  SER291     -0.2182
     58  N          8.8410   31.3030  -30.8540 N.am  292  LEU292     -0.1965
     59  CA         8.5420   30.0820  -31.6010 C.3   292  LEU292      0.1728
     60  C          7.8810   30.4250  -32.9300 C.2   292  LEU292      0.2616
     61  O          7.0640   31.3440  -33.0010 O.2   292  LEU292     -0.2715
     62  CB         7.6360   29.1480  -30.8010 C.3   292  LEU292      0.0311
     63  CG         8.2030   28.4930  -29.5440 C.3   292  LEU292      0.0022
     64  CD1        7.1130   27.7050  -28.8410 C.3   292  LEU292      0.0001
     65  CD2        9.3820   27.5980  -29.8790 C.3   292  LEU292      0.0001
     66  N          8.2440   29.6890  -33.9770 N.am  293  ARG293     -0.1977
     67  CA         7.6350   29.8600  -35.2950 C.3   293  ARG293      0.1597
     68  C          6.1350   29.5930  -35.2650 C.2   293  ARG293      0.2287
     69  O          5.7000   28.5480  -34.7820 O.2   293  ARG293     -0.2864
     70  CB         8.3010   28.9400  -36.3210 C.3   293  ARG293      0.0334
     71  CG         9.8120   28.8590  -36.2250 C.3   293  ARG293      0.0492
     72  CD        10.4650   30.2240  -36.4020 C.3   293  ARG293      0.2205
     73  NE        11.8160   30.2510  -35.8460 N.pl3 293  ARG293     -0.0865
     74  CZ        12.5140   31.3550  -35.6080 C.cat 293  ARG293      0.5346
     75  NH1       11.9900   32.5480  -35.8580 N.pl3 293  ARG293      0.1354
     76  NH2       13.7400   31.2590  -35.1160 N.pl3 293  ARG293      0.1354
@<TRIPOS>BOND
     1    72    71    1
     2    72    73    1
     3    70    71    1
     4    70    67    1
     5    75    74    1
     6    73    74    2
     7    74    76    1
     8    67    68    1
     9    67    66    1
    10    68    69    2
    11    66    60   am
    12    61    60    2
    13    60    59    1
    14     7     5    1
    15    55    54    2
    16     5     6    1
    17     5     2    1
    18     1     2    1
    19    59    58    1
    20    59    62    1
    21    54    58   am
    22    54    53    1
    23     2     3    1
    24    62    63    1
    25    53    56    1
    26    53    52    1
    27    65    63    1
    28    56    57    1
    29     3     4    2
    30    63    64    1
    31    50    49    2
    32    49    48    1
    33    42    41    2
    34    14    12    1
    35    48    51    1
    36    48    47    1
    37     8     9    1
    38    41    47   am
    39    41    40    1
    40    12     9    1
    41    12    13    1
    42     9    10    1
    43    45    43    1
    44    40    43    1
    45    40    39    1
    46    10    11    2
    47    43    44    1
    48    22    20    1
    49    44    46    1
    50    34    33    2
    51    20    19    1
    52    33    32    1
    53    15    16    1
    54    19    16    1
    55    19    21    1
    56    29    28    1
    57    29    30    1
    58    28    27    1
    59    32    35    1
    60    32    31    1
    61    16    17    1
    62    38    36    1
    63    35    36    1
    64    23    17   am
    65    23    24    1
    66    27    24    1
    67    17    18    2
    68    36    37    1
    69    24    25    1
    70    25    26    2
