@<TRIPOS>MOLECULE
tmp/5hwyA03.pdb
 93 88 0 0 0
SMALL
GASTEIGER

@<TRIPOS>ATOM
      1  N         19.6760   34.2740   28.6930 N.3     9  PHE9       -0.1241
      2  CA        18.5150   34.6270   27.8940 C.3     9  PHE9        0.1605
      3  C         18.8750   34.8040   26.4200 C.2     9  PHE9        0.2264
      4  O         18.2200   34.2490   25.5400 O.2     9  PHE9       -0.2867
      5  CB        17.8800   35.9030   28.4500 C.3     9  PHE9        0.0534
      6  CG        16.5930   36.2840   27.7790 C.ar    9  PHE9       -0.0203
      7  CD1       15.4140   35.6130   28.0810 C.ar    9  PHE9       -0.0042
      8  CD2       16.5580   37.3210   26.8570 C.ar    9  PHE9       -0.0042
      9  CE1       14.2210   35.9640   27.4640 C.ar    9  PHE9       -0.0003
     10  CE2       15.3690   37.6830   26.2370 C.ar    9  PHE9       -0.0003
     11  CZ        14.1990   37.0040   26.5420 C.ar    9  PHE9       -0.0000
     12  N         18.0660   32.2780   23.0880 N.3    13  LEU13      -0.1245
     13  CA        17.4510   32.7390   21.8500 C.3    13  LEU13       0.1561
     14  C         18.2880   32.3620   20.6310 C.2    13  LEU13       0.2260
     15  O         17.7550   31.9520   19.6040 O.2    13  LEU13      -0.2867
     16  CB        17.2500   34.2560   21.8850 C.3    13  LEU13       0.0270
     17  CG        16.2430   34.7850   22.9040 C.3    13  LEU13       0.0019
     18  CD1       16.2700   36.3050   22.9330 C.3    13  LEU13       0.0001
     19  CD2       14.8490   34.2650   22.5860 C.3    13  LEU13       0.0001
     20  N         -1.3510   28.4890   18.5480 N.3    84  LEU84      -0.1245
     21  CA        -0.2690   29.4260   18.2860 C.3    84  LEU84       0.1561
     22  C          0.6990   28.9120   17.2320 C.2    84  LEU84       0.2260
     23  O          0.9810   29.5880   16.2430 O.2    84  LEU84      -0.2867
     24  CB         0.4870   29.7240   19.5790 C.3    84  LEU84       0.0270
     25  CG         1.6940   30.6560   19.4710 C.3    84  LEU84       0.0019
     26  CD1        1.2810   32.0650   19.0280 C.3    84  LEU84       0.0001
     27  CD2        2.4440   30.6830   20.7980 C.3    84  LEU84       0.0001
     28  N          0.4570   30.4110   13.5240 N.3    88  LEU88      -0.1245
     29  CA         1.5510   31.1760   12.9330 C.3    88  LEU88       0.1561
     30  C          2.0710   30.5120   11.6580 C.2    88  LEU88       0.2260
     31  O          2.2540   31.1760   10.6360 O.2    88  LEU88      -0.2867
     32  CB         2.7020   31.3400   13.9320 C.3    88  LEU88       0.0270
     33  CG         2.4750   32.2600   15.1320 C.3    88  LEU88       0.0019
     34  CD1        3.7010   32.2710   16.0440 C.3    88  LEU88       0.0001
     35  CD2        2.1220   33.6760   14.6720 C.3    88  LEU88       0.0001
     36  N         16.7870   29.9290   28.0270 N.3   182  PHE182     -0.1241
     37  CA        15.7490   30.9550   27.9460 C.3   182  PHE182      0.1605
     38  C         14.9870   31.0720   29.2600 C.2   182  PHE182      0.2264
     39  O         14.8440   32.1640   29.8180 O.2   182  PHE182     -0.2867
     40  CB        14.7760   30.6290   26.8000 C.3   182  PHE182      0.0534
     41  CG        13.6280   31.6030   26.6640 C.ar  182  PHE182     -0.0203
     42  CD1       12.4740   31.4650   27.4220 C.ar  182  PHE182     -0.0042
     43  CD2       13.7000   32.6430   25.7580 C.ar  182  PHE182     -0.0042
     44  CE1       11.4250   32.3580   27.2850 C.ar  182  PHE182     -0.0003
     45  CE2       12.6550   33.5340   25.6170 C.ar  182  PHE182     -0.0003
     46  CZ        11.5170   33.3930   26.3810 C.ar  182  PHE182     -0.0000
     47  N          5.6370   27.9880   29.0030 N.3   207  PHE207     -0.1241
     48  CA         6.0090   28.4910   27.6930 C.3   207  PHE207      0.1605
     49  C          7.3460   27.9120   27.2410 C.2   207  PHE207      0.2264
     50  O          7.5460   27.6470   26.0590 O.2   207  PHE207     -0.2867
     51  CB         6.0710   30.0180   27.7010 C.3   207  PHE207      0.0534
     52  CG         6.4990   30.6080   26.3920 C.ar  207  PHE207     -0.0203
     53  CD1        5.6530   30.5790   25.2980 C.ar  207  PHE207     -0.0042
     54  CD2        7.7450   31.1950   26.2570 C.ar  207  PHE207     -0.0042
     55  CE1        6.0410   31.1180   24.0920 C.ar  207  PHE207     -0.0003
     56  CE2        8.1440   31.7380   25.0570 C.ar  207  PHE207     -0.0003
     57  CZ         7.2910   31.7010   23.9700 C.ar  207  PHE207     -0.0000
     58  N          7.5160   25.4440   18.8710 N.3   214  LEU214     -0.1231
     59  CA         7.3010   26.7450   18.2510 C.3   214  LEU214      0.1693
     60  C          8.4010   27.0960   17.2500 C.2   214  LEU214      0.2591
     61  O          8.1190   27.4230   16.1020 O.2   214  LEU214     -0.2718
     62  CB         7.2120   27.8430   19.3140 C.3   214  LEU214      0.0284
     63  CG         7.0760   29.2680   18.7670 C.3   214  LEU214      0.0019
     64  CD1        5.7990   29.4210   17.9310 C.3   214  LEU214      0.0001
     65  CD2        7.1350   30.3070   19.8850 C.3   214  LEU214      0.0001
     66  N          9.6540   27.0330   17.6850 N.am  215  MET215     -0.1979
     67  CA        10.7640   27.4640   16.8350 C.3   215  MET215      0.1605
     68  C         11.0000   26.4890   15.6870 C.2   215  MET215      0.2287
     69  O         11.2760   26.8960   14.5580 O.2   215  MET215     -0.2864
     70  CB        12.0370   27.6410   17.6740 C.3   215  MET215      0.0413
     71  CG        11.9190   28.7590   18.7100 C.3   215  MET215      0.0598
     72  SD        11.6170   30.3570   17.9330 S.3   215  MET215     -0.1393
     73  CE        13.2020   30.6570   17.1530 C.3   215  MET215      0.0692
     74  N          8.1210   26.9490   13.0790 N.3   218  LEU218     -0.1245
     75  CA         8.3530   28.1970   12.3610 C.3   218  LEU218      0.1561
     76  C          9.4960   28.0350   11.3680 C.2   218  LEU218      0.2260
     77  O          9.3980   28.4840   10.2300 O.2   218  LEU218     -0.2867
     78  CB         8.6500   29.3460   13.3240 C.3   218  LEU218      0.0270
     79  CG         7.4470   29.8570   14.1250 C.3   218  LEU218      0.0019
     80  CD1        7.8680   30.9870   15.0450 C.3   218  LEU218      0.0001
     81  CD2        6.3020   30.2850   13.2040 C.3   218  LEU218      0.0001
     82  N         -6.5700   30.8520   20.2790 N.3   292  TYR292     -0.1241
     83  CA        -5.4840   30.7780   21.2570 C.3   292  TYR292      0.1605
     84  C         -5.4840   31.9870   22.1950 C.2   292  TYR292      0.2264
     85  O         -5.2900   31.8440   23.3990 O.2   292  TYR292     -0.2867
     86  CB        -4.1220   30.6690   20.5610 C.3   292  TYR292      0.0534
     87  CG        -2.9600   30.6800   21.5270 C.ar  292  TYR292     -0.0201
     88  CD1       -2.6480   29.5530   22.2760 C.ar  292  TYR292     -0.0009
     89  CD2       -2.1780   31.8200   21.6960 C.ar  292  TYR292     -0.0009
     90  CE1       -1.5890   29.5550   23.1670 C.ar  292  TYR292      0.0417
     91  CE2       -1.1180   31.8310   22.5840 C.ar  292  TYR292      0.0417
     92  CZ        -0.8290   30.6960   23.3160 C.ar  292  TYR292      0.1957
     93  OH         0.2260   30.6990   24.1990 O.3   292  TYR292     -0.2866
@<TRIPOS>BOND
     1    77    76    2
     2    31    30    2
     3    76    75    1
     4    30    29    1
     5    75    74    1
     6    75    78    1
     7    29    28    1
     8    29    32    1
     9    81    79    1
    10    78    79    1
    11    32    33    1
    12    79    80    1
    13    69    68    2
    14    35    33    1
    15    33    34    1
    16    68    67    1
    17    61    60    2
    18    23    22    2
    19    67    70    1
    20    67    66    1
    21    73    72    1
    22    22    21    1
    23    60    66   am
    24    60    59    1
    25    70    71    1
    26    64    63    1
    27    72    71    1
    28    59    58    1
    29    59    62    1
    30    21    20    1
    31    21    24    1
    32    63    62    1
    33    63    65    1
    34    26    25    1
    35    25    24    1
    36    25    27    1
    37    15    14    2
    38    82    83    1
    39    86    83    1
    40    86    87    1
    41    14    13    1
    42    83    84    1
    43    87    89   ar
    44    87    88   ar
    45    89    91   ar
    46    13    16    1
    47    13    12    1
    48    16    17    1
    49    84    85    2
    50    88    90   ar
    51    91    92   ar
    52    19    17    1
    53    17    18    1
    54    90    92   ar
    55    92    93    1
    56    57    55   ar
    57    57    56   ar
    58    55    53   ar
    59    56    54   ar
    60    53    52   ar
    61     4     3    2
    62    45    43   ar
    63    45    46   ar
    64    43    41   ar
    65    50    49    2
    66    10    11   ar
    67    10     8   ar
    68    54    52   ar
    69    46    44   ar
    70    52    51    1
    71     3     2    1
    72    11     9   ar
    73    41    40    1
    74    41    42   ar
    75    40    37    1
    76     8     6   ar
    77    49    48    1
    78    44    42   ar
    79     9     7   ar
    80    48    51    1
    81    48    47    1
    82     6     7   ar
    83     6     5    1
    84     2     5    1
    85     2     1    1
    86    37    36    1
    87    37    38    1
    88    38    39    2
