@<TRIPOS>MOLECULE
tmp/5hwyA00.pdb
 94 88 0 0 0
SMALL
GASTEIGER

@<TRIPOS>ATOM
      1  N         19.6760   34.2740   28.6930 N.3     9  PHE9       -0.1241
      2  CA        18.5150   34.6270   27.8940 C.3     9  PHE9        0.1605
      3  C         18.8750   34.8040   26.4200 C.2     9  PHE9        0.2264
      4  O         18.2200   34.2490   25.5400 O.2     9  PHE9       -0.2867
      5  CB        17.8800   35.9030   28.4500 C.3     9  PHE9        0.0534
      6  CG        16.5930   36.2840   27.7790 C.ar    9  PHE9       -0.0203
      7  CD1       15.4140   35.6130   28.0810 C.ar    9  PHE9       -0.0042
      8  CD2       16.5580   37.3210   26.8570 C.ar    9  PHE9       -0.0042
      9  CE1       14.2210   35.9640   27.4640 C.ar    9  PHE9       -0.0003
     10  CE2       15.3690   37.6830   26.2370 C.ar    9  PHE9       -0.0003
     11  CZ        14.1990   37.0040   26.5420 C.ar    9  PHE9       -0.0000
     12  N         -2.3920   22.0820   27.9670 N.3    76  GLY76      -0.1225
     13  CA        -2.0820   23.4490   27.5920 C.3    76  GLY76       0.1811
     14  C         -1.1460   23.4640   26.3970 C.2    76  GLY76       0.2280
     15  O         -1.2750   24.3070   25.5040 O.2    76  GLY76      -0.2866
     16  N         -1.7110   25.0680   22.6290 N.3    80  CYS80      -0.1235
     17  CA        -0.6790   25.9430   22.0930 C.3    80  CYS80       0.1677
     18  C         -0.2150   25.4750   20.7070 C.2    80  CYS80       0.2270
     19  O         -0.0480   26.2840   19.7950 O.2    80  CYS80      -0.2867
     20  CB         0.5080   26.0150   23.0590 C.3    80  CYS80       0.0956
     21  SG         1.8690   27.0590   22.4900 S.3    80  CYS80      -0.0801
     22  N         16.7870   29.9290   28.0270 N.3   182  PHE182     -0.1241
     23  CA        15.7490   30.9550   27.9460 C.3   182  PHE182      0.1605
     24  C         14.9870   31.0720   29.2600 C.2   182  PHE182      0.2264
     25  O         14.8440   32.1640   29.8180 O.2   182  PHE182     -0.2867
     26  CB        14.7760   30.6290   26.8000 C.3   182  PHE182      0.0534
     27  CG        13.6280   31.6030   26.6640 C.ar  182  PHE182     -0.0203
     28  CD1       12.4740   31.4650   27.4220 C.ar  182  PHE182     -0.0042
     29  CD2       13.7000   32.6430   25.7580 C.ar  182  PHE182     -0.0042
     30  CE1       11.4250   32.3580   27.2850 C.ar  182  PHE182     -0.0003
     31  CE2       12.6550   33.5340   25.6170 C.ar  182  PHE182     -0.0003
     32  CZ        11.5170   33.3930   26.3810 C.ar  182  PHE182     -0.0000
     33  N         15.5090   34.0710   32.0050 N.3   186  ALA186     -0.1245
     34  CA        14.3590   34.9030   32.3450 C.3   186  ALA186      0.1562
     35  C         14.0110   34.8240   33.8390 C.2   186  ALA186      0.2260
     36  O         13.5930   35.8180   34.4380 O.2   186  ALA186     -0.2867
     37  CB        13.1630   34.5050   31.4960 C.3   186  ALA186      0.0290
     38  N          4.3340   30.2780   34.3450 N.3   203  THR203     -0.1203
     39  CA         4.1200   30.7910   32.9960 C.3   203  THR203      0.1994
     40  C          5.3770   30.6230   32.1540 C.2   203  THR203      0.2617
     41  O          5.3210   30.2030   30.9990 O.2   203  THR203     -0.2717
     42  CB         3.7320   32.2790   33.0140 C.3   203  THR203      0.1784
     43  OG1        2.5020   32.4440   33.7270 O.3   203  THR203     -0.2211
     44  CG2        3.5810   32.8090   31.5980 C.3   203  THR203      0.0376
     45  N          6.5100   30.9590   32.7590 N.am  204  LEU204     -0.1979
     46  CA         7.8150   30.8380   32.1230 C.3   204  LEU204      0.1596
     47  C          8.1330   29.3880   31.7860 C.2   204  LEU204      0.2287
     48  O          8.5810   29.0810   30.6800 O.2   204  LEU204     -0.2864
     49  CB         8.8880   31.4250   33.0390 C.3   204  LEU204      0.0297
     50  CG         9.9360   32.3680   32.4500 C.3   204  LEU204      0.0022
     51  CD1        9.3060   33.3980   31.5150 C.3   204  LEU204      0.0001
     52  CD2       10.6300   33.0790   33.6060 C.3   204  LEU204      0.0001
     53  N          5.9060   26.8220   31.5400 N.3   206  ALA206     -0.1231
     54  CA         4.9150   26.3160   30.5950 C.3   206  ALA206      0.1694
     55  C          5.2480   26.7310   29.1690 C.2   206  ALA206      0.2592
     56  O          5.1650   25.9270   28.2410 O.2   206  ALA206     -0.2718
     57  CB         3.5250   26.8030   30.9740 C.3   206  ALA206      0.0304
     58  N          5.6370   27.9880   29.0030 N.am  207  PHE207     -0.1976
     59  CA         6.0090   28.4910   27.6930 C.3   207  PHE207      0.1639
     60  C          7.3460   27.9120   27.2410 C.2   207  PHE207      0.2290
     61  O          7.5460   27.6470   26.0590 O.2   207  PHE207     -0.2864
     62  CB         6.0710   30.0180   27.7010 C.3   207  PHE207      0.0560
     63  CG         6.4990   30.6080   26.3920 C.ar  207  PHE207     -0.0200
     64  CD1        5.6530   30.5790   25.2980 C.ar  207  PHE207     -0.0042
     65  CD2        7.7450   31.1950   26.2570 C.ar  207  PHE207     -0.0042
     66  CE1        6.0410   31.1180   24.0920 C.ar  207  PHE207     -0.0003
     67  CE2        8.1440   31.7380   25.0570 C.ar  207  PHE207     -0.0003
     68  CZ         7.2910   31.7010   23.9700 C.ar  207  PHE207     -0.0000
     69  N          7.1270   24.6910   25.5010 N.3   210  SER210     -0.1217
     70  CA         6.5560   24.8240   24.1630 C.3   210  SER210      0.1889
     71  C          7.4980   25.4630   23.1340 C.2   210  SER210      0.2288
     72  O          7.2570   25.3550   21.9300 O.2   210  SER210     -0.2866
     73  CB         5.2620   25.6420   24.2240 C.3   210  SER210      0.2089
     74  OG         4.1680   24.8420   24.6340 O.3   210  SER210     -0.2183
     75  N         -6.5700   30.8520   20.2790 N.3   292  TYR292     -0.1241
     76  CA        -5.4840   30.7780   21.2570 C.3   292  TYR292      0.1605
     77  C         -5.4840   31.9870   22.1950 C.2   292  TYR292      0.2264
     78  O         -5.2900   31.8440   23.3990 O.2   292  TYR292     -0.2867
     79  CB        -4.1220   30.6690   20.5610 C.3   292  TYR292      0.0534
     80  CG        -2.9600   30.6800   21.5270 C.ar  292  TYR292     -0.0201
     81  CD1       -2.6480   29.5530   22.2760 C.ar  292  TYR292     -0.0009
     82  CD2       -2.1780   31.8200   21.6960 C.ar  292  TYR292     -0.0009
     83  CE1       -1.5890   29.5550   23.1670 C.ar  292  TYR292      0.0417
     84  CE2       -1.1180   31.8310   22.5840 C.ar  292  TYR292      0.0417
     85  CZ        -0.8290   30.6960   23.3160 C.ar  292  TYR292      0.1957
     86  OH         0.2260   30.6990   24.1990 O.3   292  TYR292     -0.2866
     87  N         -5.8720   31.8850   26.2390 N.3   296  ILE296     -0.1245
     88  CA        -4.9180   32.3480   27.2440 C.3   296  ILE296      0.1561
     89  C         -5.4990   33.4810   28.0810 C.2   296  ILE296      0.2260
     90  O         -5.0170   33.7500   29.1730 O.2   296  ILE296     -0.2867
     91  CB        -3.5820   32.8100   26.6200 C.3   296  ILE296      0.0252
     92  CG1       -3.8200   33.8930   25.5680 C.3   296  ILE296      0.0019
     93  CG2       -2.8280   31.6180   26.0390 C.3   296  ILE296      0.0019
     94  CD1       -2.5560   34.6050   25.1260 C.3   296  ILE296      0.0001
@<TRIPOS>BOND
     1    19    18    2
     2    75    76    1
     3    79    76    1
     4    79    80    1
     5    18    17    1
     6    76    77    1
     7    80    82   ar
     8    80    81   ar
     9    82    84   ar
    10    72    71    2
    11    17    16    1
    12    17    20    1
    13    77    78    2
    14    81    83   ar
    15    21    20    1
    16    84    85   ar
    17    71    70    1
    18    83    85   ar
    19    85    86    1
    20    68    66   ar
    21    68    67   ar
    22    66    64   ar
    23    70    73    1
    24    70    69    1
    25    73    74    1
    26    67    65   ar
    27    94    92    1
    28    64    63   ar
    29    15    14    2
    30     4     3    2
    31    92    91    1
    32    31    29   ar
    33    31    32   ar
    34    29    27   ar
    35    93    91    1
    36    61    60    2
    37    10    11   ar
    38    10     8   ar
    39    87    88    1
    40    65    63   ar
    41    32    30   ar
    42    63    62    1
    43    14    13    1
    44     3     2    1
    45    11     9   ar
    46    91    88    1
    47    27    26    1
    48    27    28   ar
    49    26    23    1
    50     8     6   ar
    51    60    59    1
    52    88    89    1
    53    30    28   ar
    54     9     7   ar
    55    13    12    1
    56    59    62    1
    57    59    58    1
    58     6     7   ar
    59     6     5    1
    60     2     5    1
    61     2     1    1
    62    23    22    1
    63    23    24    1
    64    89    90    2
    65    56    55    2
    66    58    55   am
    67    55    54    1
    68    24    25    2
    69    54    57    1
    70    54    53    1
    71    48    47    2
    72    41    40    2
    73    37    34    1
    74    51    50    1
    75    44    42    1
    76    47    46    1
    77    33    34    1
    78    46    45    1
    79    46    49    1
    80    40    45   am
    81    40    39    1
    82    34    35    1
    83    50    49    1
    84    50    52    1
    85    39    42    1
    86    39    38    1
    87    42    43    1
    88    35    36    2
