@<TRIPOS>MOLECULE
tmp/5hwyA02.pdb
 77 70 0 0 0
SMALL
GASTEIGER

@<TRIPOS>ATOM
      1  N         19.6760   34.2740   28.6930 N.3     9  PHE9       -0.1227
      2  CA        18.5150   34.6270   27.8940 C.3     9  PHE9        0.1736
      3  C         18.8750   34.8040   26.4200 C.2     9  PHE9        0.2595
      4  O         18.2200   34.2490   25.5400 O.2     9  PHE9       -0.2718
      5  CB        17.8800   35.9030   28.4500 C.3     9  PHE9        0.0547
      6  CG        16.5930   36.2840   27.7790 C.ar    9  PHE9       -0.0202
      7  CD1       15.4140   35.6130   28.0810 C.ar    9  PHE9       -0.0042
      8  CD2       16.5580   37.3210   26.8570 C.ar    9  PHE9       -0.0042
      9  CE1       14.2210   35.9640   27.4640 C.ar    9  PHE9       -0.0003
     10  CE2       15.3690   37.6830   26.2370 C.ar    9  PHE9       -0.0003
     11  CZ        14.1990   37.0040   26.5420 C.ar    9  PHE9       -0.0000
     12  N         19.9250   35.5730   26.1570 N.am   10  LEU10      -0.1980
     13  CA        20.3360   35.8550   24.7890 C.3    10  LEU10       0.1596
     14  C         20.9110   34.6120   24.1180 C.2    10  LEU10       0.2287
     15  O         20.5820   34.3100   22.9690 O.2    10  LEU10      -0.2864
     16  CB        21.3540   36.9990   24.7590 C.3    10  LEU10       0.0297
     17  CG        20.7850   38.3840   25.0850 C.3    10  LEU10       0.0022
     18  CD1       21.8510   39.4550   24.9450 C.3    10  LEU10       0.0001
     19  CD2       19.5910   38.7000   24.1920 C.3    10  LEU10       0.0001
     20  N         18.0660   32.2780   23.0880 N.3    13  LEU13      -0.1245
     21  CA        17.4510   32.7390   21.8500 C.3    13  LEU13       0.1561
     22  C         18.2880   32.3620   20.6310 C.2    13  LEU13       0.2260
     23  O         17.7550   31.9520   19.6040 O.2    13  LEU13      -0.2867
     24  CB        17.2500   34.2560   21.8850 C.3    13  LEU13       0.0270
     25  CG        16.2430   34.7850   22.9040 C.3    13  LEU13       0.0019
     26  CD1       16.2700   36.3050   22.9330 C.3    13  LEU13       0.0001
     27  CD2       14.8490   34.2650   22.5860 C.3    13  LEU13       0.0001
     28  N         15.5090   34.0710   32.0050 N.3   186  ALA186     -0.1245
     29  CA        14.3590   34.9030   32.3450 C.3   186  ALA186      0.1562
     30  C         14.0110   34.8240   33.8390 C.2   186  ALA186      0.2260
     31  O         13.5930   35.8180   34.4380 O.2   186  ALA186     -0.2867
     32  CB        13.1630   34.5050   31.4960 C.3   186  ALA186      0.0290
     33  N         16.6050   36.9380   35.6430 N.3   189  ILE189     -0.1231
     34  CA        16.3150   38.3500   35.4230 C.3   189  ILE189      0.1692
     35  C         15.1580   38.7910   36.3190 C.2   189  ILE189      0.2591
     36  O         15.2470   39.8090   36.9990 O.2   189  ILE189     -0.2718
     37  CB        15.9870   38.6290   33.9420 C.3   189  ILE189      0.0266
     38  CG1       17.2520   38.4720   33.0850 C.3   189  ILE189      0.0019
     39  CG2       15.3860   40.0150   33.7690 C.3   189  ILE189      0.0020
     40  CD1       16.9940   38.5440   31.5680 C.3   189  ILE189      0.0001
     41  N         14.0860   38.0040   36.3330 N.am  190  ALA190     -0.1980
     42  CA        12.9280   38.2900   37.1750 C.3   190  ALA190      0.1597
     43  C         13.2930   38.2900   38.6670 C.2   190  ALA190      0.2287
     44  O         12.7930   39.1080   39.4400 O.2   190  ALA190     -0.2864
     45  CB        11.8180   37.2800   36.9010 C.3   190  ALA190      0.0319
     46  N         15.3380   41.4090   39.4820 N.3   193  LEU193     -0.1245
     47  CA        14.4780   42.5890   39.4890 C.3   193  LEU193      0.1561
     48  C         13.4670   42.5430   40.6220 C.2   193  LEU193      0.2260
     49  O         12.6650   43.4630   40.7780 O.2   193  LEU193     -0.2867
     50  CB        13.7410   42.7230   38.1570 C.3   193  LEU193      0.0270
     51  CG        14.6140   43.0780   36.9580 C.3   193  LEU193      0.0019
     52  CD1       13.7760   43.1030   35.6910 C.3   193  LEU193      0.0001
     53  CD2       15.2780   44.4140   37.1930 C.3   193  LEU193      0.0001
     54  N         10.8430   40.7460   40.8450 N.3   195  ILE195     -0.1245
     55  CA         9.4700   40.6920   40.3400 C.3   195  ILE195      0.1561
     56  C          9.0300   39.2610   40.0810 C.2   195  ILE195      0.2260
     57  O          8.0380   39.0210   39.3940 O.2   195  ILE195     -0.2867
     58  CB         9.2930   41.4960   39.0370 C.3   195  ILE195      0.0252
     59  CG1       10.1580   40.9060   37.9230 C.3   195  ILE195      0.0019
     60  CG2        9.6050   42.9650   39.2610 C.3   195  ILE195      0.0019
     61  CD1        9.9500   41.5730   36.5920 C.3   195  ILE195      0.0001
     62  N          4.4150   34.1110   37.4100 N.3   200  ILE200     -0.1245
     63  CA         5.4230   34.3460   36.3820 C.3   200  ILE200      0.1561
     64  C          6.3010   33.1040   36.1890 C.2   200  ILE200      0.2260
     65  O          6.6640   32.7550   35.0620 O.2   200  ILE200     -0.2867
     66  CB         6.3010   35.5780   36.7300 C.3   200  ILE200      0.0252
     67  CG1        5.4610   36.8560   36.6420 C.3   200  ILE200      0.0019
     68  CG2        7.5080   35.6770   35.8010 C.3   200  ILE200      0.0019
     69  CD1        6.2600   38.1510   36.7540 C.3   200  ILE200      0.0001
     70  N          6.5100   30.9590   32.7590 N.3   204  LEU204     -0.1245
     71  CA         7.8150   30.8380   32.1230 C.3   204  LEU204      0.1561
     72  C          8.1330   29.3880   31.7860 C.2   204  LEU204      0.2260
     73  O          8.5810   29.0810   30.6800 O.2   204  LEU204     -0.2867
     74  CB         8.8880   31.4250   33.0390 C.3   204  LEU204      0.0270
     75  CG         9.9360   32.3680   32.4500 C.3   204  LEU204      0.0019
     76  CD1        9.3060   33.3980   31.5150 C.3   204  LEU204      0.0001
     77  CD2       10.6300   33.0790   33.6060 C.3   204  LEU204      0.0001
@<TRIPOS>BOND
     1    23    22    2
     2    22    21    1
     3    21    24    1
     4    21    20    1
     5    24    25    1
     6    27    25    1
     7    25    26    1
     8    15    14    2
     9    14    13    1
    10    19    17    1
    11    16    13    1
    12    16    17    1
    13    13    12    1
    14    18    17    1
    15     4     3    2
    16    12     3   am
    17    10    11   ar
    18    10     8   ar
    19     3     2    1
    20    11     9   ar
    21     8     6   ar
    22     9     7   ar
    23     6     7   ar
    24     6     5    1
    25     2     5    1
    26     2     1    1
    27    73    72    2
    28    32    29    1
    29    76    75    1
    30    40    38    1
    31    72    71    1
    32    28    29    1
    33    71    70    1
    34    71    74    1
    35    29    30    1
    36    75    74    1
    37    75    77    1
    38    38    37    1
    39    39    37    1
    40    30    31    2
    41    37    34    1
    42    65    64    2
    43    34    33    1
    44    34    35    1
    45    52    51    1
    46    68    66    1
    47    64    63    1
    48    35    41   am
    49    35    36    2
    50    41    42    1
    51    63    66    1
    52    63    62    1
    53    61    59    1
    54    67    66    1
    55    67    69    1
    56    45    42    1
    57    51    53    1
    58    51    50    1
    59    42    43    1
    60    59    58    1
    61    50    47    1
    62    43    44    2
    63    58    60    1
    64    58    55    1
    65    57    56    2
    66    46    47    1
    67    47    48    1
    68    56    55    1
    69    55    54    1
    70    48    49    2
