@<TRIPOS>MOLECULE
tmp/5hx0A00.pdb
 127 122 0 0 0
SMALL
GASTEIGER

@<TRIPOS>ATOM
      1  N         29.2930   86.1860   -8.4350 N.3   105  TYR105     -0.1241
      2  CA        29.5000   87.5280   -8.9670 C.3   105  TYR105      0.1605
      3  C         30.8450   87.5280   -9.6770 C.2   105  TYR105      0.2264
      4  O         31.6290   86.5900   -9.5360 O.2   105  TYR105     -0.2867
      5  CB        29.4250   88.6100   -7.8840 C.3   105  TYR105      0.0534
      6  CG        30.2840   88.3960   -6.6380 C.ar  105  TYR105     -0.0201
      7  CD1       31.5620   88.9350   -6.5660 C.ar  105  TYR105     -0.0009
      8  CD2       29.7880   87.7120   -5.5210 C.ar  105  TYR105     -0.0009
      9  CE1       32.3430   88.7950   -5.4320 C.ar  105  TYR105      0.0417
     10  CE2       30.5800   87.5560   -4.3700 C.ar  105  TYR105      0.0417
     11  CZ        31.8580   88.1020   -4.3500 C.ar  105  TYR105      0.1957
     12  OH        32.6760   87.9770   -3.2450 O.3   105  TYR105     -0.2866
     13  N         34.1770   89.5590  -12.2300 N.3   107  TRP107     -0.1241
     14  CA        35.1760   90.5850  -12.5130 C.3   107  TRP107      0.1605
     15  C         35.5470   90.5240  -13.9840 C.2   107  TRP107      0.2264
     16  O         35.8830   89.4470  -14.4900 O.2   107  TRP107     -0.2867
     17  CB        36.4560   90.3630  -11.6870 C.3   107  TRP107      0.0550
     18  CG        36.2720   90.5940  -10.2330 C.ar  107  TRP107      0.0003
     19  CD1       36.0790   89.6480   -9.2620 C.ar  107  TRP107      0.0946
     20  CD2       36.2600   91.8700   -9.5720 C.ar  107  TRP107      0.0152
     21  NE1       35.9490   90.2680   -8.0300 N.ar  107  TRP107     -0.2442
     22  CE2       36.0570   91.6270   -8.1990 C.ar  107  TRP107      0.0810
     23  CE3       36.3940   93.1920  -10.0150 C.ar  107  TRP107      0.0012
     24  CZ2       36.0000   92.6620   -7.2550 C.ar  107  TRP107      0.0191
     25  CZ3       36.3400   94.2150   -9.0870 C.ar  107  TRP107      0.0001
     26  CH2       36.1420   93.9480   -7.7210 C.ar  107  TRP107      0.0015
     27  N         33.5050   99.9920  -10.1400 N.3   122  PHE122     -0.1241
     28  CA        34.3770   99.5530   -9.0580 C.3   122  PHE122      0.1605
     29  C         35.5640   98.7820   -9.6170 C.2   122  PHE122      0.2264
     30  O         35.3900   97.7590  -10.2970 O.2   122  PHE122     -0.2867
     31  CB        33.6410   98.7160   -8.0240 C.3   122  PHE122      0.0534
     32  CG        34.4890   98.4170   -6.8160 C.ar  122  PHE122     -0.0203
     33  CD1       34.7870   99.4160   -5.8990 C.ar  122  PHE122     -0.0042
     34  CD2       35.0350   97.1640   -6.6290 C.ar  122  PHE122     -0.0042
     35  CE1       35.5880   99.1510   -4.7970 C.ar  122  PHE122     -0.0003
     36  CE2       35.8450   96.8980   -5.5350 C.ar  122  PHE122     -0.0003
     37  CZ        36.1190   97.8950   -4.6230 C.ar  122  PHE122     -0.0000
     38  N         34.3360   95.4790  -11.6730 N.3   129  PHE129     -0.1241
     39  CA        33.3250   94.6330  -11.0490 C.3   129  PHE129      0.1605
     40  C         32.1330   94.3990  -11.9800 C.2   129  PHE129      0.2264
     41  O         31.6650   95.3170  -12.6640 O.2   129  PHE129     -0.2867
     42  CB        32.8770   95.3070   -9.7460 C.3   129  PHE129      0.0534
     43  CG        32.1060   94.4110   -8.8130 C.ar  129  PHE129     -0.0203
     44  CD1       32.4350   93.0870   -8.6810 C.ar  129  PHE129     -0.0042
     45  CD2       31.0830   94.9300   -8.0270 C.ar  129  PHE129     -0.0042
     46  CE1       31.7190   92.2610   -7.8010 C.ar  129  PHE129     -0.0003
     47  CE2       30.3680   94.1270   -7.1570 C.ar  129  PHE129     -0.0003
     48  CZ        30.6880   92.7890   -7.0470 C.ar  129  PHE129     -0.0000
     49  N         24.3550   91.1640   -5.3210 N.3   168  TYR168     -0.1241
     50  CA        25.2900   90.0460   -5.1450 C.3   168  TYR168      0.1605
     51  C         25.5980   89.9420   -3.6550 C.2   168  TYR168      0.2264
     52  O         25.3970   90.8990   -2.9020 O.2   168  TYR168     -0.2867
     53  CB        26.6060   90.2760   -5.9240 C.3   168  TYR168      0.0534
     54  CG        27.3540   91.4390   -5.3070 C.ar  168  TYR168     -0.0201
     55  CD1       27.0090   92.7400   -5.6340 C.ar  168  TYR168     -0.0009
     56  CD2       28.3320   91.2380   -4.3080 C.ar  168  TYR168     -0.0009
     57  CE1       27.6240   93.8190   -5.0280 C.ar  168  TYR168      0.0417
     58  CE2       28.9480   92.3090   -3.6930 C.ar  168  TYR168      0.0417
     59  CZ        28.5860   93.6050   -4.0530 C.ar  168  TYR168      0.1957
     60  OH        29.1680   94.7000   -3.4450 O.3   168  TYR168     -0.2866
     61  N         27.1080   98.9890   -2.7570 N.3   187  THR187     -0.1218
     62  CA        27.9520  100.1630   -2.5570 C.3   187  THR187      0.1862
     63  C         27.0500  101.3870   -2.6000 C.2   187  THR187      0.2287
     64  O         26.4180  101.6450   -3.6280 O.2   187  THR187     -0.2866
     65  CB        29.0280  100.2720   -3.6410 C.3   187  THR187      0.1770
     66  OG1       29.8930   99.1420   -3.5990 O.3   187  THR187     -0.2211
     67  CG2       29.8710  101.5460   -3.4440 C.3   187  THR187      0.0375
     68  N         34.6560  104.4690    0.1040 N.3   193  ASN193     -0.1240
     69  CA        33.7600  103.3560   -0.1970 C.3   193  ASN193      0.1653
     70  C         32.9580  102.9490    1.0390 C.2   193  ASN193      0.2266
     71  O         33.5070  102.8200    2.1350 O.2   193  ASN193     -0.2867
     72  CB        34.5870  102.1730   -0.7160 C.3   193  ASN193      0.1155
     73  CG        33.7380  100.9710   -1.0700 C.2   193  ASN193      0.2627
     74  OD1       33.4230  100.1380   -0.2130 O.2   193  ASN193     -0.2716
     75  ND2       33.3650  100.8670   -2.3410 N.am  193  ASN193     -0.0877
     76  N         29.5190  100.1720    2.0140 N.3   195  THR195     -0.1218
     77  CA        28.4760   99.2360    1.6280 C.3   195  THR195      0.1862
     78  C         27.4570   99.0890    2.7480 C.2   195  THR195      0.2287
     79  O         27.7650   99.2850    3.9380 O.2   195  THR195     -0.2866
     80  CB        29.0440   97.8380    1.2590 C.3   195  THR195      0.1770
     81  OG1       29.7370   97.2640    2.3830 O.3   195  THR195     -0.2211
     82  CG2       29.9840   97.9210    0.0590 C.3   195  THR195      0.0375
     83  N         28.9060   94.1310    4.5270 N.3   224  ASN224     -0.1225
     84  CA        29.0230   93.5020    3.2130 C.3   224  ASN224      0.1785
     85  C         28.5550   92.0520    3.2720 C.2   224  ASN224      0.2597
     86  O         27.3570   91.7880    3.1010 O.2   224  ASN224     -0.2718
     87  CB        30.4580   93.6470    2.6400 C.3   224  ASN224      0.1169
     88  CG        31.5720   93.4140    3.6790 C.2   224  ASN224      0.2627
     89  OD1       31.6900   92.3260    4.2410 O.2   224  ASN224     -0.2716
     90  ND2       32.4240   94.4150    3.8810 N.am  224  ASN224     -0.0877
     91  N         29.4500   91.1030    3.5340 N.am  225  GLU225     -0.1979
     92  CA        29.0630   89.6870    3.4510 C.3   225  GLU225      0.1602
     93  C         28.0890   89.3180    4.5710 C.2   225  GLU225      0.2287
     94  O         28.3190   89.6430    5.7380 O.2   225  GLU225     -0.2864
     95  CB        30.3190   88.8180    3.5100 C.3   225  GLU225      0.0415
     96  CG        31.1570   89.0700    2.3070 C.3   225  GLU225      0.1163
     97  CD        32.4980   88.3890    2.3560 C.2   225  GLU225      0.3649
     98  OE1       32.9460   87.9680    3.4470 O.co2 225  GLU225     -0.2457
     99  OE2       33.1170   88.2860    1.2880 O.co2 225  GLU225     -0.2457
    100  N         29.3170   90.6300    8.2570 N.3   241  ARG241     -0.1245
    101  CA        30.7080   91.0770    8.2430 C.3   241  ARG241      0.1563
    102  C         30.7700   92.5990    8.0940 C.2   241  ARG241      0.2260
    103  O         30.0110   93.1890    7.3260 O.2   241  ARG241     -0.2867
    104  CB        31.4590   90.4160    7.0870 C.3   241  ARG241      0.0307
    105  CG        32.8620   90.9900    6.8270 C.3   241  ARG241      0.0489
    106  CD        33.5330   90.2860    5.6390 C.3   241  ARG241      0.2205
    107  NE        34.8420   90.8740    5.3610 N.pl3 241  ARG241     -0.0865
    108  CZ        35.7470   90.3550    4.5300 C.cat 241  ARG241      0.5346
    109  NH1       35.4900   89.2360    3.8730 N.pl3 241  ARG241      0.1354
    110  NH2       36.9230   90.9480    4.3650 N.pl3 241  ARG241      0.1354
    111  N         33.2040   96.3920    7.8310 N.3   243  ALA243     -0.1245
    112  CA        34.4550   97.1120    7.6210 C.3   243  ALA243      0.1562
    113  C         34.3640   98.4170    8.3980 C.2   243  ALA243      0.2260
    114  O         33.2990   99.0400    8.4470 O.2   243  ALA243     -0.2867
    115  CB        34.7260   97.3850    6.1230 C.3   243  ALA243      0.0290
    116  N         36.0590   81.7240    5.4230 N.3   326  TYR326     -0.1241
    117  CA        34.7820   81.5380    4.7390 C.3   326  TYR326      0.1605
    118  C         34.1610   80.1600    5.0190 C.2   326  TYR326      0.2264
    119  O         33.8450   79.4280    4.0760 O.2   326  TYR326     -0.2867
    120  CB        34.9520   81.7480    3.2390 C.3   326  TYR326      0.0534
    121  CG        35.1010   83.2000    2.8120 C.ar  326  TYR326     -0.0201
    122  CD1       36.1360   83.9980    3.2970 C.ar  326  TYR326     -0.0009
    123  CD2       34.1800   83.7780    1.9410 C.ar  326  TYR326     -0.0009
    124  CE1       36.2720   85.3380    2.9140 C.ar  326  TYR326      0.0417
    125  CE2       34.3000   85.1040    1.5510 C.ar  326  TYR326      0.0417
    126  CZ        35.3450   85.8780    2.0410 C.ar  326  TYR326      0.1957
    127  OH        35.4470   87.1900    1.6350 O.3   326  TYR326     -0.2866
@<TRIPOS>BOND
     1    16    15    2
     2    15    14    1
     3    41    40    2
     4    14    13    1
     5    14    17    1
     6    40    39    1
     7    17    18    1
     8    38    39    1
     9    39    42    1
    10    30    29    2
    11    18    20   ar
    12    18    19   ar
    13    27    28    1
    14    23    20   ar
    15    23    25   ar
    16    42    43    1
    17     3     4    2
    18     3     2    1
    19    29    28    1
    20    20    22   ar
    21    19    21   ar
    22    25    26   ar
    23    28    31    1
    24     2     1    1
    25     2     5    1
    26    43    44   ar
    27    43    45   ar
    28    44    46   ar
    29    22    21   ar
    30    22    24   ar
    31    45    47   ar
    32    31    32    1
    33     5     6    1
    34    46    48   ar
    35    26    24   ar
    36    47    48   ar
    37    32    34   ar
    38    32    33   ar
    39     6     7   ar
    40     6     8   ar
    41    34    36   ar
    42     7     9   ar
    43    53    54    1
    44    53    50    1
    45    33    35   ar
    46    55    54   ar
    47    55    57   ar
    48    36    37   ar
    49     8    10   ar
    50     9    11   ar
    51    49    50    1
    52    54    56   ar
    53    50    51    1
    54    57    59   ar
    55    35    37   ar
    56    10    11   ar
    57    11    12    1
    58    56    58   ar
    59    59    58   ar
    60    59    60    1
    61    51    52    2
    62    65    66    1
    63    65    67    1
    64    65    62    1
    65    64    63    2
    66    61    62    1
    67    63    62    1
    68    75    73   am
    69    73    72    1
    70    73    74    2
    71    72    69    1
    72    69    68    1
    73    69    70    1
    74    82    80    1
    75    70    71    2
    76    80    77    1
    77    80    81    1
    78    99    97   ar
    79   125   123   ar
    80   125   126   ar
    81    77    76    1
    82    77    78    1
    83   127   126    1
    84   123   121   ar
    85   126   124   ar
    86    96    97    1
    87    96    95    1
    88    97    98   ar
    89    87    84    1
    90    87    88    1
    91    78    79    2
    92   121   120    1
    93   121   122   ar
    94   124   122   ar
    95    86    85    2
    96    84    85    1
    97    84    83    1
    98   120   117    1
    99    85    91   am
   100    92    95    1
   101    92    91    1
   102    92    93    1
   103    88    90   am
   104    88    89    2
   105   109   108    1
   106   119   118    2
   107   110   108    1
   108   108   107    2
   109    93    94    2
   110   117   118    1
   111   117   116    1
   112   107   106    1
   113   106   105    1
   114   115   112    1
   115   105   104    1
   116   104   101    1
   117   103   102    2
   118   112   111    1
   119   112   113    1
   120   102   101    1
   121   101   100    1
   122   113   114    2
