@<TRIPOS>MOLECULE
tmp/5hx0B00.pdb
 114 111 0 0 0
SMALL
GASTEIGER

@<TRIPOS>ATOM
      1  N         44.6350   74.6670  -28.2770 N.3   104  TYR104     -0.1241
      2  CA        45.8470   75.2720  -27.7460 C.3   104  TYR104      0.1605
      3  C         45.4290   76.5700  -27.0890 C.2   104  TYR104      0.2264
      4  O         44.3140   77.0440  -27.2900 O.2   104  TYR104     -0.2867
      5  CB        46.9140   75.5040  -28.8270 C.3   104  TYR104      0.0534
      6  CG        46.4420   76.2040  -30.0950 C.ar  104  TYR104     -0.0201
      7  CD1       45.9420   75.4770  -31.1730 C.ar  104  TYR104     -0.0009
      8  CD2       46.5280   77.5880  -30.2190 C.ar  104  TYR104     -0.0009
      9  CE1       45.5410   76.1200  -32.3530 C.ar  104  TYR104      0.0417
     10  CE2       46.1440   78.2390  -31.4000 C.ar  104  TYR104      0.0417
     11  CZ        45.6470   77.5030  -32.4490 C.ar  104  TYR104      0.1957
     12  OH        45.2460   78.1560  -33.6060 O.3   104  TYR104     -0.2866
     13  N         46.3440   80.3850  -24.5900 N.3   106  TRP106     -0.1241
     14  CA        47.0200   81.6510  -24.3590 C.3   106  TRP106      0.1605
     15  C         46.8590   81.9880  -22.8930 C.2   106  TRP106      0.2264
     16  O         45.7500   81.8680  -22.3570 O.2   106  TRP106     -0.2867
     17  CB        46.4110   82.7710  -25.2100 C.3   106  TRP106      0.0550
     18  CG        46.7310   82.6140  -26.6750 C.ar  106  TRP106      0.0003
     19  CD1       45.9060   82.1300  -27.6510 C.ar  106  TRP106      0.0946
     20  CD2       47.9680   82.9300  -27.3110 C.ar  106  TRP106      0.0152
     21  NE1       46.5580   82.1420  -28.8670 N.ar  106  TRP106     -0.2442
     22  CE2       47.8280   82.6220  -28.6820 C.ar  106  TRP106      0.0810
     23  CE3       49.1860   83.4600  -26.8560 C.ar  106  TRP106      0.0012
     24  CZ2       48.8580   82.8240  -29.6070 C.ar  106  TRP106      0.0191
     25  CZ3       50.2170   83.6530  -27.7730 C.ar  106  TRP106      0.0001
     26  CH2       50.0440   83.3260  -29.1370 C.ar  106  TRP106      0.0015
     27  N         56.5890   82.8230  -26.8690 N.3   121  PHE121     -0.1241
     28  CA        55.8720   83.4530  -27.9680 C.3   121  PHE121      0.1605
     29  C         54.7870   84.3710  -27.4260 C.2   121  PHE121      0.2264
     30  O         53.8630   83.9130  -26.7430 O.2   121  PHE121     -0.2867
     31  CB        55.2630   82.4170  -28.9060 C.3   121  PHE121      0.0534
     32  CG        54.7610   83.0270  -30.1880 C.ar  121  PHE121     -0.0203
     33  CD1       55.6510   83.3920  -31.1890 C.ar  121  PHE121     -0.0042
     34  CD2       53.4180   83.3040  -30.3630 C.ar  121  PHE121     -0.0042
     35  CE1       55.1980   83.9830  -32.3620 C.ar  121  PHE121     -0.0003
     36  CE2       52.9550   83.8930  -31.5260 C.ar  121  PHE121     -0.0003
     37  CZ        53.8500   84.2320  -32.5300 C.ar  121  PHE121     -0.0000
     38  N         52.0450   82.2830  -25.2420 N.3   128  PHE128     -0.1241
     39  CA        51.5130   81.0480  -25.8250 C.3   128  PHE128      0.1605
     40  C         51.6660   79.8770  -24.8570 C.2   128  PHE128      0.2264
     41  O         52.6980   79.7280  -24.1890 O.2   128  PHE128     -0.2867
     42  CB        52.2460   80.7750  -27.1460 C.3   128  PHE128      0.0534
     43  CG        51.5750   79.7590  -28.0340 C.ar  128  PHE128     -0.0203
     44  CD1       50.1890   79.7400  -28.1900 C.ar  128  PHE128     -0.0042
     45  CD2       52.3380   78.8610  -28.7630 C.ar  128  PHE128     -0.0042
     46  CE1       49.5730   78.8120  -29.0420 C.ar  128  PHE128     -0.0003
     47  CE2       51.7300   77.9360  -29.6260 C.ar  128  PHE128     -0.0003
     48  CZ        50.3500   77.9020  -29.7570 C.ar  128  PHE128     -0.0000
     49  N         50.9320   71.3710  -31.3090 N.3   167  TYR167     -0.1241
     50  CA        49.5790   71.8970  -31.5190 C.3   167  TYR167      0.1605
     51  C         49.3650   72.1070  -33.0150 C.2   167  TYR167      0.2264
     52  O         50.3210   72.1390  -33.7960 O.2   167  TYR167     -0.2867
     53  CB        49.3880   73.2360  -30.7920 C.3   167  TYR167      0.0534
     54  CG        50.2510   74.2680  -31.4620 C.ar  167  TYR167     -0.0201
     55  CD1       51.6020   74.3410  -31.1610 C.ar  167  TYR167     -0.0009
     56  CD2       49.7370   75.1300  -32.4460 C.ar  167  TYR167     -0.0009
     57  CE1       52.4240   75.2410  -31.8010 C.ar  167  TYR167      0.0417
     58  CE2       50.5570   76.0420  -33.1000 C.ar  167  TYR167      0.0417
     59  CZ        51.9050   76.0840  -32.7570 C.ar  167  TYR167      0.1957
     60  OH        52.7620   76.9560  -33.3510 O.3   167  TYR167     -0.2866
     61  N         57.5000   76.3110  -33.9980 N.3   186  THR186     -0.1218
     62  CA        58.3200   77.4900  -34.2590 C.3   186  THR186      0.1862
     63  C         59.7780   77.0450  -34.2490 C.2   186  THR186      0.2287
     64  O         60.2900   76.6170  -33.2080 O.2   186  THR186     -0.2866
     65  CB        58.0890   78.5580  -33.1920 C.3   186  THR186      0.1770
     66  OG1       56.7350   79.0520  -33.2540 O.3   186  THR186     -0.2211
     67  CG2       59.1020   79.7220  -33.3720 C.3   186  THR186      0.0375
     68  N         57.8620   78.8700  -38.8780 N.3   194  THR194     -0.1218
     69  CA        57.2980   77.6130  -38.4130 C.3   194  THR194      0.1862
     70  C         57.4790   76.5520  -39.4880 C.2   194  THR194      0.2287
     71  O         57.6280   76.8460  -40.6780 O.2   194  THR194     -0.2866
     72  CB        55.7920   77.7260  -38.0390 C.3   194  THR194      0.1770
     73  OG1       55.0360   78.1510  -39.1750 O.3   194  THR194     -0.2211
     74  CG2       55.5590   78.7020  -36.8850 C.3   194  THR194      0.0375
     75  N         52.2810   76.3670  -41.3560 N.3   223  ASN223     -0.1225
     76  CA        51.6800   76.3400  -40.0280 C.3   223  ASN223      0.1785
     77  C         50.4300   75.4640  -40.0440 C.2   223  ASN223      0.2597
     78  O         50.5570   74.2460  -39.8800 O.2   223  ASN223     -0.2718
     79  CB        51.4200   77.7600  -39.4870 C.3   223  ASN223      0.1169
     80  CG        50.8250   78.7000  -40.5230 C.2   223  ASN223      0.2627
     81  OD1       49.7540   78.4400  -41.0630 O.2   223  ASN223     -0.2716
     82  ND2       51.5090   79.8120  -40.7830 N.am  223  ASN223     -0.0877
     83  N         49.2360   76.0320  -40.2720 N.am  224  GLU224     -0.1979
     84  CA        48.0120   75.2400  -40.1560 C.3   224  GLU224      0.1602
     85  C         47.9730   74.1830  -41.2570 C.2   224  GLU224      0.2287
     86  O         48.2560   74.4720  -42.4180 O.2   224  GLU224     -0.2864
     87  CB        46.7770   76.1500  -40.2060 C.3   224  GLU224      0.0415
     88  CG        46.7540   77.1330  -39.0160 C.3   224  GLU224      0.1163
     89  CD        45.6980   78.2230  -39.1210 C.2   224  GLU224      0.3649
     90  OE1       45.1890   78.4930  -40.2270 O.co2 224  GLU224     -0.2457
     91  OE2       45.3910   78.8250  -38.0820 O.co2 224  GLU224     -0.2457
     92  N         48.9280   75.7010  -44.9420 N.3   240  ARG240     -0.1245
     93  CA        48.9230   77.1540  -44.9610 C.3   240  ARG240      0.1563
     94  C         50.3630   77.6300  -44.8330 C.2   240  ARG240      0.2260
     95  O         51.1390   77.0670  -44.0590 O.2   240  ARG240     -0.2867
     96  CB        48.0750   77.6970  -43.8010 C.3   240  ARG240      0.0307
     97  CG        48.1650   79.2270  -43.6460 C.3   240  ARG240      0.0489
     98  CD        47.2180   79.6940  -42.5170 C.3   240  ARG240      0.2205
     99  NE        47.3850   81.1270  -42.2790 N.pl3 240  ARG240     -0.0865
    100  CZ        46.6530   81.8520  -41.4400 C.cat 240  ARG240      0.5346
    101  NH1       45.6770   81.2800  -40.7420 N.pl3 240  ARG240      0.1354
    102  NH2       46.8980   83.1570  -41.3070 N.pl3 240  ARG240      0.1354
    103  N         38.3170   79.5700  -42.2470 N.3   325  TYR325     -0.1241
    104  CA        38.5200   78.3190  -41.5210 C.3   325  TYR325      0.1605
    105  C         37.4070   77.2920  -41.7490 C.2   325  TYR325      0.2264
    106  O         36.8280   76.7760  -40.7850 O.2   325  TYR325     -0.2867
    107  CB        38.6820   78.5800  -40.0310 C.3   325  TYR325      0.0534
    108  CG        40.0350   79.1140  -39.6360 C.ar  325  TYR325     -0.0201
    109  CD1       40.4730   80.3500  -40.0960 C.ar  325  TYR325     -0.0009
    110  CD2       40.8670   78.3920  -38.7880 C.ar  325  TYR325     -0.0009
    111  CE1       41.7210   80.8650  -39.7250 C.ar  325  TYR325      0.0417
    112  CE2       42.1230   78.8960  -38.4130 C.ar  325  TYR325      0.0417
    113  CZ        42.5310   80.1320  -38.8920 C.ar  325  TYR325      0.1957
    114  OH        43.7440   80.6490  -38.5200 O.3   325  TYR325     -0.2866
@<TRIPOS>BOND
     1    93    92    1
     2    93    94    1
     3    93    96    1
     4    94    95    2
     5    96    97    1
     6    97    98    1
     7    98    99    1
     8    86    85    2
     9    99   100    2
    10   103   104    1
    11   105   104    1
    12   105   106    2
    13   104   107    1
    14   100   102    1
    15   100   101    1
    16    75    76    1
    17    85    84    1
    18    81    80    2
    19    82    80   am
    20    71    70    2
    21    80    79    1
    22    83    84    1
    23    83    77   am
    24    90    89   ar
    25    87    84    1
    26    87    88    1
    27   109   111   ar
    28   109   108   ar
    29    77    76    1
    30    77    78    2
    31   107   108    1
    32    76    79    1
    33   111   113   ar
    34   108   110   ar
    35    70    69    1
    36    73    72    1
    37    89    88    1
    38    89    91   ar
    39   113   114    1
    40   113   112   ar
    41    68    69    1
    42   110   112   ar
    43    69    72    1
    44    72    74    1
    45    62    63    1
    46    62    61    1
    47    62    65    1
    48    63    64    2
    49    52    51    2
    50    12    11    1
    51    67    65    1
    52    60    59    1
    53    66    65    1
    54    58    59   ar
    55    58    56   ar
    56    51    50    1
    57    59    57   ar
    58    37    35   ar
    59    37    36   ar
    60    11     9   ar
    61    11    10   ar
    62    56    54   ar
    63    35    33   ar
    64     9     7   ar
    65    57    55   ar
    66    36    34   ar
    67    50    49    1
    68    50    53    1
    69    54    55   ar
    70    54    53    1
    71    10     8   ar
    72    33    32   ar
    73     7     6   ar
    74    34    32   ar
    75     8     6   ar
    76    32    31    1
    77     6     5    1
    78    48    47   ar
    79    48    46   ar
    80    47    45   ar
    81    24    26   ar
    82    24    22   ar
    83    26    25   ar
    84    46    44   ar
    85    31    28    1
    86    21    22   ar
    87    21    19   ar
    88     5     2    1
    89    45    43   ar
    90    22    20   ar
    91     1     2    1
    92    44    43   ar
    93    43    42    1
    94    28    29    1
    95    28    27    1
    96    25    23   ar
    97     2     3    1
    98    19    18   ar
    99    29    30    2
   100    20    23   ar
   101    20    18   ar
   102     4     3    2
   103    42    39    1
   104    18    17    1
   105    39    38    1
   106    39    40    1
   107    17    14    1
   108    40    41    2
   109    13    14    1
   110    14    15    1
   111    15    16    2
