@<TRIPOS>MOLECULE
tmp/5hx6B00.pdb
 172 161 0 0 0
SMALL
GASTEIGER

@<TRIPOS>ATOM
      1  N          6.7550   24.6350   19.6860 N.3    13  VAL13      -0.1245
      2  CA         7.4460   24.6490   20.9720 C.3    13  VAL13       0.1561
      3  C          8.3960   25.8470   21.1000 C.2    13  VAL13       0.2260
      4  O          9.0790   26.1930   20.1420 O.2    13  VAL13      -0.2867
      5  CB         8.2240   23.3490   21.1660 C.3    13  VAL13       0.0252
      6  CG1        7.2830   22.1730   21.3500 C.3    13  VAL13       0.0019
      7  CG2        9.2050   23.1250   20.0140 C.3    13  VAL13       0.0019
      8  N         12.2760   24.1200   27.5890 N.3    25  ILE25      -0.1231
      9  CA        11.3950   24.0170   26.4380 C.3    25  ILE25       0.1692
     10  C          9.9910   24.2210   26.9780 C.2    25  ILE25       0.2592
     11  O          9.6840   23.7440   28.0620 O.2    25  ILE25      -0.2718
     12  CB        11.5600   22.7190   25.6030 C.3    25  ILE25       0.0266
     13  CG1       10.6560   22.7590   24.3490 C.3    25  ILE25       0.0019
     14  CG2       11.2640   21.4560   26.3960 C.3    25  ILE25       0.0020
     15  CD1       11.1770   21.9270   23.1880 C.3    25  ILE25       0.0001
     16  N          9.1850   24.9910   26.2570 N.am   26  MET26      -0.1965
     17  CA         7.8250   25.2960   26.6200 C.3    26  MET26       0.1736
     18  C          6.9110   24.7840   25.5260 C.2    26  MET26       0.2616
     19  O          7.2580   24.8140   24.3430 O.2    26  MET26      -0.2715
     20  CB         7.5920   26.8120   26.7370 C.3    26  MET26       0.0427
     21  CG         8.6210   27.5420   27.5660 C.3    26  MET26       0.0599
     22  SD         8.1350   29.2870   27.7400 S.3    26  MET26      -0.1393
     23  CE         9.6790   29.9830   28.3790 C.3    26  MET26       0.0692
     24  N          5.7170   24.4070   25.9200 N.am   27  LYS27      -0.1977
     25  CA         4.6730   23.9770   25.0060 C.3    27  LYS27       0.1596
     26  C          3.4840   24.8520   25.3190 C.2    27  LYS27       0.2287
     27  O          2.9340   24.7400   26.4120 O.2    27  LYS27      -0.2864
     28  CB         4.3460   22.4790   25.2170 C.3    27  LYS27       0.0298
     29  CG         3.1910   21.9280   24.3650 C.3    27  LYS27       0.0038
     30  CD         3.5030   21.9470   22.8720 C.3    27  LYS27       0.0206
     31  CE         2.3090   21.5800   22.0160 C.3    27  LYS27       0.1093
     32  NZ         2.2710   22.3760   20.7530 N.3    27  LYS27      -0.1314
     33  N          1.5930   16.9890   38.8660 N.3    49  MET49      -0.1245
     34  CA         2.6430   16.3780   38.0440 C.3    49  MET49       0.1570
     35  C          4.0150   16.6960   38.5730 C.2    49  MET49       0.2261
     36  O          4.8700   15.8160   38.5660 O.2    49  MET49      -0.2867
     37  CB         2.5550   16.8240   36.5780 C.3    49  MET49       0.0387
     38  CG         1.3640   16.2870   35.8520 C.3    49  MET49       0.0595
     39  SD         1.1410   14.4740   35.8100 S.3    49  MET49      -0.1393
     40  CE        -0.5970   14.4530   36.0850 C.3    49  MET49       0.0692
     41  N          6.0610   14.3870   40.7250 N.3    52  LEU52      -0.1245
     42  CA         6.6620   13.1530   40.2220 C.3    52  LEU52       0.1561
     43  C          8.1400   13.4560   40.0640 C.2    52  LEU52       0.2260
     44  O          8.5270   14.0530   39.0580 O.2    52  LEU52      -0.2867
     45  CB         6.0340   12.7130   38.8940 C.3    52  LEU52       0.0270
     46  CG         4.5800   12.2830   38.9810 C.3    52  LEU52       0.0019
     47  CD1        3.9660   12.2330   37.5940 C.3    52  LEU52       0.0001
     48  CD2        4.4190   10.9560   39.7330 C.3    52  LEU52       0.0001
     49  N         12.4840   10.4540   35.1170 N.3    57  VAL57      -0.1231
     50  CA        11.2160   10.9220   34.5890 C.3    57  VAL57       0.1692
     51  C         11.2700   12.4640   34.4830 C.2    57  VAL57       0.2591
     52  O         11.8330   13.1600   35.3310 O.2    57  VAL57      -0.2718
     53  CB         9.9060   10.3460   35.2230 C.3    57  VAL57       0.0266
     54  CG1       10.1430    9.2330   36.2260 C.3    57  VAL57       0.0020
     55  CG2        8.9460   11.4010   35.7330 C.3    57  VAL57       0.0020
     56  N         10.6850   12.9650   33.3950 N.am   58  VAL58      -0.1980
     57  CA        10.5750   14.3950   33.1180 C.3    58  VAL58       0.1595
     58  C          9.9170   15.0920   34.3090 C.2    58  VAL58       0.2287
     59  O          8.8910   14.6340   34.8140 O.2    58  VAL58      -0.2864
     60  CB         9.8060   14.6330   31.7940 C.3    58  VAL58       0.0276
     61  CG1        9.3130   16.0660   31.6510 C.3    58  VAL58       0.0022
     62  CG2       10.6830   14.2580   30.6180 C.3    58  VAL58       0.0022
     63  N          7.9830   18.2690   35.5630 N.3    60  LEU60      -0.1245
     64  CA         7.2700   19.4590   35.0890 C.3    60  LEU60       0.1561
     65  C          7.8210   20.6030   35.9330 C.2    60  LEU60       0.2260
     66  O          7.6720   20.5570   37.1440 O.2    60  LEU60      -0.2867
     67  CB         5.7320   19.3650   35.2340 C.3    60  LEU60       0.0270
     68  CG         4.9520   20.5850   34.6880 C.3    60  LEU60       0.0019
     69  CD1        5.0200   20.6620   33.1680 C.3    60  LEU60       0.0001
     70  CD2        3.5160   20.5950   35.1680 C.3    60  LEU60       0.0001
     71  N          3.2720   24.9620   29.3540 N.3    72  LEU72      -0.1231
     72  CA         3.9240   23.9860   30.2320 C.3    72  LEU72       0.1693
     73  C          5.3720   24.1710   30.0070 C.2    72  LEU72       0.2592
     74  O          5.7790   24.4020   28.8700 O.2    72  LEU72      -0.2718
     75  CB         3.5300   22.5330   29.8550 C.3    72  LEU72       0.0284
     76  CG         2.0960   22.1620   30.1350 C.3    72  LEU72       0.0019
     77  CD1        1.7500   20.8000   29.5500 C.3    72  LEU72       0.0001
     78  CD2        1.8260   22.1040   31.6250 C.3    72  LEU72       0.0001
     79  N          6.1780   24.0940   31.0730 N.am   73  VAL73      -0.1966
     80  CA         7.6230   24.2440   30.9570 C.3    73  VAL73       0.1727
     81  C          8.3560   23.0060   31.5490 C.2    73  VAL73       0.2616
     82  O          8.0340   22.5610   32.6410 O.2    73  VAL73      -0.2715
     83  CB         8.0410   25.5300   31.6750 C.3    73  VAL73       0.0290
     84  CG1        9.5290   25.7940   31.4990 C.3    73  VAL73       0.0023
     85  CG2        7.2030   26.7200   31.1980 C.3    73  VAL73       0.0023
     86  N          9.3410   22.4790   30.8350 N.am   74  MET74      -0.1977
     87  CA        10.1960   21.3670   31.3150 C.3    74  MET74       0.1605
     88  C         11.6490   21.6120   30.8910 C.2    74  MET74       0.2287
     89  O         11.9260   22.5250   30.1100 O.2    74  MET74      -0.2864
     90  CB         9.7260   20.0150   30.8120 C.3    74  MET74       0.0413
     91  CG        10.0610   19.7780   29.3980 C.3    74  MET74       0.0598
     92  SD         9.3300   18.3050   28.6620 S.3    74  MET74      -0.1393
     93  CE        10.5830   17.8800   27.5570 C.3    74  MET74       0.0692
     94  N          6.9590    5.4970   38.3130 N.3   111  LEU111     -0.1245
     95  CA         5.6450    5.9490   37.8830 C.3   111  LEU111      0.1561
     96  C          4.5600    4.9940   38.3760 C.2   111  LEU111      0.2260
     97  O          3.6180    5.4540   39.0210 O.2   111  LEU111     -0.2867
     98  CB         5.5960    6.1120   36.3570 C.3   111  LEU111      0.0270
     99  CG         6.3910    7.3070   35.7950 C.3   111  LEU111      0.0019
    100  CD1        6.3570    7.3210   34.2890 C.3   111  LEU111      0.0001
    101  CD2        5.8900    8.6240   36.3320 C.3   111  LEU111      0.0001
    102  N          0.7300    5.8510   38.6580 N.3   116  VAL116     -0.1245
    103  CA         0.6850    6.4540   37.3300 C.3   116  VAL116      0.1561
    104  C          0.8660    5.4220   36.2270 C.2   116  VAL116      0.2260
    105  O          1.9570    4.9080   36.0440 O.2   116  VAL116     -0.2867
    106  CB         1.7500    7.5710   37.2140 C.3   116  VAL116      0.0252
    107  CG1        1.7420    8.1980   35.8320 C.3   116  VAL116      0.0019
    108  CG2        1.5420    8.6350   38.2900 C.3   116  VAL116      0.0019
    109  N          1.2750    5.1210   32.4000 N.3   118  HIS118     -0.1241
    110  CA         1.7160    6.0110   31.3310 C.3   118  HIS118      0.1621
    111  C          0.6970    6.0690   30.1870 C.2   118  HIS118      0.2264
    112  O          0.2260    7.1450   29.8420 O.2   118  HIS118     -0.2867
    113  CB         3.0770    5.5730   30.8070 C.3   118  HIS118      0.0745
    114  CG         3.7300    6.6390   29.9970 C.ar  118  HIS118      0.0817
    115  ND1        3.1790    7.0810   28.8150 N.ar  118  HIS118     -0.2268
    116  CD2        4.8150    7.3820   30.2830 C.ar  118  HIS118      0.1154
    117  CE1        3.9670    8.0550   28.3990 C.ar  118  HIS118      0.1986
    118  NE2        4.9620    8.2720   29.2580 N.ar  118  HIS118     -0.2212
    119  N         11.5560    9.5800   30.9020 N.3   136  ILE136     -0.1231
    120  CA        10.2330    9.2860   30.3930 C.3   136  ILE136      0.1692
    121  C          9.3800   10.6200   30.4890 C.2   136  ILE136      0.2592
    122  O          9.2730   11.2140   31.5580 O.2   136  ILE136     -0.2718
    123  CB         9.6320    8.0960   31.1700 C.3   136  ILE136      0.0266
    124  CG1       10.4820    6.7940   30.9460 C.3   136  ILE136      0.0019
    125  CG2        8.2050    7.8440   30.7730 C.3   136  ILE136      0.0020
    126  CD1       10.5220    6.0530   31.9800 C.3   136  ILE136      0.0001
    127  N          8.7990   11.0610   29.3610 N.am  137  ALA137     -0.1966
    128  CA         7.9570   12.2650   29.2010 C.3   137  ALA137      0.1728
    129  C          6.5180   11.8450   28.9410 C.2   137  ALA137      0.2616
    130  O          6.2260   10.6540   28.8100 O.2   137  ALA137     -0.2715
    131  CB         8.4320   13.0510   27.9900 C.3   137  ALA137      0.0334
    132  N          5.6320   12.8370   28.8400 N.am  138  ASP138     -0.1957
    133  CA         4.2260   12.6550   28.5120 C.3   138  ASP138      0.1840
    134  C          3.8720   13.7730   27.5450 C.2   138  ASP138      0.2621
    135  O          3.0460   14.6500   27.8510 O.2   138  ASP138     -0.2715
    136  CB         3.3890   12.7030   29.8130 C.3   138  ASP138      0.1450
    137  CG         1.9300   12.4190   29.5990 C.2   138  ASP138      0.3671
    138  OD1        1.5890   11.7900   28.5750 O.co2 138  ASP138     -0.2456
    139  OD2        1.1250   12.8560   30.4200 O.co2 138  ASP138     -0.2456
    140  N          4.5250   13.7540   26.3700 N.am  139  LEU139     -0.1977
    141  CA         4.4330   14.8400   25.4100 C.3   139  LEU139      0.1596
    142  C          3.0830   14.9600   24.7100 C.2   139  LEU139      0.2287
    143  O          2.7700   16.0300   24.1930 O.2   139  LEU139     -0.2864
    144  CB         5.5600   14.7920   24.3750 C.3   139  LEU139      0.0297
    145  CG         6.9890   14.7390   24.9260 C.3   139  LEU139      0.0022
    146  CD1        7.9780   14.7330   23.8210 C.3   139  LEU139      0.0001
    147  CD2        7.2730   15.8530   25.8980 C.3   139  LEU139      0.0001
    148  N          0.4070   14.5670   26.4480 N.3   141  LEU141     -0.1245
    149  CA        -0.4490   14.9760   27.5520 C.3   141  LEU141      0.1561
    150  C         -1.4700   13.9270   27.9960 C.2   141  LEU141      0.2260
    151  O         -2.4780   14.3070   28.5820 O.2   141  LEU141     -0.2867
    152  CB        -1.1430   16.3160   27.1930 C.3   141  LEU141      0.0270
    153  CG        -0.1770   17.4550   26.7580 C.3   141  LEU141      0.0019
    154  CD1       -0.9180   18.7740   26.5520 C.3   141  LEU141      0.0001
    155  CD2        0.9330   17.6540   27.8050 C.3   141  LEU141      0.0001
    156  N         -1.4280   11.9650   30.6350 N.3   143  SER143     -0.1202
    157  CA        -1.6810   11.9850   32.0850 C.3   143  SER143      0.2020
    158  C         -2.1920   13.3720   32.5660 C.2   143  SER143      0.2618
    159  O         -2.4070   13.5330   33.7580 O.2   143  SER143     -0.2717
    160  CB        -0.4200   11.5830   32.8400 C.3   143  SER143      0.2103
    161  OG         0.0520   10.3280   32.3820 O.3   143  SER143     -0.2182
    162  N         -2.4500   14.3250   31.6380 N.am  144  PHE144     -0.1975
    163  CA        -2.9130   15.6890   31.9440 C.3   144  PHE144      0.1639
    164  C         -4.3300   15.8300   31.4560 C.2   144  PHE144      0.2290
    165  O         -4.5630   16.1700   30.3080 O.2   144  PHE144     -0.2864
    166  CB        -2.0330   16.7170   31.2390 C.3   144  PHE144      0.0560
    167  CG        -0.6070   16.8440   31.7070 C.ar  144  PHE144     -0.0200
    168  CD1        0.3330   15.8780   31.3780 C.ar  144  PHE144     -0.0042
    169  CD2       -0.1630   18.0080   32.3070 C.ar  144  PHE144     -0.0042
    170  CE1        1.6720   16.0370   31.7130 C.ar  144  PHE144     -0.0003
    171  CE2        1.1780   18.1740   32.6400 C.ar  144  PHE144     -0.0003
    172  CZ         2.0920   17.1920   32.3230 C.ar  144  PHE144     -0.0000
@<TRIPOS>BOND
     1     1     2    1
     2     7     5    1
     3     4     3    2
     4    32    31    1
     5     2     3    1
     6     2     5    1
     7     5     6    1
     8    31    30    1
     9    30    29    1
    10    15    13    1
    11   146   145    1
    12   143   142    2
    13    19    18    2
    14    13    12    1
    15    29    28    1
    16   144   145    1
    17   144   141    1
    18   142   141    1
    19   145   147    1
    20    25    28    1
    21    25    26    1
    22    25    24    1
    23    26    27    2
    24   141   140    1
    25    18    24   am
    26    18    17    1
    27    12    14    1
    28    12     9    1
    29    16    17    1
    30    16    10   am
    31   140   134   am
    32     9    10    1
    33     9     8    1
    34   148   149    1
    35   154   153    1
    36    17    20    1
    37    20    21    1
    38   153   152    1
    39   153   155    1
    40    10    11    2
    41   152   149    1
    42   134   135    2
    43   134   133    1
    44   149   150    1
    45    93    92    1
    46    21    22    1
    47    22    23    1
    48   131   128    1
    49   150   151    2
    50   117   115   ar
    51   117   118   ar
    52   133   132    1
    53   133   136    1
    54   138   137   ar
    55    92    91    1
    56   130   129    2
    57   115   114   ar
    58   132   129   am
    59    74    73    2
    60   129   128    1
    61   128   127    1
    62   118   116   ar
    63    71    72    1
    64   127   121   am
    65    91    90    1
    66    77    76    1
    67   137   136    1
    68   137   139   ar
    69   112   111    2
    70    75    76    1
    71    75    72    1
    72   114   116   ar
    73   114   113    1
    74    73    72    1
    75    73    79   am
    76    89    88    2
    77    76    78    1
    78   111   110    1
    79   165   164    2
    80   120   121    1
    81   120   119    1
    82   120   123    1
    83   121   122    2
    84    62    60    1
    85   156   157    1
    86   125   123    1
    87   113   110    1
    88    90    87    1
    89    86    87    1
    90    86    81   am
    91    88    87    1
    92   124   123    1
    93   124   126    1
    94    80    79    1
    95    80    81    1
    96    80    83    1
    97    85    83    1
    98   166   167    1
    99   166   163    1
   100   110   109    1
   101   168   167   ar
   102   168   170   ar
   103   164   163    1
   104    84    83    1
   105    81    82    2
   106   162   163    1
   107   162   158   am
   108    61    60    1
   109   167   169   ar
   110   170   172   ar
   111    60    57    1
   112   157   158    1
   113   157   160    1
   114   169   171   ar
   115   172   171   ar
   116   161   160    1
   117   158   159    2
   118    57    56    1
   119    57    58    1
   120    69    68    1
   121    56    51   am
   122   100    99    1
   123    58    59    2
   124    51    50    1
   125    51    52    2
   126    50    49    1
   127    50    53    1
   128    68    70    1
   129    68    67    1
   130    64    67    1
   131    64    63    1
   132    64    65    1
   133    53    55    1
   134    53    54    1
   135    99   101    1
   136    99    98    1
   137    39    38    1
   138    39    40    1
   139   107   106    1
   140    38    37    1
   141    65    66    2
   142   105   104    2
   143   104   103    1
   144    98    95    1
   145    37    34    1
   146   106   103    1
   147   106   108    1
   148   103   102    1
   149    47    46    1
   150    95    94    1
   151    95    96    1
   152    34    35    1
   153    34    33    1
   154    96    97    2
   155    36    35    2
   156    45    46    1
   157    45    42    1
   158    46    48    1
   159    44    43    2
   160    43    42    1
   161    42    41    1
