@<TRIPOS>MOLECULE
tmp/5hx8A00.pdb
 153 144 0 0 0
SMALL
GASTEIGER

@<TRIPOS>ATOM
      1  N          6.1440   57.9180  -11.6150 N.3    25  ARG25      -0.1245
      2  CA         7.0410   56.7980  -11.2710 C.3    25  ARG25       0.1563
      3  C          6.6150   56.0650   -9.9910 C.2    25  ARG25       0.2260
      4  O          5.7180   56.5220   -9.2850 O.2    25  ARG25      -0.2867
      5  CB         8.5110   57.2790  -11.1340 C.3    25  ARG25       0.0307
      6  CG         8.7770   58.2840  -10.0080 C.3    25  ARG25       0.0489
      7  CD        10.2300   58.7210  -10.0060 C.3    25  ARG25       0.2205
      8  NE        10.5160   59.6910   -8.9480 N.pl3  25  ARG25      -0.0865
      9  CZ        11.0800   59.3920   -7.7800 C.cat  25  ARG25       0.5346
     10  NH1       11.4280   58.1400   -7.5020 N.pl3  25  ARG25       0.1354
     11  NH2       11.3030   60.3410   -6.8830 N.pl3  25  ARG25       0.1354
     12  N          7.4070   54.7360   -6.1450 N.3    27  LEU27      -0.1231
     13  CA         8.1350   55.2320   -4.9820 C.3    27  LEU27       0.1693
     14  C          8.5380   54.0770   -4.0840 C.2    27  LEU27       0.2592
     15  O          9.6370   54.0790   -3.5400 O.2    27  LEU27      -0.2718
     16  CB         7.3060   56.2810   -4.2070 C.3    27  LEU27       0.0284
     17  CG         6.9790   57.5910   -4.9460 C.3    27  LEU27       0.0019
     18  CD1        6.0340   58.4520   -4.1320 C.3    27  LEU27       0.0001
     19  CD2        8.2400   58.3760   -5.2970 C.3    27  LEU27       0.0001
     20  N          7.6430   53.1060   -3.9450 N.am   28  GLY28      -0.1957
     21  CA         7.8570   51.9230   -3.1280 C.3    28  GLY28       0.1869
     22  C          6.8840   50.8100   -3.4320 C.2    28  GLY28       0.2309
     23  O          5.8630   51.0240   -4.0930 O.2    28  GLY28      -0.2863
     24  N          5.1950   48.2840   -0.9960 N.3    30  GLY30      -0.1225
     25  CA         4.8640   47.8980    0.3750 C.3    30  GLY30       0.1811
     26  C          4.3750   46.4780    0.5890 C.2    30  GLY30       0.2280
     27  O          4.4820   45.6260   -0.3020 O.2    30  GLY30      -0.2866
     28  N          3.0240   52.1790   -3.9260 N.3    35  VAL35      -0.1245
     29  CA         3.0330   53.6280   -3.6970 C.3    35  VAL35       0.1561
     30  C          3.6900   54.2500   -4.9250 C.2    35  VAL35       0.2260
     31  O          4.8040   53.8670   -5.2950 O.2    35  VAL35      -0.2867
     32  CB         3.6880   54.0880   -2.3620 C.3    35  VAL35       0.0252
     33  CG1        3.6710   55.6100   -2.2310 C.3    35  VAL35       0.0019
     34  CG2        3.0030   53.4510   -1.1570 C.3    35  VAL35       0.0019
     35  N          1.6150   61.6040   -3.4520 N.3    52  ALA52      -0.1245
     36  CA         2.0220   60.2060   -3.2740 C.3    52  ALA52       0.1562
     37  C          0.7080   59.4110   -3.2570 C.2    52  ALA52       0.2260
     38  O         -0.2200   59.7530   -2.5190 O.2    52  ALA52      -0.2867
     39  CB         2.7870   60.0220   -1.9750 C.3    52  ALA52       0.0290
     40  N          3.0680   62.1070    8.2060 N.3    80  VAL80      -0.1245
     41  CA         2.7780   62.4200    6.7890 C.3    80  VAL80       0.1561
     42  C          1.3240   62.8840    6.6530 C.2    80  VAL80       0.2260
     43  O          0.4160   62.2740    7.2390 O.2    80  VAL80      -0.2867
     44  CB         3.1490   61.2660    5.7960 C.3    80  VAL80       0.0252
     45  CG1        2.1610   60.0940    5.8620 C.3    80  VAL80       0.0019
     46  CG2        3.2740   61.7770    4.3650 C.3    80  VAL80       0.0019
     47  N         -1.5690   61.0870   -0.4320 N.3    95  MET95      -0.1230
     48  CA        -0.7530   61.6920    0.6260 C.3    95  MET95       0.1702
     49  C          0.1590   62.7450    0.0360 C.2    95  MET95       0.2592
     50  O          0.4460   62.7030   -1.1660 O.2    95  MET95      -0.2718
     51  CB         0.1550   60.6350    1.2770 C.3    95  MET95       0.0401
     52  CG        -0.5730   59.5410    2.0260 C.3    95  MET95       0.0596
     53  SD         0.5870   58.2150    2.4770 S.3    95  MET95      -0.1393
     54  CE         0.7960   57.3850    0.8280 C.3    95  MET95       0.0692
     55  N          0.6690   63.6600    0.8870 N.am   96  GLU96      -0.1966
     56  CA         1.6330   64.6680    0.4460 C.3    96  GLU96       0.1733
     57  C          2.9090   63.9800   -0.0610 C.2    96  GLU96       0.2616
     58  O          3.2740   62.8970    0.4160 O.2    96  GLU96      -0.2715
     59  CB         1.9660   65.6750    1.5590 C.3    96  GLU96       0.0429
     60  CG         2.4320   65.0420    2.8570 C.3    96  GLU96       0.1163
     61  CD         3.0300   65.9590    3.9070 C.2    96  GLU96       0.3649
     62  OE1        3.2100   67.1670    3.6320 O.co2  96  GLU96      -0.2457
     63  OE2        3.3230   65.4580    5.0160 O.co2  96  GLU96      -0.2457
     64  N          3.5610   64.5920   -1.0510 N.am   97  PHE97      -0.1960
     65  CA         4.7720   64.0420   -1.6360 C.3    97  PHE97       0.1771
     66  C          5.9860   64.7620   -1.0950 C.2    97  PHE97       0.2619
     67  O          6.0820   65.9780   -1.1950 O.2    97  PHE97      -0.2715
     68  CB         4.7240   64.0780   -3.1870 C.3    97  PHE97       0.0574
     69  CG         6.0220   63.6830   -3.8580 C.ar   97  PHE97      -0.0200
     70  CD1        6.5710   62.4170   -3.6630 C.ar   97  PHE97      -0.0042
     71  CD2        6.6890   64.5710   -4.6960 C.ar   97  PHE97      -0.0042
     72  CE1        7.7720   62.0540   -4.2820 C.ar   97  PHE97      -0.0003
     73  CE2        7.8840   64.2040   -5.3260 C.ar   97  PHE97      -0.0003
     74  CZ         8.4170   62.9440   -5.1190 C.ar   97  PHE97      -0.0000
     75  N          6.8930   64.0040   -0.5080 N.am   98  LEU98      -0.1964
     76  CA         8.1310   64.5070    0.0650 C.3    98  LEU98       0.1713
     77  C          9.2370   64.0150   -0.8740 C.2    98  LEU98       0.2458
     78  O          9.5900   62.8280   -0.8440 O.2    98  LEU98      -0.2730
     79  CB         8.3030   64.0050    1.5200 C.3    98  LEU98       0.0310
     80  CG         7.6440   64.8380    2.6340 C.3    98  LEU98       0.0022
     81  CD1        6.1350   64.9030    2.4910 C.3    98  LEU98       0.0001
     82  CD2        7.9520   64.2530    4.0040 C.3    98  LEU98       0.0001
     83  N          9.7480   64.9130   -1.7520 N.am   99  PRO99      -0.2716
     84  CA        10.7580   64.5000   -2.7440 C.3    99  PRO99       0.1536
     85  C         12.0490   63.8990   -2.1970 C.2    99  PRO99       0.2599
     86  O         12.7040   63.1470   -2.9340 O.2    99  PRO99      -0.2715
     87  CB        11.0230   65.7780   -3.5440 C.3    99  PRO99       0.0310
     88  CG         9.8150   66.6140   -3.3410 C.3    99  PRO99       0.0237
     89  CD         9.3900   66.3350   -1.9310 C.3    99  PRO99       0.0939
     90  N         12.4100   64.1870   -0.9230 N.am  100  SER100     -0.1936
     91  CA        13.6370   63.6280   -0.3370 C.3   100  SER100      0.2055
     92  C         13.5000   62.1480    0.0190 C.2   100  SER100      0.2644
     93  O         14.5070   61.4810    0.2480 O.2   100  SER100     -0.2714
     94  CB        14.1060   64.4490    0.8610 C.3   100  SER100      0.2130
     95  OG        14.4150   65.7720    0.4560 O.3   100  SER100     -0.2179
     96  N         12.2640   61.6440    0.0330 N.am  101  GLY101     -0.1939
     97  CA        11.9810   60.2550    0.3620 C.3   101  GLY101      0.2014
     98  C         12.2370   59.9220    1.8190 C.2   101  GLY101      0.2639
     99  O         12.1960   60.8020    2.6840 O.2   101  GLY101     -0.2714
    100  N         12.4990   58.6430    2.0900 N.am  102  SER102     -0.1949
    101  CA        12.7680   58.1740    3.4340 C.3   102  SER102      0.1924
    102  C         14.2370   58.3820    3.8060 C.2   102  SER102      0.2314
    103  O         15.0500   58.7410    2.9480 O.2   102  SER102     -0.2863
    104  CB        12.3760   56.7020    3.5830 C.3   102  SER102      0.2116
    105  OG        13.2700   55.8120    2.9310 O.3   102  SER102     -0.2180
    106  N         16.8620   56.4930    1.7340 N.3   105  GLU105     -0.1245
    107  CA        17.2790   57.1570    0.4960 C.3   105  GLU105      0.1567
    108  C         18.1850   58.3670    0.7890 C.2   105  GLU105      0.2260
    109  O         19.2340   58.5450    0.1610 O.2   105  GLU105     -0.2867
    110  CB        16.0420   57.6550   -0.2820 C.3   105  GLU105      0.0388
    111  CG        15.2970   56.6000   -1.0850 C.3   105  GLU105      0.1160
    112  CD        14.1230   55.9230   -0.4000 C.2   105  GLU105      0.3649
    113  OE1       13.3630   56.6100    0.3220 O.co2 105  GLU105     -0.2457
    114  OE2       13.9530   54.6990   -0.6010 O.co2 105  GLU105     -0.2457
    115  N         13.1450   53.1660    6.8310 N.3   146  ARG146     -0.1231
    116  CA        12.4920   53.1860    5.5090 C.3   146  ARG146      0.1694
    117  C         11.0570   53.7740    5.5930 C.2   146  ARG146      0.2592
    118  O         10.5160   54.2040    4.5750 O.2   146  ARG146     -0.2718
    119  CB        12.4770   51.7730    4.8910 C.3   146  ARG146      0.0321
    120  CG        11.5720   50.7880    5.6330 C.3   146  ARG146      0.0489
    121  CD        11.5790   49.3750    5.0740 C.3   146  ARG146      0.2205
    122  NE        10.5630   48.5620    5.7480 N.pl3 146  ARG146     -0.0865
    123  CZ        10.7970   47.7470    6.7740 C.cat 146  ARG146      0.5346
    124  NH1       12.0300   47.5960    7.2470 N.pl3 146  ARG146      0.1354
    125  NH2        9.8020   47.0660    7.3250 N.pl3 146  ARG146      0.1354
    126  N         10.4480   53.8030    6.8030 N.am  147  ASN147     -0.1974
    127  CA         9.1020   54.3690    6.9480 C.3   147  ASN147      0.1688
    128  C          9.1200   55.7760    7.5630 C.2   147  ASN147      0.2292
    129  O          8.0660   56.3180    7.9120 O.2   147  ASN147     -0.2864
    130  CB         8.1680   53.4130    7.6850 C.3   147  ASN147      0.1181
    131  CG         7.7450   52.2530    6.8200 C.2   147  ASN147      0.2629
    132  OD1        7.6380   52.3480    5.5930 O.2   147  ASN147     -0.2716
    133  ND2        7.4950   51.1290    7.4380 N.am  147  ASN147     -0.0877
    134  N          9.9860   59.4800    6.5670 N.3   149  LEU149     -0.1245
    135  CA        10.1310   60.4120    5.4520 C.3   149  LEU149      0.1561
    136  C         10.8170   61.7030    5.8630 C.2   149  LEU149      0.2260
    137  O         10.6020   62.1950    6.9660 O.2   149  LEU149     -0.2867
    138  CB         8.7720   60.7310    4.8320 C.3   149  LEU149      0.0270
    139  CG         8.0470   59.6100    4.0710 C.3   149  LEU149      0.0019
    140  CD1        6.6850   60.0750    3.6550 C.3   149  LEU149      0.0001
    141  CD2        8.8150   59.1890    2.8310 C.3   149  LEU149      0.0001
    142  N          5.9760   58.1970    7.6180 N.3   159  GLY159     -0.1210
    143  CA         5.2850   58.1880    6.3350 C.3   159  GLY159      0.1956
    144  C          4.4990   56.9960    5.8390 C.2   159  GLY159      0.2611
    145  O          4.0620   57.0120    4.6860 O.2   159  GLY159     -0.2717
    146  N          4.2900   55.9680    6.6710 N.am  160  ASP160     -0.1973
    147  CA         3.5120   54.7890    6.2520 C.3   160  ASP160      0.1709
    148  C          2.8190   54.2060    7.4530 C.2   160  ASP160      0.2293
    149  O          3.4180   54.1550    8.5150 O.2   160  ASP160     -0.2864
    150  CB         4.3760   53.7360    5.5430 C.3   160  ASP160      0.1436
    151  CG         3.5440   52.6730    4.8400 C.2   160  ASP160      0.3671
    152  OD1        3.2900   52.8250    3.6180 O.co2 160  ASP160     -0.2456
    153  OD2        3.1440   51.6940    5.5090 O.co2 160  ASP160     -0.2456
@<TRIPOS>BOND
     1     1     2    1
     2     2     5    1
     3     2     3    1
     4     5     6    1
     5     6     7    1
     6     7     8    1
     7     3     4    2
     8     8     9    2
     9     9    10    1
    10     9    11    1
    11    12    13    1
    12    73    74   ar
    13    73    71   ar
    14    19    17    1
    15    31    30    2
    16    74    72   ar
    17    13    16    1
    18    13    14    1
    19    17    16    1
    20    17    18    1
    21    30    29    1
    22    71    69   ar
    23    72    70   ar
    24    23    22    2
    25    14    20   am
    26    14    15    2
    27    20    21    1
    28    28    29    1
    29    69    70   ar
    30    69    68    1
    31    29    32    1
    32    87    88    1
    33    87    84    1
    34    35    36    1
    35    22    21    1
    36    88    89    1
    37    36    37    1
    38    36    39    1
    39    37    38    2
    40    68    65    1
    41    86    85    2
    42    84    85    1
    43    84    83    1
    44    32    33    1
    45    32    34    1
    46    85    90   am
    47    89    83    1
    48    83    77   am
    49    65    66    1
    50    65    64    1
    51    67    66    2
    52    50    49    2
    53    66    75   am
    54   111   112    1
    55   111   110    1
    56    64    57   am
    57    24    25    1
    58    90    91    1
    59    77    78    2
    60    77    76    1
    61   114   112   ar
    62    75    76    1
    63    47    48    1
    64   112   113   ar
    65    91    92    1
    66    91    94    1
    67    27    26    2
    68   110   107    1
    69    57    58    2
    70    57    56    1
    71    92    96   am
    72    92    93    2
    73    96    97    1
    74    49    48    1
    75    49    55   am
    76    76    79    1
    77   109   108    2
    78    97    98    1
    79    25    26    1
    80    56    55    1
    81    56    59    1
    82    95    94    1
    83   107   108    1
    84   107   106    1
    85    48    51    1
    86    54    53    1
    87    51    52    1
    88    79    80    1
    89    59    60    1
    90    98   100   am
    91    98    99    2
    92    52    53    1
    93   100   101    1
    94    81    80    1
    95    80    82    1
    96   141   139    1
    97    60    61    1
    98   105   104    1
    99   103   102    2
   100   101   104    1
   101   101   102    1
   102   152   151   ar
   103    62    61   ar
   104   140   139    1
   105    61    63   ar
   106   139   138    1
   107    46    44    1
   108   118   117    2
   109   145   144    2
   110   138   135    1
   111   151   153   ar
   112   151   150    1
   113   119   116    1
   114   119   120    1
   115   121   120    1
   116   121   122    1
   117   135   136    1
   118   135   134    1
   119   116   117    1
   120   116   115    1
   121   150   147    1
   122   117   126   am
   123   132   131    2
   124   122   123    2
   125    44    45    1
   126    44    41    1
   127   144   143    1
   128   144   146   am
   129   136   137    2
   130   147   146    1
   131   147   148    1
   132   143   142    1
   133    42    41    1
   134    42    43    2
   135   123   124    1
   136   123   125    1
   137    41    40    1
   138   126   127    1
   139   131   133   am
   140   131   130    1
   141   127   128    1
   142   127   130    1
   143   148   149    2
   144   128   129    2
