@<TRIPOS>MOLECULE
tmp/5hxbC00.pdb
 135 140 0 0 0
SMALL
GASTEIGER

@<TRIPOS>ATOM
      1  N         12.5820  -94.0170   17.6890 N.3    55  PHE55      -0.1241
      2  CA        11.9720  -95.0580   16.8500 C.3    55  PHE55       0.1605
      3  C         11.2650  -94.4550   15.6170 C.2    55  PHE55       0.2264
      4  O         11.4010  -94.9730   14.4810 O.2    55  PHE55      -0.2867
      5  CB        10.9440  -95.7920   17.6640 C.3    55  PHE55       0.0534
      6  CG        11.5200  -96.6820   18.6910 C.ar   55  PHE55      -0.0203
      7  CD1       12.5390  -96.2370   19.5410 C.ar   55  PHE55      -0.0042
      8  CD2       10.9840  -97.9660   18.8730 C.ar   55  PHE55      -0.0042
      9  CE1       13.0810  -97.0690   20.4870 C.ar   55  PHE55      -0.0003
     10  CE2       11.5110  -98.8190   19.8260 C.ar   55  PHE55      -0.0003
     11  CZ        12.5990  -98.3780   20.6010 C.ar   55  PHE55      -0.0000
     12  N         17.7290 -104.9940   13.9010 N.3   103  PHE103     -0.1241
     13  CA        16.4300 -105.6570   14.1040 C.3   103  PHE103      0.1605
     14  C         15.6670 -105.4490   12.8290 C.2   103  PHE103      0.2264
     15  O         15.0270 -106.3790   12.3870 O.2   103  PHE103     -0.2867
     16  CB        15.6820 -105.1380   15.3280 C.3   103  PHE103      0.0534
     17  CG        16.4550 -105.3120   16.5760 C.ar  103  PHE103     -0.0203
     18  CD1       16.5780 -106.5940   17.1340 C.ar  103  PHE103     -0.0042
     19  CD2       17.3250 -104.2900   17.0330 C.ar  103  PHE103     -0.0042
     20  CE1       17.4190 -106.8160   18.2380 C.ar  103  PHE103     -0.0003
     21  CE2       18.1670 -104.5100   18.1400 C.ar  103  PHE103     -0.0003
     22  CZ        18.2060 -105.7740   18.7450 C.ar  103  PHE103     -0.0000
     23  N         14.9100  -97.4000   28.7660 N.3   294  ASN294     -0.1226
     24  CA        14.5750  -98.7990   28.5550 C.3   294  ASN294      0.1770
     25  C         14.5250  -99.0880   27.0660 C.2   294  ASN294      0.2439
     26  O         14.8220  -98.2000   26.2420 O.2   294  ASN294     -0.2733
     27  CB        13.2690  -99.2300   29.3080 C.3   294  ASN294      0.1168
     28  CG        11.9760  -98.8030   28.6160 C.2   294  ASN294      0.2627
     29  OD1       11.9580  -97.8500   27.8920 O.2   294  ASN294     -0.2716
     30  ND2       10.8760  -99.4100   29.0030 N.am  294  ASN294     -0.0877
     31  N         14.2400 -100.3440   26.6790 N.am  295  PRO295     -0.2718
     32  CA        14.2990 -100.7350   25.2700 C.3   295  PRO295      0.1535
     33  C         13.2500 -100.0760   24.3930 C.2   295  PRO295      0.2598
     34  O         13.5140  -99.8540   23.2120 O.2   295  PRO295     -0.2715
     35  CB        13.9650 -102.1970   25.3050 C.3   295  PRO295      0.0310
     36  CG        14.2990 -102.6280   26.6830 C.3   295  PRO295      0.0237
     37  CD        13.9730 -101.4830   27.5520 C.3   295  PRO295      0.0939
     38  N         12.0750  -99.7790   24.9420 N.am  296  HIS296     -0.1974
     39  CA        11.0320  -99.1350   24.1770 C.3   296  HIS296      0.1656
     40  C         11.1820  -97.6300   24.1140 C.2   296  HIS296      0.2291
     41  O         10.3340  -96.9260   23.5400 O.2   296  HIS296     -0.2864
     42  CB         9.6910  -99.5940   24.6640 C.3   296  HIS296      0.0771
     43  CG         9.4550 -101.0260   24.3820 C.ar  296  HIS296      0.0820
     44  ND1        8.9570 -101.4410   23.1700 N.ar  296  HIS296     -0.2267
     45  CD2        9.9430 -102.1330   24.9840 C.ar  296  HIS296      0.1154
     46  CE1        8.9850 -102.7630   23.1230 C.ar  296  HIS296      0.1986
     47  NE2        9.5560 -103.2080   24.2280 N.ar  296  HIS296     -0.2212
     48  N         13.9040  -93.3430   32.5130 N.3   300  HIS300     -0.1241
     49  CA        13.6270  -93.6420   33.9320 C.3   300  HIS300      0.1621
     50  C         14.7260  -93.0820   34.7770 C.2   300  HIS300      0.2264
     51  O         15.8460  -93.5920   34.7620 O.2   300  HIS300     -0.2867
     52  CB        13.4690  -95.1450   34.1250 C.3   300  HIS300      0.0745
     53  CG        12.1520  -95.6720   33.6460 C.ar  300  HIS300      0.0817
     54  ND1       10.9450  -95.2460   34.1620 N.ar  300  HIS300     -0.2268
     55  CD2       11.8500  -96.5570   32.6680 C.ar  300  HIS300      0.1154
     56  CE1        9.9570  -95.8660   33.5380 C.ar  300  HIS300      0.1986
     57  NE2       10.4790  -96.6650   32.6250 N.ar  300  HIS300     -0.2212
     58  N         17.7720 -108.9160   31.0420 N.3   320  GLU320     -0.1231
     59  CA        17.5550 -108.3210   29.7450 C.3   320  GLU320      0.1699
     60  C         17.6500 -106.8260   29.8300 C.2   320  GLU320      0.2592
     61  O         16.9490 -106.2050   30.5930 O.2   320  GLU320     -0.2718
     62  CB        16.1540 -108.6660   29.2430 C.3   320  GLU320      0.0402
     63  CG        15.7160 -107.8670   28.0230 C.3   320  GLU320      0.1161
     64  CD        14.2440 -107.9890   27.7190 C.2   320  GLU320      0.3649
     65  OE1       13.5240 -108.6200   28.5070 O.co2 320  GLU320     -0.2457
     66  OE2       13.8070 -107.4500   26.6860 O.co2 320  GLU320     -0.2457
     67  N         18.5110 -106.2460   29.0170 N.am  321  HIS321     -0.1962
     68  CA        18.6010 -104.8130   28.9370 C.3   321  HIS321      0.1787
     69  C         18.7750 -104.2330   30.3050 C.2   321  HIS321      0.2621
     70  O         18.2370 -103.1800   30.5930 O.2   321  HIS321     -0.2715
     71  CB        17.2990 -104.3090   28.3330 C.3   321  HIS321      0.0785
     72  CG        17.3700 -102.9290   27.7740 C.ar  321  HIS321      0.0821
     73  ND1       16.2450 -102.1740   27.5270 N.ar  321  HIS321     -0.2267
     74  CD2       18.4210 -102.1740   27.3920 C.ar  321  HIS321      0.1154
     75  CE1       16.6010 -101.0090   27.0280 C.ar  321  HIS321      0.1986
     76  NE2       17.9170 -100.9850   26.9340 N.ar  321  HIS321     -0.2212
     77  N         19.5230 -104.8920   31.1700 N.am  322  SER322     -0.1936
     78  CA        19.6650 -104.3160   32.5030 C.3   322  SER322      0.2055
     79  C         20.6880 -103.1750   32.5700 C.2   322  SER322      0.2643
     80  O         21.7930 -103.2710   32.0220 O.2   322  SER322     -0.2714
     81  CB        20.0060 -105.3070   33.5580 C.3   322  SER322      0.2130
     82  OG        20.1670 -104.5900   34.7710 O.3   322  SER322     -0.2179
     83  N         20.2900 -102.1210   33.2680 N.am  323  TRP323     -0.1973
     84  CA        21.0540 -100.8920   33.3770 C.3   323  TRP323      0.1640
     85  C         22.2780 -101.0060   34.2670 C.2   323  TRP323      0.2290
     86  O         23.1120 -100.1060   34.3190 O.2   323  TRP323     -0.2864
     87  CB        20.1650  -99.8570   34.0370 C.3   323  TRP323      0.0576
     88  CG        19.0120  -99.4980   33.2490 C.ar  323  TRP323      0.0006
     89  CD1       18.9560  -99.4530   31.9330 C.ar  323  TRP323      0.0946
     90  CD2       17.7410  -99.0320   33.7310 C.ar  323  TRP323      0.0152
     91  NE1       17.7430  -98.9980   31.5340 N.ar  323  TRP323     -0.2442
     92  CE2       16.9680  -98.7580   32.6310 C.ar  323  TRP323      0.0810
     93  CE3       17.1920  -98.8230   34.9960 C.ar  323  TRP323      0.0012
     94  CZ2       15.6480  -98.2880   32.7290 C.ar  323  TRP323      0.0191
     95  CZ3       15.8720  -98.3390   35.0930 C.ar  323  TRP323      0.0001
     96  CH2       15.1320  -98.0790   33.9710 C.ar  323  TRP323      0.0015
     97  N         16.6700 -107.6850   36.9550 N.3   329  TRP329     -0.1241
     98  CA        15.5590 -106.8780   37.4480 C.3   329  TRP329      0.1605
     99  C         14.2590 -107.6690   37.5270 C.2   329  TRP329      0.2264
    100  O         13.9730 -108.5460   36.6970 O.2   329  TRP329     -0.2867
    101  CB        15.3850 -105.6330   36.5540 C.3   329  TRP329      0.0550
    102  CG        15.1490 -105.9080   35.0550 C.ar  329  TRP329      0.0003
    103  CD1       16.0570 -105.8040   34.0570 C.ar  329  TRP329      0.0946
    104  CD2       13.9170 -106.2970   34.4370 C.ar  329  TRP329      0.0152
    105  NE1       15.4870 -106.1660   32.8780 N.ar  329  TRP329     -0.2442
    106  CE2       14.1780 -106.5110   33.1010 C.ar  329  TRP329      0.0810
    107  CE3       12.6300 -106.5400   34.9130 C.ar  329  TRP329      0.0012
    108  CZ2       13.1980 -106.9270   32.2200 C.ar  329  TRP329      0.0191
    109  CZ3       11.6710 -106.9660   34.0400 C.ar  329  TRP329      0.0001
    110  CH2       11.9420 -107.1030   32.7080 C.ar  329  TRP329      0.0015
    111  N         11.8030 -101.4160   40.2830 N.3   343  TRP343     -0.1241
    112  CA        12.3450 -102.7850   40.0990 C.3   343  TRP343      0.1605
    113  C         13.2000 -103.2170   41.2680 C.2   343  TRP343      0.2264
    114  O         13.9500 -102.4070   41.8030 O.2   343  TRP343     -0.2867
    115  CB        13.1870 -102.8000   38.8380 C.3   343  TRP343      0.0550
    116  CG        12.4260 -102.4470   37.5750 C.ar  343  TRP343      0.0003
    117  CD1       11.7500 -103.3000   36.7580 C.ar  343  TRP343      0.0946
    118  CD2       12.3330 -101.1600   36.9690 C.ar  343  TRP343      0.0152
    119  NE1       11.1990 -102.6080   35.7130 N.ar  343  TRP343     -0.2442
    120  CE2       11.5260 -101.2860   35.8420 C.ar  343  TRP343      0.0810
    121  CE3       12.8380  -99.9100   37.2890 C.ar  343  TRP343      0.0012
    122  CZ2       11.2070 -100.2080   35.0410 C.ar  343  TRP343      0.0191
    123  CZ3       12.5260  -98.8310   36.4730 C.ar  343  TRP343      0.0001
    124  CH2       11.6960  -98.9750   35.4050 C.ar  343  TRP343      0.0015
    125  N         16.4470 -105.4810   42.1020 N.3   345  PHE345     -0.1241
    126  CA        17.6200 -105.9230   41.4010 C.3   345  PHE345      0.1605
    127  C         18.3600 -106.9290   42.2270 C.2   345  PHE345      0.2264
    128  O         18.5800 -106.7370   43.3960 O.2   345  PHE345     -0.2867
    129  CB        18.5540 -104.7910   41.1190 C.3   345  PHE345      0.0534
    130  CG        18.0020 -103.8170   40.2160 C.ar  345  PHE345     -0.0203
    131  CD1       16.8720 -103.1370   40.5480 C.ar  345  PHE345     -0.0042
    132  CD2       18.6140 -103.5510   39.0480 C.ar  345  PHE345     -0.0042
    133  CE1       16.4160 -102.1150   39.7650 C.ar  345  PHE345     -0.0003
    134  CE2       18.1220 -102.5900   38.2190 C.ar  345  PHE345     -0.0003
    135  CZ        17.0420 -101.8440   38.5950 C.ar  345  PHE345     -0.0000
@<TRIPOS>BOND
     1    15    14    2
     2    14    13    1
     3    12    13    1
     4    13    16    1
     5     4     3    2
     6    16    17    1
     7     3     2    1
     8    17    19   ar
     9    17    18   ar
    10     2     5    1
    11     2     1    1
    12    19    21   ar
    13    18    20   ar
    14     5     6    1
    15    21    22   ar
    16    20    22   ar
    17     6     8   ar
    18     6     7   ar
    19     8    10   ar
    20     7     9   ar
    21    10    11   ar
    22     9    11   ar
    23    46    44   ar
    24    46    47   ar
    25    44    43   ar
    26    34    33    2
    27    41    40    2
    28    40    39    1
    29    39    42    1
    30    39    38    1
    31    47    45   ar
    32    43    42    1
    33    43    45   ar
    34    33    38   am
    35    33    32    1
    36    32    35    1
    37    32    31    1
    38    35    36    1
    39    26    25    2
    40    31    25   am
    41    31    37    1
    42    36    37    1
    43    66    64   ar
    44    76    75   ar
    45    76    74   ar
    46    75    73   ar
    47    25    24    1
    48    74    72   ar
    49    73    72   ar
    50    64    63    1
    51    64    65   ar
    52    72    71    1
    53    29    28    2
    54    63    62    1
    55    71    68    1
    56    24    23    1
    57    24    27    1
    58    28    30   am
    59    28    27    1
    60    68    67    1
    61    68    69    1
    62    67    60   am
    63    62    59    1
    64    59    60    1
    65    59    58    1
    66    60    61    2
    67    69    70    2
    68    69    77   am
    69    77    78    1
    70    91    89   ar
    71    91    92   ar
    72    89    88   ar
    73    80    79    2
    74   108   110   ar
    75   108   106   ar
    76    78    79    1
    77    78    81    1
    78    48    49    1
    79    79    83   am
    80    57    55   ar
    81    57    56   ar
    82    92    94   ar
    83    92    90   ar
    84    55    53   ar
    85   110   109   ar
    86    94    96   ar
    87   105   106   ar
    88   105   103   ar
    89   106   104   ar
    90    88    90   ar
    91    88    87    1
    92    83    84    1
    93    84    87    1
    94    84    85    1
    95    56    54   ar
    96    81    82    1
    97    53    52    1
    98    53    54   ar
    99    90    93   ar
   100    49    52    1
   101    49    50    1
   102    96    95   ar
   103   109   107   ar
   104   103   102   ar
   105    85    86    2
   106   104   107   ar
   107   104   102   ar
   108    51    50    2
   109    93    95   ar
   110   122   124   ar
   111   122   120   ar
   112   102   101    1
   113   124   123   ar
   114   119   120   ar
   115   119   117   ar
   116   120   118   ar
   117   123   121   ar
   118   101    98    1
   119   100    99    2
   120   117   116   ar
   121    97    98    1
   122   118   121   ar
   123   118   116   ar
   124    98    99    1
   125   116   115    1
   126   134   135   ar
   127   134   132   ar
   128   135   133   ar
   129   115   112    1
   130   132   130   ar
   131   133   131   ar
   132   112   111    1
   133   112   113    1
   134   130   131   ar
   135   130   129    1
   136   129   126    1
   137   113   114    2
   138   126   125    1
   139   126   127    1
   140   127   128    2
