@<TRIPOS>MOLECULE
tmp/5hxbF00.pdb
 107 101 0 0 0
SMALL
GASTEIGER

@<TRIPOS>ATOM
      1  N         -4.4350   27.6300  154.8190 N.3    96  GLN96      -0.1245
      2  CA        -4.7640   26.3740  154.2010 C.3    96  GLN96       0.1566
      3  C         -4.9990   25.4210  155.3570 C.2    96  GLN96       0.2260
      4  O         -4.0860   25.1130  156.0980 O.2    96  GLN96      -0.2867
      5  CB        -3.5730   25.8920  153.3530 C.3    96  GLN96       0.0367
      6  CG        -3.8980   24.9220  152.2270 C.3    96  GLN96       0.0905
      7  CD        -2.7570   24.8180  151.2190 C.2    96  GLN96       0.2608
      8  OE1       -1.5870   25.1580  151.5260 O.2    96  GLN96      -0.2717
      9  NE2       -3.0760   24.3460  150.0070 N.am   96  GLN96      -0.0878
     10  N         -6.7070   22.1250  156.9260 N.3    98  VAL98      -0.1245
     11  CA        -7.2290   20.7640  156.7100 C.3    98  VAL98       0.1561
     12  C         -8.1840   20.3340  157.8030 C.2    98  VAL98       0.2260
     13  O         -7.7840   20.1110  158.9320 O.2    98  VAL98      -0.2867
     14  CB        -6.1500   19.6750  156.3690 C.3    98  VAL98       0.0252
     15  CG1       -4.7130   20.1580  156.5060 C.3    98  VAL98       0.0019
     16  CG2       -6.4680   18.2950  156.9930 C.3    98  VAL98       0.0019
     17  N         -9.4570   22.3000  147.9710 N.3   132  VAL132     -0.1231
     18  CA        -8.3510   21.5840  147.2450 C.3   132  VAL132      0.1692
     19  C         -8.2910   20.0750  147.4620 C.2   132  VAL132      0.2592
     20  O         -8.3120   19.6040  148.6050 O.2   132  VAL132     -0.2718
     21  CB        -6.9170   22.1830  147.4670 C.3   132  VAL132      0.0266
     22  CG1       -6.9080   23.2900  148.5040 C.3   132  VAL132      0.0020
     23  CG2       -5.8390   21.1060  147.7120 C.3   132  VAL132      0.0020
     24  N         -8.1420   19.3350  146.3490 N.am  133  ASP133     -0.1960
     25  CA        -8.1360   17.8710  146.3740 C.3   133  ASP133      0.1840
     26  C         -6.7520   17.3490  146.7490 C.2   133  ASP133      0.2622
     27  O         -5.6880   17.9240  146.3910 O.2   133  ASP133     -0.2715
     28  CB        -8.6430   17.2690  145.0370 C.3   133  ASP133      0.1450
     29  CG        -7.9990   15.8770  144.6960 C.2   133  ASP133      0.3671
     30  OD1       -7.9110   14.9810  145.5780 O.co2 133  ASP133     -0.2456
     31  OD2       -7.6740   15.6630  143.5000 O.co2 133  ASP133     -0.2456
     32  N         -6.8080   16.3020  147.5590 N.am  134  LYS134     -0.1963
     33  CA        -5.6750   15.8480  148.3110 C.3   134  LYS134      0.1728
     34  C         -4.7940   15.0250  147.4070 C.2   134  LYS134      0.2616
     35  O         -3.5790   15.1560  147.4340 O.2   134  LYS134     -0.2715
     36  CB        -6.1270   15.0320  149.5340 C.3   134  LYS134      0.0311
     37  CG        -6.7650   15.8770  150.6220 C.3   134  LYS134      0.0038
     38  CD        -6.8850   15.1150  151.9330 C.3   134  LYS134      0.0206
     39  CE        -7.8930   15.7860  152.8770 C.3   134  LYS134      0.1093
     40  NZ        -7.6940   15.5000  154.3300 N.3   134  LYS134     -0.1314
     41  N         -5.4000   14.2060  146.5620 N.am  135  LYS135     -0.1963
     42  CA        -4.6210   13.3490  145.6790 C.3   135  LYS135      0.1728
     43  C         -3.6360   14.1560  144.7740 C.2   135  LYS135      0.2617
     44  O         -2.4620   13.7500  144.6290 O.2   135  LYS135     -0.2715
     45  CB        -5.5520   12.4750  144.8560 C.3   135  LYS135      0.0311
     46  CG        -6.0910   11.2760  145.6030 C.3   135  LYS135      0.0038
     47  CD        -6.8960   10.3800  144.6680 C.3   135  LYS135      0.0206
     48  CE        -6.5960    8.8950  144.8580 C.3   135  LYS135      0.1093
     49  NZ        -6.1500    8.2360  143.5920 N.3   135  LYS135     -0.1314
     50  N         -4.0820   15.3330  144.2710 N.am  136  SER136     -0.1936
     51  CA        -3.3110   16.1520  143.2750 C.3   136  SER136      0.2055
     52  C         -2.5110   17.3250  143.8900 C.2   136  SER136      0.2643
     53  O         -1.2640   17.3040  143.8960 O.2   136  SER136     -0.2714
     54  CB        -4.2270   16.6760  142.1290 C.3   136  SER136      0.2130
     55  OG        -5.4980   17.0940  142.5890 O.3   136  SER136     -0.2179
     56  N         -3.2250   18.2980  144.4690 N.am  137  GLY137     -0.1954
     57  CA        -2.7540   19.7040  144.5160 C.3   137  GLY137      0.1869
     58  C         -3.7580   20.6410  143.8490 C.2   137  GLY137      0.2309
     59  O         -3.5460   21.8910  143.7130 O.2   137  GLY137     -0.2863
     60  N         -6.0520   22.9470  143.1980 N.3   139  LYS139     -0.1245
     61  CA        -6.9510   23.9700  143.7210 C.3   139  LYS139      0.1561
     62  C         -8.2840   23.8840  142.9320 C.2   139  LYS139      0.2260
     63  O         -8.4690   23.0080  142.0660 O.2   139  LYS139     -0.2867
     64  CB        -6.3030   25.3790  143.8160 C.3   139  LYS139      0.0271
     65  CG        -5.3160   25.3350  144.9590 C.3   139  LYS139      0.0035
     66  CD        -4.3790   26.5140  144.9520 C.3   139  LYS139      0.0206
     67  CE        -3.5400   26.5060  146.2320 C.3   139  LYS139      0.1093
     68  NZ        -2.7980   25.2710  146.4170 N.3   139  LYS139     -0.1314
     69  N         -9.8170   19.5640  152.4820 N.3   152  VAL152     -0.1245
     70  CA        -8.9190   20.7610  152.6040 C.3   152  VAL152      0.1561
     71  C         -9.5540   21.9430  151.9160 C.2   152  VAL152      0.2260
     72  O        -10.2730   21.7540  150.9550 O.2   152  VAL152     -0.2867
     73  CB        -7.4990   20.5550  151.9790 C.3   152  VAL152      0.0252
     74  CG1       -6.5790   21.7250  152.3220 C.3   152  VAL152      0.0019
     75  CG2       -6.8810   19.2460  152.4570 C.3   152  VAL152      0.0019
     76  N          3.8330   30.7160  156.6660 N.3   168  PHE168     -0.1241
     77  CA         4.4290   29.4390  156.9320 C.3   168  PHE168      0.1605
     78  C          5.6890   29.3520  156.1190 C.2   168  PHE168      0.2264
     79  O          6.7160   28.9110  156.6030 O.2   168  PHE168     -0.2867
     80  CB         3.4820   28.3470  156.4940 C.3   168  PHE168      0.0534
     81  CG         3.9280   26.9740  156.8670 C.ar  168  PHE168     -0.0203
     82  CD1        5.2430   26.7060  157.0960 C.ar  168  PHE168     -0.0042
     83  CD2        3.0190   25.9580  156.9940 C.ar  168  PHE168     -0.0042
     84  CE1        5.6580   25.4480  157.4370 C.ar  168  PHE168     -0.0003
     85  CE2        3.4260   24.6950  157.3310 C.ar  168  PHE168     -0.0003
     86  CZ         4.7470   24.4400  157.5570 C.ar  168  PHE168     -0.0000
     87  N         -6.1140   21.8510  160.8740 N.3   188  ILE188     -0.1231
     88  CA        -4.7870   22.4490  160.9420 C.3   188  ILE188      0.1692
     89  C         -4.3090   23.1090  159.6690 C.2   188  ILE188      0.2593
     90  O         -4.6200   22.6630  158.5660 O.2   188  ILE188     -0.2718
     91  CB        -3.7240   21.4710  161.4450 C.3   188  ILE188      0.0266
     92  CG1       -4.2190   20.0380  161.3240 C.3   188  ILE188      0.0019
     93  CG2       -3.4100   21.7780  162.9140 C.3   188  ILE188      0.0020
     94  CD1       -3.9660   19.4480  159.9950 C.3   188  ILE188      0.0001
     95  N         -3.5420   24.1860  159.8440 N.am  189  GLY189     -0.1942
     96  CA        -3.5260   25.2920  158.8910 C.3   189  GLY189      0.2014
     97  C         -2.1640   25.9500  158.8680 C.2   189  GLY189      0.2638
     98  O         -1.6520   26.3170  159.9180 O.2   189  GLY189     -0.2714
     99  N         -1.5230   26.0020  157.6950 N.am  190  LYS190     -0.1977
    100  CA        -0.3340   26.8600  157.4770 C.3   190  LYS190      0.1600
    101  C         -0.8920   28.2250  157.0390 C.2   190  LYS190      0.2287
    102  O         -2.0080   28.2960  156.4410 O.2   190  LYS190     -0.2864
    103  CB         0.5680   26.2640  156.3800 C.3   190  LYS190      0.0344
    104  CG         1.1640   24.8490  156.6430 C.3   190  LYS190      0.0297
    105  CD         1.5440   24.0070  155.3780 C.2   190  LYS190     -0.0067
    106  CE         1.5690   24.7990  154.0330 C.2   190  LYS190      0.1012
    107  NZ         1.9580   24.0590  152.7800 N.pl3 190  LYS190     -0.1270
@<TRIPOS>BOND
     1    63    62    2
     2    54    55    1
     3    54    51    1
     4    62    61    1
     5    60    61    1
     6    51    52    1
     7    51    50    1
     8    31    29   ar
     9    49    48    1
    10    59    58    2
    11    61    64    1
    12    64    65    1
    13    58    57    1
    14    52    53    2
    15    52    56   am
    16    50    43   am
    17    56    57    1
    18    44    43    2
    19    47    48    1
    20    47    46    1
    21    29    28    1
    22    29    30   ar
    23    43    42    1
    24    45    46    1
    25    45    42    1
    26    66    65    1
    27    66    67    1
    28    28    25    1
    29    42    41    1
    30    67    68    1
    31    24    25    1
    32    24    19   am
    33    25    26    1
    34    27    26    2
    35    41    34   am
    36    26    32   am
    37    18    19    1
    38    18    21    1
    39    18    17    1
    40    34    35    2
    41    34    33    1
    42    19    20    2
    43    21    23    1
    44    21    22    1
    45    32    33    1
    46    33    36    1
    47    36    37    1
    48     9     7   am
    49    37    38    1
    50    72    71    2
    51     7     8    2
    52     7     6    1
    53    71    70    1
    54    38    39    1
    55    73    74    1
    56    73    75    1
    57    73    70    1
    58     6     5    1
    59    69    70    1
    60   107   106    1
    61    39    40    1
    62     5     2    1
    63   106   105    2
    64     2     1    1
    65     2     3    1
    66     3     4    2
    67   105   104    1
    68    78    79    2
    69    78    77    1
    70    14    15    1
    71    14    11    1
    72    14    16    1
    73   103   104    1
    74   103   100    1
    75   102   101    2
    76    80    81    1
    77    80    77    1
    78    76    77    1
    79    11    10    1
    80    11    12    1
    81    81    83   ar
    82    81    82   ar
    83    83    85   ar
    84   101   100    1
    85    82    84   ar
    86    85    86   ar
    87    84    86   ar
    88   100    99    1
    89    99    97   am
    90    12    13    2
    91    90    89    2
    92    97    96    1
    93    97    98    2
    94    96    95    1
    95    89    95   am
    96    89    88    1
    97    94    92    1
    98    87    88    1
    99    88    91    1
   100    92    91    1
   101    91    93    1
