@<TRIPOS>MOLECULE
tmp/5hxcA02.pdb
 77 72 0 0 0
SMALL
GASTEIGER

@<TRIPOS>ATOM
      1  N         10.3530   16.5110   24.1630 N.3    52  LEU52      -0.1231
      2  CA        11.1870   16.0460   25.2810 C.3    52  LEU52       0.1678
      3  C         11.0760   16.9630   26.5260 C.2    52  LEU52       0.2434
      4  O         11.0900   16.4690   27.6430 O.2    52  LEU52      -0.2733
      5  CB        12.6570   15.9090   24.8420 C.3    52  LEU52       0.0284
      6  CG        13.0020   14.8400   23.7870 C.3    52  LEU52       0.0019
      7  CD1       14.4920   14.8050   23.4590 C.3    52  LEU52       0.0001
      8  CD2       12.5300   13.4600   24.2110 C.3    52  LEU52       0.0001
      9  N         10.9620   18.2970   26.3400 N.am   53  PRO53      -0.2729
     10  CA        10.7310   19.1400   27.5250 C.3    53  PRO53       0.1401
     11  C          9.4120   18.8590   28.2520 C.2    53  PRO53       0.2269
     12  O          9.4250   18.8160   29.4820 O.2    53  PRO53      -0.2865
     13  CB        10.7170   20.5580   26.9470 C.3    53  PRO53       0.0296
     14  CG        11.5730   20.4690   25.7430 C.3    53  PRO53       0.0237
     15  CD        11.3090   19.1110   25.1610 C.3    53  PRO53       0.0939
     16  N          9.7690   15.3620   30.1500 N.3    56  LEU56      -0.1231
     17  CA        10.5800   15.5290   31.3460 C.3    56  LEU56       0.1693
     18  C          9.8630   16.3430   32.4150 C.2    56  LEU56       0.2592
     19  O          9.8580   15.9800   33.5800 O.2    56  LEU56      -0.2718
     20  CB        11.9110   16.1970   30.9920 C.3    56  LEU56       0.0284
     21  CG        12.7780   15.3150   30.0960 C.3    56  LEU56       0.0019
     22  CD1       14.0790   16.0120   29.7150 C.3    56  LEU56       0.0001
     23  CD2       13.0510   13.9840   30.7850 C.3    56  LEU56       0.0001
     24  N          9.2610   17.4500   31.9970 N.am   57  THR57      -0.1953
     25  CA         8.5810   18.3480   32.9170 C.3    57  THR57       0.1897
     26  C          7.4010   17.6670   33.6120 C.2    57  THR57       0.2313
     27  O          7.2580   17.7880   34.8220 O.2    57  THR57      -0.2863
     28  CB         8.0900   19.6250   32.1660 C.3    57  THR57       0.1794
     29  OG1        9.2290   20.3910   31.7480 O.3    57  THR57      -0.2208
     30  CG2        7.1980   20.4850   33.0350 C.3    57  THR57       0.0378
     31  N         16.6130   22.8260   21.9040 N.3   172  LEU172     -0.1231
     32  CA        16.3710   22.4140   23.2810 C.3   172  LEU172      0.1693
     33  C         17.2100   23.2320   24.2780 C.2   172  LEU172      0.2591
     34  O         16.6960   23.6880   25.3030 O.2   172  LEU172     -0.2718
     35  CB        16.6460   20.9110   23.4420 C.3   172  LEU172      0.0284
     36  CG        15.6820   19.9330   22.7380 C.3   172  LEU172      0.0019
     37  CD1       15.9330   18.4830   23.1530 C.3   172  LEU172      0.0001
     38  CD2       14.2300   20.3050   23.0030 C.3   172  LEU172      0.0001
     39  N         18.4930   23.4250   23.9770 N.am  173  VAL173     -0.1980
     40  CA        19.3550   24.2370   24.8470 C.3   173  VAL173      0.1595
     41  C         18.8740   25.6880   24.8240 C.2   173  VAL173      0.2287
     42  O         18.7930   26.3430   25.8590 O.2   173  VAL173     -0.2864
     43  CB        20.8490   24.1600   24.4230 C.3   173  VAL173      0.0276
     44  CG1       21.6880   25.2030   25.1610 C.3   173  VAL173      0.0022
     45  CG2       21.3980   22.7500   24.6600 C.3   173  VAL173      0.0022
     46  N         15.8850   26.8280   24.2520 N.3   175  ALA175     -0.1231
     47  CA        14.6420   26.9980   24.9920 C.3   175  ALA175      0.1694
     48  C         14.9420   27.0920   26.4960 C.2   175  ALA175      0.2591
     49  O         14.3800   27.9290   27.2150 O.2   175  ALA175     -0.2718
     50  CB        13.6790   25.8550   24.6950 C.3   175  ALA175      0.0304
     51  N         15.8530   26.2380   26.9510 N.am  176  GLU176     -0.1979
     52  CA        16.2750   26.2310   28.3390 C.3   176  GLU176      0.1602
     53  C         16.9290   27.5570   28.7460 C.2   176  GLU176      0.2287
     54  O         16.6310   28.0860   29.8170 O.2   176  GLU176     -0.2864
     55  CB        17.2420   25.0730   28.5920 C.3   176  GLU176      0.0415
     56  CG        17.6690   24.9560   30.0420 C.3   176  GLU176      0.1163
     57  CD        16.5230   24.5570   30.9530 C.2   176  GLU176      0.3649
     58  OE1       15.5620   23.9300   30.4580 O.co2 176  GLU176     -0.2457
     59  OE2       16.5760   24.8780   32.1610 O.co2 176  GLU176     -0.2457
     60  N         14.3680   30.4470   28.9590 N.3   179  VAL179     -0.1245
     61  CA        13.5860   30.3620   30.1830 C.3   179  VAL179      0.1561
     62  C         14.4080   30.6880   31.4370 C.2   179  VAL179      0.2260
     63  O         13.9660   31.4510   32.2940 O.2   179  VAL179     -0.2867
     64  CB        12.9600   28.9550   30.3480 C.3   179  VAL179      0.0252
     65  CG1       12.3480   28.8010   31.7420 C.3   179  VAL179      0.0019
     66  CG2       11.9070   28.7120   29.2680 C.3   179  VAL179      0.0019
     67  N          7.0700   27.6670   27.5480 N.3   204  GLY204     -0.1210
     68  CA         8.5170   27.5170   27.5170 C.3   204  GLY204      0.1956
     69  C          8.9160   26.1540   26.9780 C.2   204  GLY204      0.2612
     70  O          9.8930   26.0250   26.2500 O.2   204  GLY204     -0.2717
     71  N          8.1440   25.1320   27.3200 N.am  205  THR205     -0.1952
     72  CA         8.4050   23.8170   26.7710 C.3   205  THR205      0.1897
     73  C          7.9140   23.7420   25.3180 C.2   205  THR205      0.2313
     74  O          8.3340   22.8720   24.5770 O.2   205  THR205     -0.2863
     75  CB         7.7550   22.6910   27.6150 C.3   205  THR205      0.1794
     76  OG1        6.3480   22.9190   27.7540 O.3   205  THR205     -0.2208
     77  CG2        8.3990   22.6200   29.0040 C.3   205  THR205      0.0378
@<TRIPOS>BOND
     1    31    32    1
     2    36    38    1
     3    36    37    1
     4    36    35    1
     5    32    35    1
     6    32    33    1
     7     7     6    1
     8     6     8    1
     9     6     5    1
    10    39    33   am
    11    39    40    1
    12     1     2    1
    13    46    47    1
    14    33    34    2
    15    43    45    1
    16    43    40    1
    17    43    44    1
    18    74    73    2
    19    50    47    1
    20    41    40    1
    21    41    42    2
    22     5     2    1
    23    47    48    1
    24    15    14    1
    25    15     9    1
    26     2     3    1
    27    73    72    1
    28    14    13    1
    29    70    69    2
    30     9     3   am
    31     9    10    1
    32    48    51   am
    33    48    49    2
    34     3     4    2
    35    72    71    1
    36    72    75    1
    37    13    10    1
    38    51    52    1
    39    69    71   am
    40    69    68    1
    41    68    67    1
    42    10    11    1
    43    75    76    1
    44    75    77    1
    45    11    12    2
    46    52    55    1
    47    52    53    1
    48    55    56    1
    49    53    54    2
    50    60    61    1
    51    66    64    1
    52    22    21    1
    53    56    57    1
    54    21    23    1
    55    21    20    1
    56    16    17    1
    57    61    64    1
    58    61    62    1
    59    64    65    1
    60    58    57   ar
    61    57    59   ar
    62    20    17    1
    63    17    18    1
    64    62    63    2
    65    29    28    1
    66    24    18   am
    67    24    25    1
    68    28    25    1
    69    28    30    1
    70    18    19    2
    71    25    26    1
    72    26    27    2
