@<TRIPOS>MOLECULE
tmp/5hxcA05.pdb
 81 73 0 0 0
SMALL
GASTEIGER

@<TRIPOS>ATOM
      1  N        -12.1900   21.2550   31.4360 N.3   255  VAL255     -0.1245
      2  CA       -12.3710   22.4800   30.6700 C.3   255  VAL255      0.1561
      3  C        -11.2860   22.6070   29.6030 C.2   255  VAL255      0.2260
      4  O        -11.5830   22.8830   28.4410 O.2   255  VAL255     -0.2867
      5  CB       -12.3630   23.7290   31.5760 C.3   255  VAL255      0.0252
      6  CG1      -12.2750   25.0230   30.7370 C.3   255  VAL255      0.0019
      7  CG2      -13.6080   23.7450   32.4530 C.3   255  VAL255      0.0019
      8  N        -11.6190   22.2800   25.4880 N.3   259  VAL259     -0.1245
      9  CA       -11.0350   23.2600   24.5970 C.3   259  VAL259      0.1561
     10  C        -10.1650   22.5660   23.5430 C.2   259  VAL259      0.2260
     11  O        -10.2780   22.8420   22.3550 O.2   259  VAL259     -0.2867
     12  CB       -10.1940   24.2810   25.3580 C.3   259  VAL259      0.0252
     13  CG1       -9.4140   25.1750   24.3770 C.3   259  VAL259      0.0019
     14  CG2      -11.0770   25.1170   26.2760 C.3   259  VAL259      0.0019
     15  N        -12.3510   20.7180   21.0400 N.3   262  ILE262     -0.1231
     16  CA       -12.9570   21.6530   20.0870 C.3   262  ILE262      0.1692
     17  C        -11.9600   22.1450   19.0360 C.2   262  ILE262      0.2591
     18  O        -12.2720   22.2160   17.8470 O.2   262  ILE262     -0.2718
     19  CB       -13.5650   22.8770   20.8000 C.3   262  ILE262      0.0266
     20  CG1      -14.8050   22.4740   21.5950 C.3   262  ILE262      0.0019
     21  CG2      -13.9610   23.9490   19.8000 C.3   262  ILE262      0.0020
     22  CD1      -15.4370   23.6410   22.3470 C.3   262  ILE262      0.0001
     23  N        -10.7630   22.4960   19.4750 N.am  263  MET263     -0.1979
     24  CA        -9.7340   22.9440   18.5380 C.3   263  MET263      0.1605
     25  C         -9.3040   21.8090   17.6010 C.2   263  MET263      0.2287
     26  O         -9.0150   22.0420   16.4380 O.2   263  MET263     -0.2864
     27  CB        -8.5230   23.4760   19.2990 C.3   263  MET263      0.0413
     28  CG        -8.7810   24.7790   20.0310 C.3   263  MET263      0.0598
     29  SD        -7.2580   25.3670   20.7860 S.3   263  MET263     -0.1393
     30  CE        -7.7790   26.9520   21.4370 C.3   263  MET263      0.0692
     31  N        -12.0320   21.2760   15.0400 N.3   266  LEU266     -0.1245
     32  CA       -11.8950   22.3380   14.0480 C.3   266  LEU266      0.1561
     33  C        -10.7600   22.0550   13.0650 C.2   266  LEU266      0.2260
     34  O        -10.9110   22.2050   11.8500 O.2   266  LEU266     -0.2867
     35  CB       -11.6540   23.6780   14.7380 C.3   266  LEU266      0.0270
     36  CG       -12.8810   24.3460   15.3560 C.3   266  LEU266      0.0019
     37  CD1      -12.4640   25.5680   16.1610 C.3   266  LEU266      0.0001
     38  CD2      -13.8640   24.7530   14.2740 C.3   266  LEU266      0.0001
     39  N         -8.5580   32.3180   13.0630 N.3   283  LEU283     -0.1245
     40  CA        -9.4890   31.7450   14.0200 C.3   283  LEU283      0.1561
     41  C         -8.7530   31.0120   15.1480 C.2   283  LEU283      0.2260
     42  O         -9.1030   31.1550   16.3120 O.2   283  LEU283     -0.2867
     43  CB       -10.4650   30.7900   13.3300 C.3   283  LEU283      0.0270
     44  CG       -11.4170   30.0710   14.2990 C.3   283  LEU283      0.0019
     45  CD1      -12.3080   31.0600   15.0700 C.3   283  LEU283      0.0001
     46  CD2      -12.2630   29.0340   13.5810 C.3   283  LEU283      0.0001
     47  N         -8.9280   32.0550   19.1120 N.3   287  LEU287     -0.1245
     48  CA        -9.3080   31.0880   20.1420 C.3   287  LEU287      0.1561
     49  C         -8.2060   30.9240   21.1850 C.2   287  LEU287      0.2260
     50  O         -8.4860   30.7900   22.3870 O.2   287  LEU287     -0.2867
     51  CB        -9.6440   29.7370   19.5130 C.3   287  LEU287      0.0270
     52  CG       -10.9210   29.7130   18.6610 C.3   287  LEU287      0.0019
     53  CD1      -11.1420   28.3370   18.0380 C.3   287  LEU287      0.0001
     54  CD2      -12.1380   30.1300   19.4770 C.3   287  LEU287      0.0001
     55  N         -8.3690   34.0850   23.3890 N.3   290  ILE290     -0.1231
     56  CA        -9.4880   33.9360   24.3020 C.3   290  ILE290      0.1692
     57  C         -9.1350   32.9460   25.4100 C.2   290  ILE290      0.2591
     58  O         -9.4250   33.1810   26.5800 O.2   290  ILE290     -0.2718
     59  CB       -10.7440   33.4740   23.5320 C.3   290  ILE290      0.0266
     60  CG1      -11.1970   34.6020   22.5970 C.3   290  ILE290      0.0019
     61  CG2      -11.8500   33.0290   24.4930 C.3   290  ILE290      0.0020
     62  CD1      -12.2690   34.1970   21.6330 C.3   290  ILE290      0.0001
     63  N         -8.4670   31.8580   25.0380 N.am  291  ALA291     -0.1980
     64  CA        -8.0710   30.8360   26.0040 C.3   291  ALA291      0.1597
     65  C         -7.1310   31.3790   27.0700 C.2   291  ALA291      0.2287
     66  O         -7.3350   31.1610   28.2640 O.2   291  ALA291     -0.2864
     67  CB        -7.4060   29.6410   25.2830 C.3   291  ALA291      0.0319
     68  N         -8.8810   33.7570   29.4630 N.3   294  SER294     -0.1202
     69  CA       -10.0040   33.2850   30.2740 C.3   294  SER294      0.2020
     70  C         -9.7310   32.0600   31.1380 C.2   294  SER294      0.2618
     71  O        -10.3830   31.8790   32.1680 O.2   294  SER294     -0.2717
     72  CB       -11.1930   32.9840   29.3650 C.3   294  SER294      0.2103
     73  OG       -10.7920   32.0790   28.3610 O.3   294  SER294     -0.2182
     74  N         -8.8000   31.2050   30.7260 N.am  295  LEU295     -0.1979
     75  CA        -8.5390   29.9700   31.4710 C.3   295  LEU295      0.1596
     76  C         -7.8630   30.2710   32.8050 C.2   295  LEU295      0.2287
     77  O         -7.1080   31.2350   32.9200 O.2   295  LEU295     -0.2864
     78  CB        -7.6860   28.9990   30.6430 C.3   295  LEU295      0.0297
     79  CG        -8.3610   28.3060   29.4500 C.3   295  LEU295      0.0022
     80  CD1       -7.3810   27.3970   28.7280 C.3   295  LEU295      0.0001
     81  CD2       -9.5840   27.5100   29.8930 C.3   295  LEU295      0.0001
@<TRIPOS>BOND
     1    34    33    2
     2    39    40    1
     3    33    32    1
     4    43    40    1
     5    43    44    1
     6    46    44    1
     7    40    41    1
     8    32    35    1
     9    32    31    1
    10    38    36    1
    11    44    45    1
    12    35    36    1
    13    41    42    2
    14    36    37    1
    15    26    25    2
    16    25    24    1
    17    18    17    2
    18    53    52    1
    19    24    27    1
    20    24    23    1
    21    52    54    1
    22    52    51    1
    23    17    23   am
    24    17    16    1
    25    47    48    1
    26    27    28    1
    27    51    48    1
    28    21    19    1
    29    28    29    1
    30    16    19    1
    31    16    15    1
    32    48    49    1
    33    29    30    1
    34    19    20    1
    35    49    50    2
    36    20    22    1
    37    62    60    1
    38    11    10    2
    39    60    59    1
    40    55    56    1
    41    59    56    1
    42    59    61    1
    43    10     9    1
    44    56    57    1
    45    13    12    1
    46     9    12    1
    47     9     8    1
    48    63    57   am
    49    63    64    1
    50    67    64    1
    51    12    14    1
    52    57    58    2
    53    64    65    1
    54    65    66    2
    55    73    72    1
    56     4     3    2
    57    80    79    1
    58    72    69    1
    59    79    81    1
    60    79    78    1
    61    68    69    1
    62     3     2    1
    63    69    70    1
    64    78    75    1
    65     2     1    1
    66     2     5    1
    67    74    70   am
    68    74    75    1
    69     6     5    1
    70    70    71    2
    71    75    76    1
    72     5     7    1
    73    76    77    2
