@<TRIPOS>MOLECULE
tmp/5hxcA07.pdb
 90 82 0 0 0
SMALL
GASTEIGER

@<TRIPOS>ATOM
      1  N         15.0160    8.5420    3.7500 N.3    34  PHE34      -0.1241
      2  CA        14.2510    7.3560    4.1130 C.3    34  PHE34       0.1605
      3  C         13.0160    7.1720    3.2630 C.2    34  PHE34       0.2264
      4  O         12.2540    6.2370    3.4810 O.2    34  PHE34      -0.2867
      5  CB        13.8600    7.4150    5.5890 C.3    34  PHE34       0.0534
      6  CG        15.0150    7.2180    6.5240 C.ar   34  PHE34      -0.0203
      7  CD1       15.8580    6.1260    6.3840 C.ar   34  PHE34      -0.0042
      8  CD2       15.2730    8.1290    7.5310 C.ar   34  PHE34      -0.0042
      9  CE1       16.9290    5.9370    7.2520 C.ar   34  PHE34      -0.0003
     10  CE2       16.3440    7.9510    8.3940 C.ar   34  PHE34      -0.0003
     11  CZ        17.1710    6.8560    8.2540 C.ar   34  PHE34      -0.0000
     12  N         10.2890    8.9700    3.1660 N.3    36  VAL36      -0.1245
     13  CA         9.0480    9.2100    3.8940 C.3    36  VAL36       0.1561
     14  C          8.6500   10.6700    3.7020 C.2    36  VAL36       0.2260
     15  O          9.5050   11.5160    3.4610 O.2    36  VAL36      -0.2867
     16  CB         9.1880    8.8740    5.4120 C.3    36  VAL36       0.0252
     17  CG1        9.5240    7.3900    5.6120 C.3    36  VAL36       0.0019
     18  CG2       10.2400    9.7660    6.0850 C.3    36  VAL36       0.0019
     19  N          5.3980   12.6690    7.9890 N.3    40  VAL40      -0.1231
     20  CA         5.8870   11.5680    8.8040 C.3    40  VAL40       0.1692
     21  C          7.0750   11.9810    9.6750 C.2    40  VAL40       0.2591
     22  O          7.1020   11.7130   10.8900 O.2    40  VAL40      -0.2718
     23  CB         6.2950   10.3580    7.9230 C.3    40  VAL40       0.0266
     24  CG1        7.0990    9.3470    8.7350 C.3    40  VAL40       0.0020
     25  CG2        5.0650    9.7140    7.3210 C.3    40  VAL40       0.0020
     26  N          8.0520   12.6470    9.0700 N.am   41  ILE41      -0.1980
     27  CA         9.2330   13.0060    9.8200 C.3    41  ILE41       0.1595
     28  C          8.8290   14.0520   10.8690 C.2    41  ILE41       0.2287
     29  O          9.3120   14.0230   11.9960 O.2    41  ILE41      -0.2864
     30  CB        10.3950   13.5140    8.9010 C.3    41  ILE41       0.0276
     31  CG1       11.7320   13.4020    9.6400 C.3    41  ILE41       0.0022
     32  CG2       10.1740   14.9440    8.4230 C.3    41  ILE41       0.0022
     33  CD1       12.1640   11.9390    9.9020 C.3    41  ILE41       0.0001
     34  N          7.0150   12.3310   13.8350 N.3    44  THR44      -0.1203
     35  CA         7.7440   11.3280   14.6100 C.3    44  THR44       0.1994
     36  C          8.9920   11.9490   15.2280 C.2    44  THR44       0.2617
     37  O          8.9660   12.3810   16.3750 O.2    44  THR44      -0.2717
     38  CB         8.1010   10.0860   13.7380 C.3    44  THR44       0.1784
     39  OG1        8.9530   10.4660   12.6530 O.3    44  THR44      -0.2211
     40  CG2        6.8370    9.4780   13.1400 C.3    44  THR44       0.0376
     41  N         10.0770   12.0050   14.4670 N.am   45  VAL45      -0.1979
     42  CA        11.3450   12.5220   14.9730 C.3    45  VAL45       0.1595
     43  C         11.2200   13.9570   15.4900 C.2    45  VAL45       0.2287
     44  O         11.6770   14.2740   16.5850 O.2    45  VAL45      -0.2864
     45  CB        12.4400   12.4490   13.8690 C.3    45  VAL45       0.0276
     46  CG1       13.7080   13.1280   14.3130 C.3    45  VAL45       0.0022
     47  CG2       12.7080   10.9830   13.4950 C.3    45  VAL45       0.0022
     48  N          8.5670   14.2510   18.6170 N.3    48  ILE48      -0.1231
     49  CA         9.0870   13.6720   19.8530 C.3    48  ILE48       0.1692
     50  C         10.2650   14.5020   20.3870 C.2    48  ILE48       0.2592
     51  O         10.3130   14.8390   21.5790 O.2    48  ILE48      -0.2718
     52  CB         9.5330   12.2110   19.6480 C.3    48  ILE48       0.0266
     53  CG1        8.3170   11.3240   19.3630 C.3    48  ILE48       0.0019
     54  CG2       10.3060   11.7180   20.8710 C.3    48  ILE48       0.0020
     55  CD1        8.6630    9.9010   19.0330 C.3    48  ILE48       0.0001
     56  N         11.2080   14.8060   19.4990 N.am   49  GLY49      -0.1957
     57  CA        12.3590   15.6260   19.8440 C.3    49  GLY49       0.1869
     58  C         11.9540   16.9070   20.5530 C.2    49  GLY49       0.2309
     59  O         12.4880   17.2280   21.6100 O.2    49  GLY49      -0.2863
     60  N         10.3530   16.5110   24.1630 N.3    52  LEU52      -0.1245
     61  CA        11.1870   16.0460   25.2810 C.3    52  LEU52       0.1561
     62  C         11.0760   16.9630   26.5260 C.2    52  LEU52       0.2260
     63  O         11.0900   16.4690   27.6430 O.2    52  LEU52      -0.2867
     64  CB        12.6570   15.9090   24.8420 C.3    52  LEU52       0.0270
     65  CG        13.0020   14.8400   23.7870 C.3    52  LEU52       0.0019
     66  CD1       14.4920   14.8050   23.4590 C.3    52  LEU52       0.0001
     67  CD2       12.5300   13.4600   24.2110 C.3    52  LEU52       0.0001
     68  N          2.4670    5.8680   16.0970 N.3   139  LEU139     -0.1245
     69  CA         3.7540    6.1070   15.4560 C.3   139  LEU139      0.1561
     70  C          4.0510    5.0710   14.3650 C.2   139  LEU139      0.2260
     71  O          4.4470    5.4290   13.2470 O.2   139  LEU139     -0.2867
     72  CB         4.8830    6.1110   16.5070 C.3   139  LEU139      0.0270
     73  CG         4.8890    7.2890   17.5000 C.3   139  LEU139      0.0019
     74  CD1        5.9750    7.1100   18.5570 C.3   139  LEU139      0.0001
     75  CD2        5.0600    8.6410   16.7790 C.3   139  LEU139      0.0001
     76  N          4.2450    5.8960   10.3030 N.3   143  VAL143     -0.1245
     77  CA         5.4390    5.6080    9.5450 C.3   143  VAL143      0.1561
     78  C          5.1270    4.6360    8.3980 C.2   143  VAL143      0.2260
     79  O          5.5270    4.8560    7.2620 O.2   143  VAL143     -0.2867
     80  CB         6.5400    5.0170   10.4570 C.3   143  VAL143      0.0252
     81  CG1        7.6450    4.3780    9.6320 C.3   143  VAL143      0.0019
     82  CG2        7.0950    6.0950   11.3890 C.3   143  VAL143      0.0019
     83  N         18.5910   20.0970   16.7930 N.3   168  LEU168     -0.1245
     84  CA        17.7690   19.7180   17.9310 C.3   168  LEU168      0.1561
     85  C         18.4010   20.1640   19.2540 C.2   168  LEU168      0.2260
     86  O         17.7120   20.6230   20.1620 O.2   168  LEU168     -0.2867
     87  CB        17.5310   18.2040   17.9490 C.3   168  LEU168      0.0270
     88  CG        16.6690   17.7380   19.1270 C.3   168  LEU168      0.0019
     89  CD1       15.3430   18.5020   19.1220 C.3   168  LEU168      0.0001
     90  CD2       16.4140   16.2380   19.0990 C.3   168  LEU168      0.0001
@<TRIPOS>BOND
     1    12    13    1
     2     3     4    2
     3     3     2    1
     4    15    14    2
     5    14    13    1
     6     1     2    1
     7    13    16    1
     8     2     5    1
     9    16    17    1
    10    16    18    1
    11     5     6    1
    12     7     6   ar
    13     7     9   ar
    14     6     8   ar
    15     9    11   ar
    16    79    78    2
    17    25    23    1
    18     8    10   ar
    19    23    24    1
    20    23    20    1
    21    19    20    1
    22    11    10   ar
    23    78    77    1
    24    32    30    1
    25    20    21    1
    26    30    31    1
    27    30    27    1
    28    26    21   am
    29    26    27    1
    30    77    76    1
    31    77    80    1
    32    81    80    1
    33    31    33    1
    34    21    22    2
    35    27    28    1
    36    80    82    1
    37    28    29    2
    38    39    38    1
    39    40    38    1
    40    71    70    2
    41    47    45    1
    42    38    35    1
    43    34    35    1
    44    45    46    1
    45    45    42    1
    46    70    69    1
    47    41    42    1
    48    41    36   am
    49    35    36    1
    50    42    43    1
    51    36    37    2
    52    69    68    1
    53    69    72    1
    54    43    44    2
    55    72    73    1
    56    75    73    1
    57    83    84    1
    58    73    74    1
    59    84    87    1
    60    84    85    1
    61    87    88    1
    62    48    49    1
    63    55    53    1
    64    90    88    1
    65    89    88    1
    66    85    86    2
    67    53    52    1
    68    56    57    1
    69    56    50   am
    70    52    49    1
    71    52    54    1
    72    57    58    1
    73    49    50    1
    74    50    51    2
    75    58    59    2
    76    66    65    1
    77    65    67    1
    78    65    64    1
    79    60    61    1
    80    64    61    1
    81    61    62    1
    82    62    63    2
