@<TRIPOS>MOLECULE
tmp/5hxcA01.pdb
 86 82 0 0 0
SMALL
GASTEIGER

@<TRIPOS>ATOM
      1  N         -9.6890   11.1730   17.1810 N.3   110  LEU110     -0.1245
      2  CA       -10.2360   10.0670   17.9530 C.3   110  LEU110      0.1561
      3  C         -9.4080    9.8230   19.2110 C.2   110  LEU110      0.2260
      4  O         -9.9470    9.5830   20.2920 O.2   110  LEU110     -0.2867
      5  CB       -10.2810    8.7990   17.1030 C.3   110  LEU110      0.0270
      6  CG       -11.2810    8.7890   15.9580 C.3   110  LEU110      0.0019
      7  CD1      -11.1550    7.4810   15.2120 C.3   110  LEU110      0.0001
      8  CD2      -12.6940    8.9850   16.4950 C.3   110  LEU110      0.0001
      9  N        -10.2540   12.5740   21.6740 N.3   113  ILE113     -0.1231
     10  CA       -11.5710   12.3460   22.2650 C.3   113  ILE113      0.1692
     11  C        -11.5010   11.1930   23.2800 C.2   113  ILE113      0.2592
     12  O        -12.0470   11.2750   24.3800 O.2   113  ILE113     -0.2718
     13  CB       -12.6180   12.0140   21.1790 C.3   113  ILE113      0.0266
     14  CG1      -12.8050   13.2060   20.2420 C.3   113  ILE113      0.0019
     15  CG2      -13.9380   11.6160   21.8140 C.3   113  ILE113      0.0020
     16  CD1      -13.7820   12.9330   19.0990 C.3   113  ILE113      0.0001
     17  N        -10.8010   10.1280   22.9080 N.am  114  PHE114     -0.1976
     18  CA       -10.5990    9.0120   23.8320 C.3   114  PHE114      0.1639
     19  C         -9.8940    9.4600   25.1320 C.2   114  PHE114      0.2290
     20  O        -10.3380    9.1180   26.2260 O.2   114  PHE114     -0.2864
     21  CB        -9.8070    7.8980   23.1500 C.3   114  PHE114      0.0560
     22  CG        -9.4970    6.7310   24.0580 C.ar  114  PHE114     -0.0200
     23  CD1      -10.4750    5.7970   24.3760 C.ar  114  PHE114     -0.0042
     24  CD2       -8.2260    6.5690   24.5840 C.ar  114  PHE114     -0.0042
     25  CE1      -10.1850    4.7140   25.2100 C.ar  114  PHE114     -0.0003
     26  CE2       -7.9240    5.5050   25.4130 C.ar  114  PHE114     -0.0003
     27  CZ        -8.9090    4.5690   25.7360 C.ar  114  PHE114     -0.0000
     28  N        -12.3550   11.5460   27.3460 N.3   117  VAL117     -0.1231
     29  CA       -13.3850   10.7570   27.9960 C.3   117  VAL117      0.1692
     30  C        -12.8160    9.9600   29.1820 C.2   117  VAL117      0.2591
     31  O        -13.3780   10.0080   30.2660 O.2   117  VAL117     -0.2718
     32  CB       -14.0700    9.8070   27.0000 C.3   117  VAL117      0.0266
     33  CG1      -15.0210    8.8560   27.7300 C.3   117  VAL117      0.0020
     34  CG2      -14.8200   10.6150   25.9550 C.3   117  VAL117      0.0020
     35  N        -11.6960    9.2550   28.9990 N.am  118  ILE118     -0.1980
     36  CA       -11.1430    8.4880   30.1190 C.3   118  ILE118      0.1595
     37  C        -10.5680    9.3860   31.2160 C.2   118  ILE118      0.2287
     38  O        -10.4120    8.9490   32.3560 O.2   118  ILE118     -0.2864
     39  CB       -10.0410    7.4880   29.6800 C.3   118  ILE118      0.0276
     40  CG1       -8.7830    8.2200   29.1900 C.3   118  ILE118      0.0022
     41  CG2      -10.5720    6.4900   28.6600 C.3   118  ILE118      0.0022
     42  CD1       -7.6300    7.2960   28.9160 C.3   118  ILE118      0.0001
     43  N        -12.0530   12.1370   32.4270 N.3   120  ILE120     -0.1231
     44  CA       -13.1120   12.8930   33.1130 C.3   120  ILE120      0.1692
     45  C        -12.9580   12.8340   34.6320 C.2   120  ILE120      0.2592
     46  O        -13.2240   13.8140   35.3350 O.2   120  ILE120     -0.2718
     47  CB       -14.5100   12.3770   32.7140 C.3   120  ILE120      0.0266
     48  CG1      -14.7700   12.7080   31.2470 C.3   120  ILE120      0.0019
     49  CG2      -15.6020   13.0020   33.5810 C.3   120  ILE120      0.0020
     50  CD1      -16.0880   12.1750   30.7270 C.3   120  ILE120      0.0001
     51  N        -12.5080   11.6790   35.1180 N.am  121  ASP121     -0.1974
     52  CA       -12.2560   11.4670   36.5280 C.3   121  ASP121      0.1709
     53  C        -10.7580   11.5480   36.7880 C.2   121  ASP121      0.2293
     54  O        -10.2600   10.9870   37.7620 O.2   121  ASP121     -0.2864
     55  CB       -12.8090   10.1010   36.9740 C.3   121  ASP121      0.1436
     56  CG       -12.1500    8.9260   36.2430 C.2   121  ASP121      0.3671
     57  OD1      -11.5790    9.1280   35.1500 O.co2 121  ASP121     -0.2456
     58  OD2      -12.2170    7.7870   36.7550 O.co2 121  ASP121     -0.2456
     59  N         -5.2950    7.8730   35.7740 N.3   124  SER124     -0.1217
     60  CA        -4.5440    6.9300   36.5820 C.3   124  SER124      0.1889
     61  C         -3.3650    6.3700   35.8060 C.2   124  SER124      0.2288
     62  O         -3.2260    6.6010   34.6010 O.2   124  SER124     -0.2866
     63  CB        -5.4410    5.7720   37.0250 C.3   124  SER124      0.2089
     64  OG        -5.7650    4.9550   35.9060 O.3   124  SER124     -0.2183
     65  N         -4.5980    4.4590   32.8490 N.3   127  ASP127     -0.1239
     66  CA        -4.8790    5.3720   31.7460 C.3   127  ASP127      0.1674
     67  C         -3.5820    5.7020   31.0170 C.2   127  ASP127      0.2266
     68  O         -3.5340    5.7500   29.7890 O.2   127  ASP127     -0.2867
     69  CB        -5.5250    6.6670   32.2430 C.3   127  ASP127      0.1410
     70  CG        -6.8820    6.4510   32.8470 C.2   127  ASP127      0.3668
     71  OD1       -7.6510    5.6250   32.3090 O.co2 127  ASP127     -0.2456
     72  OD2       -7.1750    7.1140   33.8630 O.co2 127  ASP127     -0.2456
     73  N          1.8910    3.0740   12.8040 N.3   141  TRP141     -0.1241
     74  CA         0.8840    3.2230   11.7560 C.3   141  TRP141      0.1605
     75  C          1.2450    4.3900   10.8170 C.2   141  TRP141      0.2264
     76  O          1.1570    4.2830    9.5920 O.2   141  TRP141     -0.2867
     77  CB        -0.4900    3.4360   12.4040 C.3   141  TRP141      0.0550
     78  CG        -1.6800    3.1820   11.5190 C.ar  141  TRP141      0.0003
     79  CD1       -1.6660    2.8460   10.1960 C.ar  141  TRP141      0.0946
     80  CD2       -3.0650    3.2390   11.9010 C.ar  141  TRP141      0.0152
     81  NE1       -2.9510    2.6950    9.7310 N.ar  141  TRP141     -0.2442
     82  CE2       -3.8290    2.9310   10.7580 C.ar  141  TRP141      0.0810
     83  CE3       -3.7320    3.5220   13.0990 C.ar  141  TRP141      0.0012
     84  CZ2       -5.2230    2.8990   10.7740 C.ar  141  TRP141      0.0191
     85  CZ3       -5.1140    3.4950   13.1140 C.ar  141  TRP141      0.0001
     86  CH2       -5.8450    3.1830   11.9580 C.ar  141  TRP141      0.0015
@<TRIPOS>BOND
     1    76    75    2
     2    81    79   ar
     3    81    82   ar
     4    79    78   ar
     5    82    84   ar
     6    82    80   ar
     7    84    86   ar
     8    75    74    1
     9    78    80   ar
    10    78    77    1
    11    74    77    1
    12    74    73    1
    13    80    83   ar
    14    86    85   ar
    15    83    85   ar
    16     7     6    1
    17     6     8    1
    18     6     5    1
    19     5     2    1
    20     1     2    1
    21     2     3    1
    22    16    14    1
    23     3     4    2
    24    14    13    1
    25    13    15    1
    26    13    10    1
    27     9    10    1
    28    10    11    1
    29    17    11   am
    30    17    18    1
    31    21    18    1
    32    21    22    1
    33    11    12    2
    34    18    19    1
    35    22    23   ar
    36    22    24   ar
    37    23    25   ar
    38    24    26   ar
    39    19    20    2
    40    25    27   ar
    41    26    27   ar
    42    34    32    1
    43    32    33    1
    44    32    29    1
    45    28    29    1
    46    29    30    1
    47    41    39    1
    48    42    40    1
    49    35    30   am
    50    35    36    1
    51    30    31    2
    52    40    39    1
    53    39    36    1
    54    68    67    2
    55    36    37    1
    56    50    48    1
    57    67    66    1
    58    37    38    2
    59    48    47    1
    60    66    69    1
    61    66    65    1
    62    69    70    1
    63    71    70   ar
    64    43    44    1
    65    47    44    1
    66    47    49    1
    67    70    72   ar
    68    44    45    1
    69    62    61    2
    70    45    51   am
    71    45    46    2
    72    51    52    1
    73    57    56   ar
    74    59    60    1
    75    61    60    1
    76    64    63    1
    77    56    58   ar
    78    56    55    1
    79    52    53    1
    80    52    55    1
    81    60    63    1
    82    53    54    2
