@<TRIPOS>MOLECULE
tmp/5hxeA08.pdb
 77 72 0 0 0
SMALL
GASTEIGER

@<TRIPOS>ATOM
      1  N         10.4410   16.4270   24.1180 N.3    52  LEU52      -0.1231
      2  CA        11.3200   16.0190   25.2140 C.3    52  LEU52       0.1678
      3  C         11.2180   16.9420   26.4460 C.2    52  LEU52       0.2434
      4  O         11.2220   16.4480   27.5740 O.2    52  LEU52      -0.2733
      5  CB        12.7770   15.9420   24.7360 C.3    52  LEU52       0.0284
      6  CG        13.1130   14.8610   23.7040 C.3    52  LEU52       0.0019
      7  CD1       14.5810   14.9270   23.3070 C.3    52  LEU52       0.0001
      8  CD2       12.7590   13.4810   24.2310 C.3    52  LEU52       0.0001
      9  N         11.1290   18.2750   26.2410 N.am   53  PRO53      -0.2729
     10  CA        10.8620   19.1590   27.3850 C.3    53  PRO53       0.1401
     11  C          9.5880   18.8180   28.1560 C.2    53  PRO53       0.2269
     12  O          9.6290   18.7480   29.3850 O.2    53  PRO53      -0.2865
     13  CB        10.7250   20.5370   26.7360 C.3    53  PRO53       0.0296
     14  CG        11.5140   20.4560   25.5020 C.3    53  PRO53       0.0237
     15  CD        11.4250   19.0510   25.0200 C.3    53  PRO53       0.0939
     16  N          9.9130   15.3720   30.1670 N.3    56  LEU56      -0.1231
     17  CA        10.7410   15.5120   31.3590 C.3    56  LEU56       0.1693
     18  C         10.0500   16.3640   32.4180 C.2    56  LEU56       0.2592
     19  O         10.0640   16.0250   33.5990 O.2    56  LEU56      -0.2718
     20  CB        12.1010   16.1130   31.0010 C.3    56  LEU56       0.0284
     21  CG        12.9690   15.2530   30.0790 C.3    56  LEU56       0.0019
     22  CD1       14.3290   15.8790   29.8960 C.3    56  LEU56       0.0001
     23  CD2       13.1110   13.8420   30.6260 C.3    56  LEU56       0.0001
     24  N          9.4370   17.4610   31.9820 N.am   57  THR57      -0.1953
     25  CA         8.7290   18.3690   32.8810 C.3    57  THR57       0.1897
     26  C          7.5810   17.6650   33.6010 C.2    57  THR57       0.2313
     27  O          7.4570   17.7580   34.8200 O.2    57  THR57      -0.2863
     28  CB         8.1790   19.5930   32.1140 C.3    57  THR57       0.1794
     29  OG1        9.2700   20.3700   31.6070 O.3    57  THR57      -0.2208
     30  CG2        7.3250   20.4670   33.0180 C.3    57  THR57       0.0378
     31  N         16.7050   22.9080   21.9400 N.3   169  LEU169     -0.1245
     32  CA        16.4500   22.4230   23.2920 C.3   169  LEU169      0.1561
     33  C         17.2780   23.1960   24.3180 C.2   169  LEU169      0.2260
     34  O         16.7700   23.5840   25.3700 O.2   169  LEU169     -0.2867
     35  CB        16.7430   20.9240   23.3910 C.3   169  LEU169      0.0270
     36  CG        15.8190   19.9940   22.5990 C.3   169  LEU169      0.0019
     37  CD1       16.1540   18.5450   22.8860 C.3   169  LEU169      0.0001
     38  CD2       14.3520   20.2710   22.9030 C.3   169  LEU169      0.0001
     39  N         16.0850   26.8760   24.2850 N.3   172  ALA172     -0.1231
     40  CA        14.8520   27.0790   25.0390 C.3   172  ALA172      0.1694
     41  C         15.1420   27.1610   26.5350 C.2   172  ALA172      0.2591
     42  O         14.4750   27.8900   27.2620 O.2   172  ALA172     -0.2718
     43  CB        13.8580   25.9730   24.7430 C.3   172  ALA172      0.0304
     44  N         16.1350   26.4060   26.9880 N.am  173  GLU173     -0.1979
     45  CA        16.5170   26.4390   28.3880 C.3   173  GLU173      0.1602
     46  C         17.1960   27.7390   28.7860 C.2   173  GLU173      0.2287
     47  O         16.8650   28.3190   29.8230 O.2   173  GLU173     -0.2864
     48  CB        17.3980   25.2320   28.7170 C.3   173  GLU173      0.0415
     49  CG        17.4450   24.7690   30.1930 C.3   173  GLU173      0.1163
     50  CD        16.1250   24.7900   30.9690 C.2   173  GLU173      0.3649
     51  OE1       15.0560   25.1320   30.4240 O.co2 173  GLU173     -0.2457
     52  OE2       16.1470   24.4300   32.1720 O.co2 173  GLU173     -0.2457
     53  N         14.4690   30.4220   28.9660 N.3   176  VAL176     -0.1245
     54  CA        13.6660   30.3160   30.1770 C.3   176  VAL176      0.1561
     55  C         14.4980   30.6690   31.4050 C.2   176  VAL176      0.2260
     56  O         14.0810   31.4760   32.2360 O.2   176  VAL176     -0.2867
     57  CB        13.0750   28.9010   30.3490 C.3   176  VAL176      0.0252
     58  CG1       12.4400   28.7540   31.7210 C.3   176  VAL176      0.0019
     59  CG2       12.0560   28.6120   29.2560 C.3   176  VAL176      0.0019
     60  N          7.1230   27.6800   27.7630 N.3   201  GLY201     -0.1210
     61  CA         8.5650   27.5040   27.7440 C.3   201  GLY201      0.1956
     62  C          8.9890   26.2080   27.0770 C.2   201  GLY201      0.2612
     63  O          9.9040   26.1900   26.2510 O.2   201  GLY201     -0.2717
     64  N          8.3150   25.1190   27.4290 N.am  202  THR202     -0.1952
     65  CA         8.5860   23.8290   26.8100 C.3   202  THR202      0.1897
     66  C          8.0600   23.7720   25.3760 C.2   202  THR202      0.2313
     67  O          8.4210   22.8750   24.6230 O.2   202  THR202     -0.2863
     68  CB         7.9730   22.6690   27.6230 C.3   202  THR202      0.1794
     69  OG1        6.5620   22.8670   27.7620 O.3   202  THR202     -0.2208
     70  CG2        8.6130   22.5820   29.0010 C.3   202  THR202      0.0378
     71  N         10.4560   25.0790   21.4550 N.3   205  PRO205     -0.2116
     72  CA        10.9450   24.3090   20.3030 C.3   205  PRO205      0.1372
     73  C          9.9190   24.1810   19.1730 C.2   205  PRO205      0.2244
     74  O         10.2560   24.5030   18.0360 O.2   205  PRO205     -0.2868
     75  CB        11.2550   22.9380   20.9090 C.3   205  PRO205      0.0268
     76  CG        11.6190   23.2380   22.3120 C.3   205  PRO205      0.0207
     77  CD        10.7210   24.3730   22.7240 C.3   205  PRO205      0.0892
@<TRIPOS>BOND
     1    74    73    2
     2    73    72    1
     3    72    75    1
     4    72    71    1
     5    75    76    1
     6    71    77    1
     7    31    32    1
     8    76    77    1
     9    36    37    1
    10    36    38    1
    11    36    35    1
    12    32    35    1
    13    32    33    1
    14     7     6    1
    15     6     8    1
    16     6     5    1
    17     1     2    1
    18    39    40    1
    19    33    34    2
    20    67    66    2
    21     5     2    1
    22    43    40    1
    23    15    14    1
    24    15     9    1
    25    40    41    1
    26     2     3    1
    27    66    65    1
    28    14    13    1
    29     9     3   am
    30     9    10    1
    31    63    62    2
    32     3     4    2
    33    41    44   am
    34    41    42    2
    35    13    10    1
    36    65    64    1
    37    65    68    1
    38    44    45    1
    39    62    64   am
    40    62    61    1
    41    10    11    1
    42    68    69    1
    43    68    70    1
    44    61    60    1
    45    11    12    2
    46    45    48    1
    47    45    46    1
    48    48    49    1
    49    46    47    2
    50    53    54    1
    51    59    57    1
    52    22    21    1
    53    21    23    1
    54    21    20    1
    55    16    17    1
    56    54    57    1
    57    54    55    1
    58    49    50    1
    59    57    58    1
    60    51    50   ar
    61    50    52   ar
    62    20    17    1
    63    17    18    1
    64    55    56    2
    65    29    28    1
    66    24    18   am
    67    24    25    1
    68    28    25    1
    69    28    30    1
    70    18    19    2
    71    25    26    1
    72    26    27    2
