@<TRIPOS>MOLECULE
tmp/5hxfA00.pdb
 202 199 0 0 0
SMALL
GASTEIGER

@<TRIPOS>ATOM
      1  N        -10.7630   26.9160  -24.5980 N.3    23  GLN23      -0.1231
      2  CA       -11.1540   27.9280  -23.6270 C.3    23  GLN23       0.1698
      3  C         -9.9780   28.7040  -23.0550 C.2    23  GLN23       0.2593
      4  O        -10.1970   29.7430  -22.4310 O.2    23  GLN23      -0.2718
      5  CB       -11.8850   27.2740  -22.4490 C.3    23  GLN23       0.0381
      6  CG       -13.3060   26.8130  -22.7340 C.3    23  GLN23       0.0905
      7  CD       -14.2920   27.9660  -22.7890 C.2    23  GLN23       0.2608
      8  OE1      -14.4490   28.6150  -23.8230 O.2    23  GLN23      -0.2717
      9  NE2      -14.9560   28.2320  -21.6660 N.am   23  GLN23      -0.0878
     10  N         -8.7550   28.2090  -23.1910 N.am   24  GLY24      -0.1942
     11  CA        -7.6070   28.9310  -22.6970 C.3    24  GLY24       0.2014
     12  C         -6.6780   28.0240  -21.9270 C.2    24  GLY24       0.2639
     13  O         -6.6560   26.8060  -22.1350 O.2    24  GLY24      -0.2714
     14  N         -5.9060   28.6380  -21.0330 N.am   25  HIS25      -0.1959
     15  CA        -4.8300   27.9690  -20.3190 C.3    25  HIS25       0.1787
     16  C         -5.3130   27.5860  -18.9310 C.2    25  HIS25       0.2620
     17  O         -5.9910   28.3700  -18.2570 O.2    25  HIS25      -0.2715
     18  CB        -3.6270   28.9010  -20.1770 C.3    25  HIS25       0.0785
     19  CG        -3.0020   29.2870  -21.4780 C.ar   25  HIS25       0.0821
     20  ND1       -1.8210   28.7410  -21.9280 N.ar   25  HIS25      -0.2267
     21  CD2       -3.3970   30.1710  -22.4240 C.ar   25  HIS25       0.1154
     22  CE1       -1.5130   29.2720  -23.0980 C.ar   25  HIS25       0.1986
     23  NE2       -2.4520   30.1450  -23.4190 N.ar   25  HIS25      -0.2212
     24  N         -4.9540   26.3760  -18.5110 N.am   26  PHE26      -0.1974
     25  CA        -5.3670   25.8450  -17.2190 C.3    26  PHE26       0.1639
     26  C         -4.2390   25.0320  -16.6140 C.2    26  PHE26       0.2290
     27  O         -3.3300   24.5640  -17.3090 O.2    26  PHE26      -0.2864
     28  CB        -6.6210   24.9810  -17.3470 C.3    26  PHE26       0.0560
     29  CG        -7.7910   25.7290  -17.9060 C.ar   26  PHE26      -0.0200
     30  CD1       -8.6380   26.4480  -17.0760 C.ar   26  PHE26      -0.0042
     31  CD2       -8.0040   25.7670  -19.2750 C.ar   26  PHE26      -0.0042
     32  CE1       -9.7070   27.1720  -17.6080 C.ar   26  PHE26      -0.0003
     33  CE2       -9.0640   26.4820  -19.8130 C.ar   26  PHE26      -0.0003
     34  CZ        -9.9150   27.1860  -18.9800 C.ar   26  PHE26      -0.0000
     35  N        -10.9740   22.0250  -14.3720 N.3    39  PRO39      -0.2102
     36  CA       -12.2450   22.7390  -14.1780 C.3    39  PRO39       0.1504
     37  C        -13.1800   22.4360  -15.3380 C.2    39  PRO39       0.2576
     38  O        -12.7510   22.3480  -16.4930 O.2    39  PRO39      -0.2718
     39  CB       -11.8420   24.2180  -14.1940 C.3    39  PRO39       0.0282
     40  CG       -10.3770   24.2550  -14.0640 C.3    39  PRO39       0.0208
     41  CD        -9.8520   22.9500  -14.6110 C.3    39  PRO39       0.0893
     42  N        -14.4680   22.2700  -15.0160 N.am   40  ARG40      -0.1966
     43  CA       -15.4970   22.1260  -16.0460 C.3    40  ARG40       0.1729
     44  C        -15.3890   23.2310  -17.0830 C.2    40  ARG40       0.2616
     45  O        -15.5470   22.9870  -18.2860 O.2    40  ARG40      -0.2715
     46  CB       -16.8840   22.1660  -15.4030 C.3    40  ARG40       0.0348
     47  CG       -18.0170   22.0810  -16.4220 C.3    40  ARG40       0.0492
     48  CD       -19.3850   22.3680  -15.8060 C.3    40  ARG40       0.2205
     49  NE       -20.4340   22.3770  -16.8240 N.pl3  40  ARG40      -0.0865
     50  CZ       -21.2800   21.3760  -17.0490 C.cat  40  ARG40       0.5346
     51  NH1      -21.2270   20.2740  -16.3140 N.pl3  40  ARG40       0.1354
     52  NH2      -22.1910   21.4800  -18.0060 N.pl3  40  ARG40       0.1354
     53  N        -15.0800   24.4480  -16.6280 N.am   41  HIS41      -0.1973
     54  CA       -15.0040   25.6240  -17.4870 C.3    41  HIS41       0.1656
     55  C        -13.9590   25.5000  -18.5950 C.2    41  HIS41       0.2291
     56  O        -14.0120   26.2650  -19.5650 O.2    41  HIS41      -0.2864
     57  CB       -14.7130   26.8470  -16.6120 C.3    41  HIS41       0.0771
     58  CG       -14.9430   28.1580  -17.2960 C.ar   41  HIS41       0.0820
     59  ND1      -16.1900   28.5720  -17.7130 N.ar   41  HIS41      -0.2267
     60  CD2      -14.0870   29.1560  -17.6210 C.ar   41  HIS41       0.1154
     61  CE1      -16.0910   29.7640  -18.2730 C.ar   41  HIS41       0.1986
     62  NE2      -14.8260   30.1420  -18.2300 N.ar   41  HIS41      -0.2212
     63  N        -18.2830   21.1740  -10.7330 N.3    72  GLU72      -0.1245
     64  CA       -17.6560   22.0940  -11.6770 C.3    72  GLU72       0.1567
     65  C        -16.2170   21.6950  -11.9830 C.2    72  GLU72       0.2260
     66  O        -15.3830   22.5390  -12.3340 O.2    72  GLU72      -0.2867
     67  CB       -17.7520   23.5650  -11.2430 C.3    72  GLU72       0.0388
     68  CG       -19.0600   23.9750  -10.6920 C.3    72  GLU72       0.1160
     69  CD       -20.1410   23.8290  -11.6860 C.2    72  GLU72       0.3649
     70  OE1      -19.8720   23.9650  -12.9000 O.co2  72  GLU72      -0.2457
     71  OE2      -21.2900   23.5590  -11.2490 O.co2  72  GLU72      -0.2457
     72  N        -16.8360   27.5000    2.8260 N.3   123  TYR123     -0.1241
     73  CA       -17.7150   28.4770    2.2040 C.3   123  TYR123      0.1605
     74  C        -19.0560   27.8240    1.9190 C.2   123  TYR123      0.2264
     75  O        -20.0970   28.3480    2.3320 O.2   123  TYR123     -0.2867
     76  CB       -17.0730   29.0680    0.9410 C.3   123  TYR123      0.0534
     77  CG       -17.7380   30.3380    0.4780 C.ar  123  TYR123     -0.0201
     78  CD1      -17.4480   31.5500    1.0940 C.ar  123  TYR123     -0.0009
     79  CD2      -18.6670   30.3330   -0.5500 C.ar  123  TYR123     -0.0009
     80  CE1      -18.0630   32.7260    0.6940 C.ar  123  TYR123      0.0417
     81  CE2      -19.2870   31.5120   -0.9650 C.ar  123  TYR123      0.0417
     82  CZ       -18.9730   32.6990   -0.3340 C.ar  123  TYR123      0.1957
     83  OH       -19.5800   33.8720   -0.7400 O.3   123  TYR123     -0.2866
     84  N        -22.0430   27.9380   -3.5340 N.3   126  LEU126     -0.1231
     85  CA       -21.4240   28.9690   -4.3520 C.3   126  LEU126      0.1693
     86  C        -22.1300   29.0290   -5.6900 C.2   126  LEU126      0.2592
     87  O        -22.3060   27.9990   -6.3460 O.2   126  LEU126     -0.2718
     88  CB       -19.9350   28.6440   -4.5630 C.3   126  LEU126      0.0284
     89  CG       -19.0980   29.6030   -5.4170 C.3   126  LEU126      0.0019
     90  CD1      -19.0630   30.9900   -4.8060 C.3   126  LEU126      0.0001
     91  CD2      -17.6890   29.0500   -5.5510 C.3   126  LEU126      0.0001
     92  N        -22.5280   30.2370   -6.0940 N.am  127  ASN127     -0.1960
     93  CA       -23.1360   30.4690   -7.3930 C.3   127  ASN127      0.1819
     94  C        -22.0530   31.1050   -8.2500 C.2   127  ASN127      0.2621
     95  O        -21.7370   32.2850   -8.0960 O.2   127  ASN127     -0.2715
     96  CB       -24.3540   31.3850   -7.2480 C.3   127  ASN127      0.1195
     97  CG       -25.2340   31.4030   -8.4930 C.2   127  ASN127      0.2630
     98  OD1      -25.2550   30.4490   -9.2680 O.2   127  ASN127     -0.2716
     99  ND2      -25.9880   32.4850   -8.6720 N.am  127  ASN127     -0.0877
    100  N        -21.4460   30.3150   -9.1230 N.am  128  LEU128     -0.1963
    101  CA       -20.3480   30.7840   -9.9600 C.3   128  LEU128      0.1728
    102  C        -20.8950   31.0980  -11.3420 C.2   128  LEU128      0.2616
    103  O        -21.2250   30.1880  -12.1080 O.2   128  LEU128     -0.2715
    104  CB       -19.2360   29.7420  -10.0430 C.3   128  LEU128      0.0311
    105  CG       -18.2070   29.7830   -8.9120 C.3   128  LEU128      0.0022
    106  CD1      -16.9950   28.9280   -9.2520 C.3   128  LEU128      0.0001
    107  CD2      -17.7860   31.2090   -8.5810 C.3   128  LEU128      0.0001
    108  N        -20.9720   32.3880  -11.6560 N.am  129  SER129     -0.1950
    109  CA       -21.4980   32.8720  -12.9310 C.3   129  SER129      0.1924
    110  C        -22.8190   32.1870  -13.2790 C.2   129  SER129      0.2314
    111  O        -23.0220   31.7100  -14.3970 O.2   129  SER129     -0.2863
    112  CB       -20.4740   32.7130  -14.0580 C.3   129  SER129      0.2116
    113  OG       -19.3310   33.5270  -13.8310 O.3   129  SER129     -0.2180
    114  N        -23.9210   29.3030  -12.0700 N.3   131  LYS131     -0.1245
    115  CA       -23.9270   27.8540  -11.9310 C.3   131  LYS131      0.1561
    116  C        -23.7250   27.5030  -10.4660 C.2   131  LYS131      0.2260
    117  O        -22.6400   27.7540   -9.9190 O.2   131  LYS131     -0.2867
    118  CB       -22.8370   27.2190  -12.7910 C.3   131  LYS131      0.0271
    119  CG       -22.9090   27.6510  -14.2460 C.3   131  LYS131      0.0035
    120  CD       -23.3210   26.5240  -15.1730 C.3   131  LYS131      0.0206
    121  CE       -23.5660   27.0500  -16.5830 C.3   131  LYS131      0.1093
    122  NZ       -22.3450   27.6840  -17.1570 N.3   131  LYS131     -0.1314
    123  N         -7.2820   36.1520   -6.4040 N.3   143  THR143     -0.1203
    124  CA        -6.9850   35.2530   -7.5100 C.3   143  THR143      0.1994
    125  C         -7.4780   35.8450   -8.8250 C.2   143  THR143      0.2618
    126  O         -8.3190   36.7600   -8.8570 O.2   143  THR143     -0.2717
    127  CB        -7.5990   33.8740   -7.2650 C.3   143  THR143      0.1784
    128  OG1       -8.9840   34.0230   -6.9500 O.3   143  THR143     -0.2211
    129  CG2       -6.9120   33.1860   -6.1040 C.3   143  THR143      0.0376
    130  N         -6.9310   35.3150   -9.9240 N.am  144  LYS144     -0.1965
    131  CA        -7.0990   35.9180  -11.2350 C.3   144  LYS144      0.1728
    132  C         -7.4950   34.8790  -12.2650 C.2   144  LYS144      0.2616
    133  O         -7.2880   33.6740  -12.0830 O.2   144  LYS144     -0.2715
    134  CB        -5.7780   36.5490  -11.7090 C.3   144  LYS144      0.0311
    135  CG        -5.2170   37.6120  -10.7820 C.3   144  LYS144      0.0038
    136  CD        -5.8960   38.9470  -11.0460 C.3   144  LYS144      0.0206
    137  CE        -5.2370   40.0800  -10.2700 C.3   144  LYS144      0.1093
    138  NZ        -5.4760   39.9660   -8.8040 N.3   144  LYS144     -0.1314
    139  N         -8.0270   35.3830  -13.3760 N.am  145  ALA145     -0.1963
    140  CA        -8.1810   34.5840  -14.5790 C.3   145  ALA145      0.1728
    141  C         -6.8570   33.9250  -14.9200 C.2   145  ALA145      0.2616
    142  O         -5.7850   34.5030  -14.7240 O.2   145  ALA145     -0.2715
    143  CB        -8.6300   35.4650  -15.7490 C.3   145  ALA145      0.0334
    144  N         -6.9450   32.7080  -15.4110 N.am  146  GLY146     -0.1955
    145  CA        -5.7660   31.9380  -15.7020 C.3   146  GLY146      0.1869
    146  C         -5.2750   31.0830  -14.5580 C.2   146  GLY146      0.2309
    147  O         -4.3520   30.2950  -14.7600 O.2   146  GLY146     -0.2863
    148  N         -7.4360   29.0590  -12.8700 N.3   148  CYS148     -0.1235
    149  CA        -8.3550   27.9510  -12.6590 C.3   148  CYS148      0.1677
    150  C         -7.6760   26.6200  -12.9580 C.2   148  CYS148      0.2270
    151  O         -6.8670   26.4950  -13.8950 O.2   148  CYS148     -0.2867
    152  CB        -9.6150   28.1010  -13.4980 C.3   148  CYS148      0.0956
    153  SG       -10.7520   29.2970  -12.7860 S.3   148  CYS148     -0.0801
    154  N         -8.8710   25.2510   -7.7630 N.3   162  HIS162     -0.1226
    155  CA        -9.3480   26.6250   -7.9150 C.3   162  HIS162      0.1752
    156  C        -10.3300   26.7400   -9.0790 C.2   162  HIS162      0.2596
    157  O        -10.0270   26.3300  -10.2090 O.2   162  HIS162     -0.2718
    158  CB        -8.1830   27.5840   -8.1730 C.3   162  HIS162      0.0759
    159  CG        -8.6220   29.0020   -8.2130 C.ar  162  HIS162      0.0818
    160  ND1       -8.9860   29.6830   -7.0760 N.ar  162  HIS162     -0.2268
    161  CD2       -8.8800   29.8320   -9.2510 C.ar  162  HIS162      0.1154
    162  CE1       -9.4020   30.8950   -7.4080 C.ar  162  HIS162      0.1986
    163  NE2       -9.3310   31.0170   -8.7180 N.ar  162  HIS162     -0.2212
    164  N        -11.5010   27.3230   -8.8090 N.am  163  ILE163     -0.1966
    165  CA       -12.5380   27.4400   -9.8330 C.3   163  ILE163      0.1727
    166  C        -13.0610   28.8530  -10.0420 C.2   163  ILE163      0.2617
    167  O        -13.6590   29.1240  -11.0950 O.2   163  ILE163     -0.2715
    168  CB       -13.7130   26.4500   -9.6260 C.3   163  ILE163      0.0290
    169  CG1      -14.3430   26.6110   -8.2400 C.3   163  ILE163      0.0022
    170  CG2      -13.2640   25.0140   -9.9040 C.3   163  ILE163      0.0023
    171  CD1      -15.6030   25.7320   -8.0220 C.3   163  ILE163      0.0001
    172  N        -12.8850   29.8000   -9.1250 N.am  164  GLY164     -0.1940
    173  CA       -13.4800   31.1090   -9.3560 C.3   164  GLY164      0.2014
    174  C        -13.0520   32.1150   -8.3130 C.2   164  GLY164      0.2639
    175  O        -12.3180   31.8010   -7.3760 O.2   164  GLY164     -0.2714
    176  N        -13.5230   33.3450   -8.5000 N.am  165  GLY165     -0.1939
    177  CA       -13.2020   34.4230   -7.5780 C.3   165  GLY165      0.2014
    178  C        -13.8980   35.6900   -8.0180 C.2   165  GLY165      0.2639
    179  O        -14.4270   35.7780   -9.1290 O.2   165  GLY165     -0.2714
    180  N        -13.8680   36.6850   -7.1290 N.am  166  ASN166     -0.1958
    181  CA       -14.6030   37.9330   -7.3310 C.3   166  ASN166      0.1819
    182  C        -13.6990   39.1590   -7.3830 C.2   166  ASN166      0.2621
    183  O        -14.2000   40.2910   -7.3000 O.2   166  ASN166     -0.2715
    184  CB       -15.6680   38.1120   -6.2470 C.3   166  ASN166      0.1195
    185  CG       -15.0800   38.0710   -4.8600 C.2   166  ASN166      0.2630
    186  OD1      -13.8740   38.2330   -4.6800 O.2   166  ASN166     -0.2716
    187  ND2      -15.9240   37.8160   -3.8680 N.am  166  ASN166     -0.0877
    188  N        -12.3880   38.9690   -7.5230 N.am  167  GLY167     -0.1954
    189  CA       -11.4140   40.0360   -7.5250 C.3   167  GLY167      0.1869
    190  C        -10.6610   40.1750   -6.2220 C.2   167  GLY167      0.2309
    191  O         -9.4950   40.5920   -6.2320 O.2   167  GLY167     -0.2863
    192  N        -12.0340   30.8200   -4.7180 N.3   171  PHE171     -0.1241
    193  CA       -12.8570   29.6960   -4.2950 C.3   171  PHE171      0.1605
    194  C        -12.3740   28.4480   -4.9920 C.2   171  PHE171      0.2264
    195  O        -12.1010   28.4690   -6.1960 O.2   171  PHE171     -0.2867
    196  CB       -14.3190   29.9280   -4.6830 C.3   171  PHE171      0.0534
    197  CG       -14.9050   31.1460   -4.0370 C.ar  171  PHE171     -0.0203
    198  CD1      -15.4790   31.0690   -2.7840 C.ar  171  PHE171     -0.0042
    199  CD2      -14.8040   32.3800   -4.6480 C.ar  171  PHE171     -0.0042
    200  CE1      -15.9890   32.2100   -2.1590 C.ar  171  PHE171     -0.0003
    201  CE2      -15.2990   33.5240   -4.0290 C.ar  171  PHE171     -0.0003
    202  CZ       -15.8930   33.4290   -2.7900 C.ar  171  PHE171     -0.0000
@<TRIPOS>BOND
     1     1     2    1
     2     8     7    2
     3     2     3    1
     4     2     5    1
     5    23    22   ar
     6    23    21   ar
     7    10     3   am
     8    10    11    1
     9    22    20   ar
    10     3     4    2
    11     7     6    1
    12     7     9   am
    13     6     5    1
    14    11    12    1
    15    21    19   ar
    16    13    12    2
    17    20    19   ar
    18    12    14   am
    19    19    18    1
    20    14    15    1
    21    15    18    1
    22    15    16    1
    23    33    31   ar
    24    33    34   ar
    25    56    55    2
    26    31    29   ar
    27    34    32   ar
    28    16    24   am
    29    16    17    2
    30    55    54    1
    31    24    25    1
    32    45    44    2
    33    61    62   ar
    34    61    59   ar
    35    62    60   ar
    36    52    50    1
    37    29    28    1
    38    29    30   ar
    39    59    58   ar
    40    60    58   ar
    41    32    30   ar
    42    54    53    1
    43    54    57    1
    44    28    25    1
    45    27    26    2
    46    58    57    1
    47    25    26    1
    48   122   121    1
    49    44    53   am
    50    44    43    1
    51    50    49    2
    52    50    51    1
    53    49    48    1
    54   121   120    1
    55    38    37    2
    56    47    48    1
    57    47    46    1
    58    43    46    1
    59    43    42    1
    60   143   140    1
    61   145   144    1
    62   145   146    1
    63   144   141   am
    64    37    42   am
    65    37    36    1
    66   120   119    1
    67   141   142    2
    68   141   140    1
    69   147   146    2
    70    41    35    1
    71    41    40    1
    72   140   139    1
    73   111   110    2
    74    35    36    1
    75   119   118    1
    76    39    36    1
    77    39    40    1
    78   112   113    1
    79   112   109    1
    80   151   150    2
    81   152   153    1
    82   152   149    1
    83   139   132   am
    84   110   109    1
    85   150   149    1
    86   109   108    1
    87    70    69   ar
    88   148   149    1
    89   118   115    1
    90    66    65    2
    91   132   133    2
    92   132   131    1
    93   103   102    2
    94   114   115    1
    95    65    64    1
    96   115   116    1
    97   134   131    1
    98   134   135    1
    99    69    71   ar
   100    69    68    1
   101    64    67    1
   102    64    63    1
   103   108   102   am
   104   102   101    1
   105    67    68    1
   106   131   130    1
   107   167   166    2
   108   136   135    1
   109   136   137    1
   110   116   117    2
   111   137   138    1
   112   157   156    2
   113   104   101    1
   114   104   105    1
   115   166   165    1
   116   166   172   am
   117   101   100    1
   118   130   125   am
   119   170   168    1
   120   165   168    1
   121   165   164    1
   122   168   169    1
   123   173   172    1
   124   173   174    1
   125    98    97    2
   126   106   105    1
   127   161   163   ar
   128   161   159   ar
   129   179   178    2
   130   100    94   am
   131   156   164   am
   132   156   155    1
   133   105   107    1
   134   126   125    2
   135   125   124    1
   136   163   162   ar
   137    99    97   am
   138   176   174   am
   139   176   177    1
   140    97    96    1
   141   174   175    2
   142    94    95    2
   143    94    93    1
   144   169   171    1
   145   159   158    1
   146   159   160   ar
   147   158   155    1
   148   178   177    1
   149   178   180   am
   150   155   154    1
   151   189   188    1
   152   189   190    1
   153   188   182   am
   154   124   127    1
   155   124   123    1
   156   162   160   ar
   157    93    96    1
   158    93    92    1
   159   182   181    1
   160   182   183    2
   161   181   180    1
   162   181   184    1
   163   127   128    1
   164   127   129    1
   165    87    86    2
   166   184   185    1
   167   191   190    2
   168   195   194    2
   169    92    86   am
   170    86    85    1
   171    91    89    1
   172    89    90    1
   173    89    88    1
   174   194   193    1
   175   185   186    2
   176   185   187   am
   177   192   193    1
   178   196   193    1
   179   196   197    1
   180   199   197   ar
   181   199   201   ar
   182    88    85    1
   183    85    84    1
   184   197   198   ar
   185   201   202   ar
   186   202   200   ar
   187   198   200   ar
   188    81    79   ar
   189    81    82   ar
   190    83    82    1
   191    79    77   ar
   192    82    80   ar
   193    77    76    1
   194    77    78   ar
   195    80    78   ar
   196    76    73    1
   197    74    73    1
   198    74    75    2
   199    73    72    1
