@<TRIPOS>MOLECULE
tmp/5hxhB03.pdb
 96 93 0 0 0
SMALL
GASTEIGER

@<TRIPOS>ATOM
      1  N         -2.4970   -8.0480    6.3670 N.3   103  LYS103     -0.1245
      2  CA        -1.4150   -7.2810    6.9690 C.3   103  LYS103      0.1561
      3  C         -1.9070   -6.5560    8.2130 C.2   103  LYS103      0.2260
      4  O         -1.2360   -6.5460    9.2450 O.2   103  LYS103     -0.2867
      5  CB        -0.8420   -6.2750    5.9700 C.3   103  LYS103      0.0271
      6  CG         0.1760   -5.3230    6.5760 C.3   103  LYS103      0.0035
      7  CD         0.5350   -4.1980    5.6190 C.3   103  LYS103      0.0206
      8  CE         1.3280   -4.7130    4.4310 C.3   103  LYS103      0.1093
      9  NZ         2.0260   -3.6120    3.7120 N.3   103  LYS103     -0.1314
     10  N         -0.7010   -7.1590   12.0610 N.3   107  VAL107     -0.1245
     11  CA        -0.3190   -6.0150   12.8790 C.3   107  VAL107      0.1561
     12  C         -1.0620   -6.0360   14.2130 C.2   107  VAL107      0.2260
     13  O         -0.4580   -5.8730   15.2740 O.2   107  VAL107     -0.2867
     14  CB        -0.5980   -4.6870   12.1470 C.3   107  VAL107      0.0252
     15  CG1       -0.6360   -3.5280   13.1260 C.3   107  VAL107      0.0019
     16  CG2        0.4460   -4.4510   11.0640 C.3   107  VAL107      0.0019
     17  N          0.1980   -8.8090   16.4170 N.3   110  LEU110     -0.1231
     18  CA         1.4490   -8.4660   17.0800 C.3   110  LEU110      0.1693
     19  C          1.2050   -7.4720   18.2100 C.2   110  LEU110      0.2592
     20  O          1.9850   -7.3930   19.1590 O.2   110  LEU110     -0.2718
     21  CB         2.4490   -7.8940   16.0760 C.3   110  LEU110      0.0284
     22  CG         2.9320   -8.8650   14.9980 C.3   110  LEU110      0.0019
     23  CD1        3.8640   -8.1620   14.0280 C.3   110  LEU110      0.0001
     24  CD2        3.6150  -10.0700   15.6270 C.3   110  LEU110      0.0001
     25  N          0.1170   -6.7150   18.1040 N.am  111  PHE111     -0.1976
     26  CA        -0.2430   -5.7520   19.1370 C.3   111  PHE111      0.1639
     27  C         -0.7440   -6.4680   20.3870 C.2   111  PHE111      0.2290
     28  O         -0.3980   -6.0910   21.5080 O.2   111  PHE111     -0.2864
     29  CB        -1.3050   -4.7800   18.6210 C.3   111  PHE111      0.0560
     30  CG        -1.5730   -3.6270   19.5460 C.ar  111  PHE111     -0.0200
     31  CD1       -0.7470   -2.5160   19.5430 C.ar  111  PHE111     -0.0042
     32  CD2       -2.6520   -3.6520   20.4130 C.ar  111  PHE111     -0.0042
     33  CE1       -0.9900   -1.4510   20.3900 C.ar  111  PHE111     -0.0003
     34  CE2       -2.9010   -2.5900   21.2630 C.ar  111  PHE111     -0.0003
     35  CZ        -2.0680   -1.4880   21.2510 C.ar  111  PHE111     -0.0000
     36  N          2.1580   -8.1370   22.0550 N.3   114  PHE114     -0.1241
     37  CA         2.9280   -7.0900   22.7170 C.3   114  PHE114      0.1605
     38  C          2.3090   -6.7220   24.0640 C.2   114  PHE114      0.2264
     39  O          3.0120   -6.5890   25.0660 O.2   114  PHE114     -0.2867
     40  CB         3.0240   -5.8520   21.8200 C.3   114  PHE114      0.0534
     41  CG         3.7990   -4.7170   22.4270 C.ar  114  PHE114     -0.0203
     42  CD1        5.1840   -4.7120   22.3990 C.ar  114  PHE114     -0.0042
     43  CD2        3.1420   -3.6460   23.0120 C.ar  114  PHE114     -0.0042
     44  CE1        5.9000   -3.6660   22.9530 C.ar  114  PHE114     -0.0003
     45  CE2        3.8510   -2.5960   23.5670 C.ar  114  PHE114     -0.0003
     46  CZ         5.2310   -2.6060   23.5370 C.ar  114  PHE114     -0.0000
     47  N          1.2050    3.6890   20.6150 N.3   134  LEU134     -0.1245
     48  CA         1.0830    2.6770   19.5690 C.3   134  LEU134      0.1561
     49  C         -0.3320    2.6270   18.9950 C.2   134  LEU134      0.2260
     50  O         -0.5240    2.2590   17.8370 O.2   134  LEU134     -0.2867
     51  CB         1.4840    1.3000   20.1050 C.3   134  LEU134      0.0270
     52  CG         2.9700    0.9280   20.0380 C.3   134  LEU134      0.0019
     53  CD1        3.8240    1.8220   20.9260 C.3   134  LEU134      0.0001
     54  CD2        3.1740   -0.5330   20.4080 C.3   134  LEU134      0.0001
     55  N         -0.3430    5.5160   16.5840 N.3   137  ILE137     -0.1231
     56  CA         0.4480    5.1070   15.4280 C.3   137  ILE137      0.1692
     57  C         -0.3240    4.1000   14.5770 C.2   137  ILE137      0.2592
     58  O         -0.2720    4.1480   13.3470 O.2   137  ILE137     -0.2718
     59  CB         1.8040    4.5000   15.8540 C.3   137  ILE137      0.0266
     60  CG1        2.6320    5.5300   16.6260 C.3   137  ILE137      0.0019
     61  CG2        2.5810    4.0020   14.6420 C.3   137  ILE137      0.0020
     62  CD1        2.7640    6.8640   15.9220 C.3   137  ILE137      0.0001
     63  N         -1.0470    3.1970   15.2340 N.am  138  TYR138     -0.1976
     64  CA        -1.8800    2.2370   14.5190 C.3   138  TYR138      0.1639
     65  C         -2.9960    2.9440   13.7640 C.2   138  TYR138      0.2290
     66  O         -3.2340    2.6630   12.5900 O.2   138  TYR138     -0.2864
     67  CB        -2.4830    1.2020   15.4710 C.3   138  TYR138      0.0560
     68  CG        -3.5120    0.3190   14.7990 C.ar  138  TYR138     -0.0198
     69  CD1       -3.1230   -0.7690   14.0270 C.ar  138  TYR138     -0.0009
     70  CD2       -4.8720    0.5810   14.9240 C.ar  138  TYR138     -0.0009
     71  CE1       -4.0580   -1.5740   13.4040 C.ar  138  TYR138      0.0417
     72  CE2       -5.8140   -0.2170   14.3020 C.ar  138  TYR138      0.0417
     73  CZ        -5.4020   -1.2930   13.5440 C.ar  138  TYR138      0.1957
     74  OH        -6.3370   -2.0910   12.9270 O.3   138  TYR138     -0.2866
     75  N         -1.5580    4.9120   10.8570 N.3   141  TRP141     -0.1241
     76  CA        -1.0750    3.9900    9.8340 C.3   141  TRP141      0.1605
     77  C         -2.2270    3.3760    9.0450 C.2   141  TRP141      0.2264
     78  O         -2.2110    3.3780    7.8160 O.2   141  TRP141     -0.2867
     79  CB        -0.2250    2.8790   10.4490 C.3   141  TRP141      0.0550
     80  CG         0.1020    1.7990    9.4650 C.ar  141  TRP141      0.0003
     81  CD1        0.9790    1.8780    8.4240 C.ar  141  TRP141      0.0946
     82  CD2       -0.4540    0.4790    9.4230 C.ar  141  TRP141      0.0152
     83  NE1        1.0050    0.6900    7.7350 N.ar  141  TRP141     -0.2442
     84  CE2        0.1360   -0.1870    8.3300 C.ar  141  TRP141      0.0810
     85  CE3       -1.3910   -0.2050   10.2030 C.ar  141  TRP141      0.0012
     86  CZ2       -0.1790   -1.5020    7.9990 C.ar  141  TRP141      0.0191
     87  CZ3       -1.7020   -1.5110    9.8730 C.ar  141  TRP141      0.0001
     88  CH2       -1.0980   -2.1460    8.7810 C.ar  141  TRP141      0.0015
     89  N         -2.6810    3.5870    5.2280 N.3   145  ASN145     -0.1240
     90  CA        -2.5120    2.3130    4.5390 C.3   145  ASN145      0.1653
     91  C         -3.7600    1.9060    3.7630 C.2   145  ASN145      0.2266
     92  O         -3.7030    1.0480    2.8820 O.2   145  ASN145     -0.2867
     93  CB        -2.1300    1.2140    5.5330 C.3   145  ASN145      0.1155
     94  CG        -1.5030    0.0100    4.8570 C.2   145  ASN145      0.2627
     95  OD1       -2.1670   -0.9990    4.6190 O.2   145  ASN145     -0.2716
     96  ND2       -0.2160    0.1100    4.5440 N.am  145  ASN145     -0.0877
@<TRIPOS>BOND
     1    92    91    2
     2     9     8    1
     3    91    90    1
     4     8     7    1
     5    90    89    1
     6    90    93    1
     7    96    94   am
     8    95    94    2
     9    94    93    1
    10     7     6    1
    11     5     6    1
    12     5     2    1
    13     1     2    1
    14     2     3    1
    15    83    84   ar
    16    83    81   ar
    17    78    77    2
    18    86    84   ar
    19    86    88   ar
    20     3     4    2
    21    84    82   ar
    22    81    80   ar
    23    88    87   ar
    24    77    76    1
    25    82    80   ar
    26    82    85   ar
    27    80    79    1
    28    76    79    1
    29    76    75    1
    30    87    85   ar
    31    16    14    1
    32    10    11    1
    33    14    11    1
    34    14    15    1
    35    66    65    2
    36    11    12    1
    37    74    73    1
    38    58    57    2
    39    71    73   ar
    40    71    69   ar
    41    73    72   ar
    42    65    64    1
    43    69    68   ar
    44    23    22    1
    45    12    13    2
    46    72    70   ar
    47    64    63    1
    48    64    67    1
    49    57    63   am
    50    57    56    1
    51    61    59    1
    52    68    70   ar
    53    68    67    1
    54    22    24    1
    55    22    21    1
    56    56    59    1
    57    56    55    1
    58    59    60    1
    59    62    60    1
    60    21    18    1
    61    17    18    1
    62    18    19    1
    63    50    49    2
    64    25    19   am
    65    25    26    1
    66    19    20    2
    67    29    26    1
    68    29    30    1
    69    49    48    1
    70    26    27    1
    71    31    30   ar
    72    31    33   ar
    73    30    32   ar
    74    48    51    1
    75    48    47    1
    76    52    51    1
    77    52    54    1
    78    52    53    1
    79    27    28    2
    80    33    35   ar
    81    32    34   ar
    82    35    34   ar
    83    40    41    1
    84    40    37    1
    85    36    37    1
    86    42    41   ar
    87    42    44   ar
    88    41    43   ar
    89    37    38    1
    90    44    46   ar
    91    43    45   ar
    92    46    45   ar
    93    38    39    2
