@<TRIPOS>MOLECULE
tmp/5hxiA01.pdb
 149 142 0 0 0
SMALL
GASTEIGER

@<TRIPOS>ATOM
      1  N         -7.9800   13.0440   25.0840 N.3    44  TYR44      -0.1241
      2  CA        -6.9030   12.0550   25.1360 C.3    44  TYR44       0.1605
      3  C         -6.3340   12.0080   26.5500 C.2    44  TYR44       0.2264
      4  O         -6.0960   13.0560   27.1510 O.2    44  TYR44      -0.2867
      5  CB        -5.7510   12.4480   24.2030 C.3    44  TYR44       0.0534
      6  CG        -5.9900   12.2790   22.7160 C.ar   44  TYR44      -0.0201
      7  CD1       -7.0550   12.9090   22.0670 C.ar   44  TYR44      -0.0009
      8  CD2       -5.1100   11.5250   21.9400 C.ar   44  TYR44      -0.0009
      9  CE1       -7.2560   12.7570   20.7020 C.ar   44  TYR44       0.0417
     10  CE2       -5.3010   11.3740   20.5740 C.ar   44  TYR44       0.0417
     11  CZ        -6.3760   11.9890   19.9590 C.ar   44  TYR44       0.1957
     12  OH        -6.5570   11.8330   18.6030 O.3    44  TYR44      -0.2866
     13  N         -1.0130    6.4190   16.2000 N.3    72  TYR72      -0.1241
     14  CA        -1.2660    7.8490   16.1020 C.3    72  TYR72       0.1605
     15  C         -0.6460    8.2650   14.7780 C.2    72  TYR72       0.2264
     16  O          0.5780    8.2940   14.6460 O.2    72  TYR72      -0.2867
     17  CB        -0.6200    8.5670   17.2880 C.3    72  TYR72       0.0534
     18  CG        -0.9570   10.0400   17.4490 C.ar   72  TYR72      -0.0201
     19  CD1       -0.6250   10.9740   16.4650 C.ar   72  TYR72      -0.0009
     20  CD2       -1.5700   10.5090   18.6110 C.ar   72  TYR72      -0.0009
     21  CE1       -0.9140   12.3180   16.6250 C.ar   72  TYR72       0.0417
     22  CE2       -1.8570   11.8550   18.7790 C.ar   72  TYR72       0.0417
     23  CZ        -1.5290   12.7560   17.7830 C.ar   72  TYR72       0.1957
     24  OH        -1.8110   14.0920   17.9430 O.3    72  TYR72      -0.2866
     25  N        -11.1920   26.2570   17.3480 N.3   169  LEU169     -0.1245
     26  CA       -11.6320   25.0520   16.6540 C.3   169  LEU169      0.1561
     27  C        -13.0330   24.6490   17.0620 C.2   169  LEU169      0.2260
     28  O        -13.5630   25.1280   18.0670 O.2   169  LEU169     -0.2867
     29  CB       -10.6710   23.8880   16.9250 C.3   169  LEU169      0.0270
     30  CG       -10.8010   23.1000   18.2330 C.3   169  LEU169      0.0019
     31  CD1       -9.8990   21.8770   18.2180 C.3   169  LEU169      0.0001
     32  CD2      -10.5030   23.9720   19.4360 C.3   169  LEU169      0.0001
     33  N        -15.1600   21.3690   18.0950 N.3   171  ARG171     -0.1245
     34  CA       -15.0430   19.9990   18.5960 C.3   171  ARG171      0.1563
     35  C        -16.4140   19.3570   18.7060 C.2   171  ARG171      0.2260
     36  O        -17.3210   19.9290   19.3090 O.2   171  ARG171     -0.2867
     37  CB       -14.3540   19.9820   19.9530 C.3   171  ARG171      0.0307
     38  CG       -12.8750   20.3170   19.8720 C.3   171  ARG171      0.0489
     39  CD       -12.2940   20.5380   21.2530 C.3   171  ARG171      0.2205
     40  NE       -12.8700   21.7180   21.8970 N.pl3 171  ARG171     -0.0865
     41  CZ       -12.7220   22.0440   23.1810 C.cat 171  ARG171      0.5346
     42  NH1      -11.9950   21.2890   24.0050 N.pl3 171  ARG171      0.1354
     43  NH2      -13.3070   23.1480   23.6450 N.pl3 171  ARG171      0.1354
     44  N         -3.5570   17.4520    8.5140 N.3   193  TRP193     -0.1241
     45  CA        -3.1250   18.8370    8.2940 C.3   193  TRP193      0.1605
     46  C         -3.2220   19.2660    6.8340 C.2   193  TRP193      0.2264
     47  O         -2.9470   18.4790    5.9280 O.2   193  TRP193     -0.2867
     48  CB        -1.6670   19.0160    8.7150 C.3   193  TRP193      0.0550
     49  CG        -1.4210   19.0700   10.1790 C.ar  193  TRP193      0.0003
     50  CD1       -1.3200   18.0150   11.0420 C.ar  193  TRP193      0.0946
     51  CD2       -1.1890   20.2480   10.9540 C.ar  193  TRP193      0.0152
     52  NE1       -1.0540   18.4710   12.3130 N.ar  193  TRP193     -0.2442
     53  CE2       -0.9680   19.8380   12.2860 C.ar  193  TRP193      0.0810
     54  CE3       -1.1550   21.6170   10.6520 C.ar  193  TRP193      0.0012
     55  CZ2       -0.7180   20.7490   13.3170 C.ar  193  TRP193      0.0191
     56  CZ3       -0.9060   22.5210   11.6770 C.ar  193  TRP193      0.0001
     57  CH2       -0.6940   22.0830   12.9930 C.ar  193  TRP193      0.0015
     58  N         -7.6210   21.8840    9.1390 N.3   201  ARG201     -0.1245
     59  CA        -7.0990   20.6770    9.7600 C.3   201  ARG201      0.1563
     60  C         -8.2280   19.9650   10.4860 C.2   201  ARG201      0.2260
     61  O         -9.0940   20.6160   11.0710 O.2   201  ARG201     -0.2867
     62  CB        -5.9790   21.0660   10.7280 C.3   201  ARG201      0.0307
     63  CG        -5.4610   19.9860   11.6710 C.3   201  ARG201      0.0489
     64  CD        -4.5270   20.6300   12.6790 C.3   201  ARG201      0.2205
     65  NE        -4.0260   19.7070   13.6970 N.pl3 201  ARG201     -0.0865
     66  CZ        -3.5170   20.0740   14.8760 C.cat 201  ARG201      0.5346
     67  NH1       -3.0680   19.1420   15.7110 N.pl3 201  ARG201      0.1354
     68  NH2       -3.4550   21.3570   15.2430 N.pl3 201  ARG201      0.1354
     69  N         -8.4410   16.8720   13.3920 N.3   203  LEU203     -0.1245
     70  CA        -7.9510   15.7970   14.2500 C.3   203  LEU203      0.1561
     71  C         -9.0710   14.7730   14.3720 C.2   203  LEU203      0.2260
     72  O        -10.1500   15.0760   14.8910 O.2   203  LEU203     -0.2867
     73  CB        -7.5250   16.3080   15.6270 C.3   203  LEU203      0.0270
     74  CG        -6.9200   15.2450   16.5620 C.3   203  LEU203      0.0019
     75  CD1       -5.6510   14.6290   15.9840 C.3   203  LEU203      0.0001
     76  CD2       -6.6460   15.8420   17.9340 C.3   203  LEU203      0.0001
     77  N        -14.6610   11.4560   17.8350 N.3   213  TYR213     -0.1241
     78  CA       -14.3480   12.8230   18.2530 C.3   213  TYR213      0.1605
     79  C        -13.5990   13.5030   17.1110 C.2   213  TYR213      0.2264
     80  O        -12.5550   13.0130   16.6730 O.2   213  TYR213     -0.2867
     81  CB       -13.5480   12.7810   19.5620 C.3   213  TYR213      0.0534
     82  CG       -12.7530   14.0080   19.9690 C.ar  213  TYR213     -0.0201
     83  CD1      -13.2500   15.3040   19.8100 C.ar  213  TYR213     -0.0009
     84  CD2      -11.5140   13.8530   20.5940 C.ar  213  TYR213     -0.0009
     85  CE1      -12.5060   16.4080   20.2200 C.ar  213  TYR213      0.0417
     86  CE2      -10.7760   14.9410   21.0160 C.ar  213  TYR213      0.0417
     87  CZ       -11.2670   16.2170   20.8280 C.ar  213  TYR213      0.1957
     88  OH       -10.5080   17.2870   21.2560 O.3   213  TYR213     -0.2866
     89  N        -10.3070   22.5320   12.7220 N.3   217  MET217     -0.1245
     90  CA        -9.4990   23.7050   13.0210 C.3   217  MET217      0.1570
     91  C         -9.2840   24.5580   11.7750 C.2   217  MET217      0.2261
     92  O         -8.7210   24.0960   10.7810 O.2   217  MET217     -0.2867
     93  CB        -8.1630   23.2550   13.5980 C.3   217  MET217      0.0387
     94  CG        -8.2960   22.0270   14.4790 C.3   217  MET217      0.0595
     95  SD        -6.7980   21.6990   15.3950 S.3   217  MET217     -0.1393
     96  CE        -7.0870   20.0000   15.8780 C.3   217  MET217      0.0692
     97  N         -8.5330   28.9730   22.0500 N.3   260  TYR260     -0.1241
     98  CA        -7.4880   28.4680   22.9350 C.3   260  TYR260      0.1605
     99  C         -7.1800   29.5140   23.9970 C.2   260  TYR260      0.2264
    100  O         -7.3020   30.7180   23.7520 O.2   260  TYR260     -0.2867
    101  CB        -6.2140   28.1360   22.1660 C.3   260  TYR260      0.0534
    102  CG        -6.4100   27.1540   21.0380 C.ar  260  TYR260     -0.0201
    103  CD1       -6.6110   25.8010   21.3000 C.ar  260  TYR260     -0.0009
    104  CD2       -6.3700   27.5710   19.7040 C.ar  260  TYR260     -0.0009
    105  CE1       -6.7820   24.8900   20.2690 C.ar  260  TYR260      0.0417
    106  CE2       -6.5340   26.6640   18.6660 C.ar  260  TYR260      0.0417
    107  CZ        -6.7430   25.3260   18.9550 C.ar  260  TYR260      0.1957
    108  OH        -6.9110   24.4190   17.9360 O.3   260  TYR260     -0.2866
    109  N         -3.1190   22.7790   23.5120 N.3   285  PRO285     -0.2102
    110  CA        -3.4250   21.3460   23.5190 C.3   285  PRO285      0.1504
    111  C         -2.5530   20.4380   22.6320 C.2   285  PRO285      0.2575
    112  O         -2.8510   19.2480   22.5400 O.2   285  PRO285     -0.2718
    113  CB        -4.8880   21.3120   23.0650 C.3   285  PRO285      0.0282
    114  CG        -5.0130   22.4800   22.1630 C.3   285  PRO285      0.0208
    115  CD        -4.0960   23.5400   22.7070 C.3   285  PRO285      0.0893
    116  N         -1.4810   20.9610   22.0310 N.am  286  ALA286     -0.1980
    117  CA        -0.6250   20.1790   21.1210 C.3   286  ALA286      0.1597
    118  C         -0.1720   18.8260   21.6860 C.2   286  ALA286      0.2287
    119  O         -0.2260   17.8170   20.9850 O.2   286  ALA286     -0.2864
    120  CB         0.5880   20.9990   20.6970 C.3   286  ALA286      0.0319
    121  N         -1.6300   17.2710   24.2320 N.3   288  ALA288     -0.1245
    122  CA        -2.7980   16.5840   24.7970 C.3   288  ALA288      0.1562
    123  C         -2.5620   16.2020   26.2630 C.2   288  ALA288      0.2260
    124  O         -2.7070   15.0440   26.6660 O.2   288  ALA288     -0.2867
    125  CB        -3.1720   15.3760   23.9440 C.3   288  ALA288      0.0290
    126  N          2.5490   24.4220   19.1920 N.3   337  ALA337     -0.1245
    127  CA         1.3790   25.0950   18.6270 C.3   337  ALA337      0.1562
    128  C          1.7830   26.2410   17.7020 C.2   337  ALA337      0.2260
    129  O          1.3070   26.3360   16.5750 O.2   337  ALA337     -0.2867
    130  CB         0.4750   25.6120   19.7360 C.3   337  ALA337      0.0290
    131  N          3.5750   19.6850   15.0240 N.3   342  LEU342     -0.1245
    132  CA         2.8610   18.4210   14.8070 C.3   342  LEU342      0.1561
    133  C          2.5810   18.1370   13.3290 C.2   342  LEU342      0.2260
    134  O          2.4590   16.9780   12.9420 O.2   342  LEU342     -0.2867
    135  CB         1.5530   18.3950   15.6000 C.3   342  LEU342      0.0270
    136  CG         1.6890   18.3760   17.1240 C.3   342  LEU342      0.0019
    137  CD1        0.3200   18.5330   17.7590 C.3   342  LEU342      0.0001
    138  CD2        2.3700   17.1050   17.6140 C.3   342  LEU342      0.0001
    139  N          6.3010   13.3230   18.5880 N.3   348  PHE348     -0.1241
    140  CA         6.1980   12.8300   19.9680 C.3   348  PHE348      0.1605
    141  C          7.5320   12.2170   20.3790 C.2   348  PHE348      0.2264
    142  O          7.6850   10.9990   20.4950 O.2   348  PHE348     -0.2867
    143  CB         5.0120   11.8860   20.1560 C.3   348  PHE348      0.0534
    144  CG         3.6940   12.6000   20.1330 C.ar  348  PHE348     -0.0203
    145  CD1        3.2180   13.2400   21.2750 C.ar  348  PHE348     -0.0042
    146  CD2        2.9550   12.6880   18.9590 C.ar  348  PHE348     -0.0042
    147  CE1        2.0090   13.9260   21.2530 C.ar  348  PHE348     -0.0003
    148  CE2        1.7470   13.3720   18.9330 C.ar  348  PHE348     -0.0003
    149  CZ         1.2760   13.9910   20.0790 C.ar  348  PHE348     -0.0000
@<TRIPOS>BOND
     1    47    46    2
     2    46    45    1
     3    45    44    1
     4    45    48    1
     5    48    49    1
     6    58    59    1
     7    59    60    1
     8    59    62    1
     9    49    51   ar
    10    49    50   ar
    11    60    61    2
    12    54    51   ar
    13    54    56   ar
    14    62    63    1
    15    92    91    2
    16    51    53   ar
    17    50    52   ar
    18    63    64    1
    19    56    57   ar
    20    91    90    1
    21    53    52   ar
    22    53    55   ar
    23    64    65    1
    24    89    90    1
    25   134   133    2
    26    57    55   ar
    27    90    93    1
    28   133   132    1
    29    69    70    1
    30    93    94    1
    31    65    66    2
    32    70    71    1
    33    70    73    1
    34    71    72    2
    35    94    95    1
    36    16    15    2
    37    15    14    1
    38   132   131    1
    39   132   135    1
    40    66    68    1
    41    66    67    1
    42    95    96    1
    43   135   136    1
    44    73    74    1
    45    75    74    1
    46    14    13    1
    47    14    17    1
    48    19    21   ar
    49    19    18   ar
    50    74    76    1
    51   129   128    2
    52    21    23   ar
    53    26    29    1
    54    26    27    1
    55    26    25    1
    56    80    79    2
    57    29    30    1
    58    27    28    2
    59    79    78    1
    60   136   138    1
    61   136   137    1
    62    17    18    1
    63    18    20   ar
    64   128   127    1
    65    23    24    1
    66    23    22   ar
    67    77    78    1
    68   108   107    1
    69    33    34    1
    70    31    30    1
    71    30    32    1
    72    78    81    1
    73   139   140    1
    74    34    35    1
    75    34    37    1
    76    12    11    1
    77    20    22   ar
    78   127   126    1
    79   127   130    1
    80   106   107   ar
    81   106   104   ar
    82    35    36    2
    83   148   146   ar
    84   148   149   ar
    85   107   105   ar
    86   146   144   ar
    87    81    82    1
    88   104   102   ar
    89    83    82   ar
    90    83    85   ar
    91    38    37    1
    92    38    39    1
    93    11    10   ar
    94    11     9   ar
    95   140   143    1
    96   140   141    1
    97    82    84   ar
    98   149   147   ar
    99   144   143    1
   100   144   145   ar
   101    85    87   ar
   102   105   103   ar
   103   141   142    2
   104    10     8   ar
   105    84    86   ar
   106   120   117    1
   107     9     7   ar
   108    87    86   ar
   109    87    88    1
   110   119   118    2
   111   102   103   ar
   112   102   101    1
   113   117   118    1
   114   117   116    1
   115    39    40    1
   116   147   145   ar
   117    40    41    2
   118     8     6   ar
   119   116   111   am
   120    97    98    1
   121     7     6   ar
   122   114   115    1
   123   114   113    1
   124   101    98    1
   125   112   111    2
   126   111   110    1
   127   115   109    1
   128     6     5    1
   129    98    99    1
   130   113   110    1
   131    41    43    1
   132    41    42    1
   133   109   110    1
   134   100    99    2
   135   125   122    1
   136     5     2    1
   137   121   122    1
   138   122   123    1
   139     1     2    1
   140     2     3    1
   141   123   124    2
   142     3     4    2
