@<TRIPOS>MOLECULE
tmp/5hxpB01.pdb
 124 120 0 0 0
SMALL
GASTEIGER

@<TRIPOS>ATOM
      1  N        -32.2420    1.0940   14.8950 N.3    14  MET14      -0.1230
      2  CA       -33.1470    1.3720   16.0230 C.3    14  MET14       0.1702
      3  C        -33.8990    2.6860   15.8370 C.2    14  MET14       0.2592
      4  O        -33.6190    3.6820   16.5100 O.2    14  MET14      -0.2718
      5  CB       -32.3430    1.4040   17.3100 C.3    14  MET14       0.0401
      6  CG       -31.6440    0.0970   17.5950 C.3    14  MET14       0.0596
      7  SD       -30.9220    0.0230   19.2350 S.3    14  MET14      -0.1393
      8  CE       -29.6100    1.2500   19.0730 C.3    14  MET14       0.0692
      9  N        -34.8600    2.6850   14.9290 N.am   15  ASP15      -0.1960
     10  CA       -35.4250    3.9270   14.4250 C.3    15  ASP15       0.1840
     11  C        -36.8810    4.1590   14.8920 C.2    15  ASP15       0.2623
     12  O        -37.5870    3.2010   15.2320 O.2    15  ASP15      -0.2715
     13  CB       -35.3620    3.8620   12.9080 C.3    15  ASP15       0.1450
     14  CG       -35.4440    5.2040   12.2500 C.2    15  ASP15       0.3671
     15  OD1      -35.2120    6.2470   12.9050 O.co2  15  ASP15      -0.2456
     16  OD2      -35.7210    5.2110   11.0370 O.co2  15  ASP15      -0.2456
     17  N        -37.3090    5.4200   14.8780 N.am   16  GLY16      -0.1940
     18  CA       -38.7000    5.7960   15.1860 C.3    16  GLY16       0.2014
     19  C        -38.9530    6.3260   16.6000 C.2    16  GLY16       0.2639
     20  O        -40.1030    6.5690   16.9770 O.2    16  GLY16      -0.2714
     21  N        -37.8870    6.5230   17.3670 N.am   17  ASN17      -0.1958
     22  CA       -37.9920    6.9560   18.7760 C.3    17  ASN17       0.1819
     23  C        -38.6270    8.3360   18.9590 C.2    17  ASN17       0.2621
     24  O        -39.4420    8.5280   19.8560 O.2    17  ASN17      -0.2715
     25  CB       -36.6170    6.9630   19.4350 C.3    17  ASN17       0.1195
     26  CG       -35.9570    5.6040   19.3990 C.2    17  ASN17       0.2630
     27  OD1      -36.4050    4.6670   20.0750 O.2    17  ASN17      -0.2716
     28  ND2      -34.8970    5.4770   18.6030 N.am   17  ASN17      -0.0877
     29  N        -38.2340    9.2890   18.1240 N.am   18  ARG18      -0.1963
     30  CA       -38.7620   10.6450   18.2140 C.3    18  ARG18       0.1729
     31  C        -40.2560   10.6910   17.8800 C.2    18  ARG18       0.2616
     32  O        -41.0360   11.3580   18.5820 O.2    18  ARG18      -0.2715
     33  CB       -37.9850   11.5850   17.3030 C.3    18  ARG18       0.0348
     34  CG       -36.5240   11.7300   17.7020 C.3    18  ARG18       0.0492
     35  CD       -35.9000   12.9330   17.0210 C.3    18  ARG18       0.2205
     36  NE       -35.8690   12.7570   15.5760 N.pl3  18  ARG18      -0.0865
     37  CZ       -35.3050   13.6050   14.7240 C.cat  18  ARG18       0.5346
     38  NH1      -34.6980   14.7090   15.1590 N.pl3  18  ARG18       0.1354
     39  NH2      -35.3330   13.3320   13.4210 N.pl3  18  ARG18       0.1354
     40  N        -40.6440    9.9690   16.8320 N.am   19  ARG19      -0.1977
     41  CA       -42.0550    9.8420   16.4370 C.3    19  ARG19       0.1597
     42  C        -42.8930    9.1110   17.4770 C.2    19  ARG19       0.2287
     43  O        -44.0680    9.4190   17.6580 O.2    19  ARG19      -0.2864
     44  CB       -42.1810    9.0950   15.1080 C.3    19  ARG19       0.0334
     45  CG       -41.8360    9.9250   13.8870 C.3    19  ARG19       0.0492
     46  CD       -41.7330    9.0090   12.6720 C.3    19  ARG19       0.2205
     47  NE       -40.4480    8.3110   12.6540 N.pl3  19  ARG19      -0.0865
     48  CZ       -40.1410    7.3110   11.8350 C.cat  19  ARG19       0.5346
     49  NH1      -41.0320    6.8540   10.9620 N.pl3  19  ARG19       0.1354
     50  NH2      -38.9320    6.7590   11.8910 N.pl3  19  ARG19       0.1354
     51  N        -36.0210    8.6990   23.2410 N.3    32  TYR32      -0.1241
     52  CA       -34.6290    8.2430   23.3920 C.3    32  TYR32       0.1605
     53  C        -34.3580    7.4010   24.6430 C.2    32  TYR32       0.2264
     54  O        -33.5680    6.4540   24.6150 O.2    32  TYR32      -0.2867
     55  CB       -33.7010    9.4440   23.3900 C.3    32  TYR32       0.0534
     56  CG       -33.6030   10.1680   22.0710 C.ar   32  TYR32      -0.0201
     57  CD1      -33.6940    9.4780   20.8470 C.ar   32  TYR32      -0.0009
     58  CD2      -33.3530   11.5330   22.0340 C.ar   32  TYR32      -0.0009
     59  CE1      -33.5810   10.1450   19.6420 C.ar   32  TYR32       0.0417
     60  CE2      -33.2160   12.2030   20.8280 C.ar   32  TYR32       0.0417
     61  CZ       -33.3340   11.5000   19.6390 C.ar   32  TYR32       0.1957
     62  OH       -33.2170   12.1700   18.4540 O.3    32  TYR32      -0.2866
     63  N        -34.2520    3.7080   24.3700 N.3    35  LEU35      -0.1245
     64  CA       -33.2720    3.1100   23.4430 C.3    35  LEU35       0.1561
     65  C        -32.5120    1.9170   24.0430 C.2    35  LEU35       0.2260
     66  O        -32.5930    0.8090   23.5160 O.2    35  LEU35      -0.2867
     67  CB       -32.2830    4.1680   22.9400 C.3    35  LEU35       0.0270
     68  CG       -31.3480    3.7330   21.8030 C.3    35  LEU35       0.0019
     69  CD1      -32.1640    3.4330   20.5500 C.3    35  LEU35       0.0001
     70  CD2      -30.2930    4.7940   21.5100 C.3    35  LEU35       0.0001
     71  N        -27.5970    0.0920   15.4820 N.3    57  PHE57      -0.1227
     72  CA       -27.2490    1.4390   15.0590 C.3    57  PHE57       0.1736
     73  C        -27.8300    2.4250   16.0770 C.2    57  PHE57       0.2595
     74  O        -29.0580    2.5610   16.1630 O.2    57  PHE57      -0.2718
     75  CB       -27.8110    1.6900   13.6570 C.3    57  PHE57       0.0547
     76  CG       -27.0330    2.6960   12.8070 C.ar   57  PHE57      -0.0202
     77  CD1      -25.7820    3.1960   13.1750 C.ar   57  PHE57      -0.0042
     78  CD2      -27.5390    3.0670   11.5640 C.ar   57  PHE57      -0.0042
     79  CE1      -25.0950    4.0800   12.3550 C.ar   57  PHE57      -0.0003
     80  CE2      -26.8460    3.9380   10.7280 C.ar   57  PHE57      -0.0003
     81  CZ       -25.6200    4.4340   11.1180 C.ar   57  PHE57      -0.0000
     82  N        -26.9420    3.0680   16.8490 N.am   58  ALA58      -0.1966
     83  CA       -27.3090    4.0070   17.9160 C.3    58  ALA58       0.1728
     84  C        -27.0950    5.4660   17.5440 C.2    58  ALA58       0.2616
     85  O        -27.8620    6.3380   17.9690 O.2    58  ALA58      -0.2715
     86  CB       -26.5220    3.6740   19.1760 C.3    58  ALA58       0.0334
     87  N        -26.0810    5.7580   16.7440 N.am   59  PHE59      -0.1974
     88  CA       -25.8360    7.1310   16.3220 C.3    59  PHE59       0.1639
     89  C        -24.9790    7.1330   15.0480 C.2    59  PHE59       0.2290
     90  O        -23.8820    6.5730   15.0380 O.2    59  PHE59      -0.2864
     91  CB       -25.1370    7.8960   17.4690 C.3    59  PHE59       0.0560
     92  CG       -25.0790    9.3790   17.2680 C.ar   59  PHE59      -0.0200
     93  CD1      -26.0750   10.2080   17.8090 C.ar   59  PHE59      -0.0042
     94  CD2      -24.0200    9.9650   16.5810 C.ar   59  PHE59      -0.0042
     95  CE1      -26.0240   11.5840   17.6260 C.ar   59  PHE59      -0.0003
     96  CE2      -23.9760   11.3440   16.3960 C.ar   59  PHE59      -0.0003
     97  CZ       -24.9760   12.1480   16.9260 C.ar   59  PHE59      -0.0000
     98  N        -26.0440   12.0600   12.1130 N.3    63  ASN63      -0.1240
     99  CA       -26.9280   12.4980   13.1950 C.3    63  ASN63       0.1653
    100  C        -26.4080   13.7590   13.9270 C.2    63  ASN63       0.2266
    101  O        -27.1520   14.3780   14.6850 O.2    63  ASN63      -0.2867
    102  CB       -27.1630   11.3710   14.2100 C.3    63  ASN63       0.1155
    103  CG       -28.0570   10.2480   13.6890 C.2    63  ASN63       0.2627
    104  OD1      -27.9370    9.1100   14.1400 O.2    63  ASN63      -0.2716
    105  ND2      -28.9720   10.5540   12.7790 N.am   63  ASN63      -0.0877
    106  N        -28.5100   17.0660   13.6460 N.3    66  ARG66      -0.1245
    107  CA       -29.7290   17.3490   14.3960 C.3    66  ARG66       0.1563
    108  C        -29.5630   18.5450   15.3380 C.2    66  ARG66       0.2260
    109  O        -28.4560   19.0700   15.5020 O.2    66  ARG66      -0.2867
    110  CB       -30.1630   16.1090   15.1570 C.3    66  ARG66       0.0307
    111  CG       -30.5030   14.9800   14.2140 C.3    66  ARG66       0.0489
    112  CD       -31.2190   13.8680   14.9250 C.3    66  ARG66       0.2205
    113  NE       -31.5250   12.7710   14.0160 N.pl3  66  ARG66      -0.0865
    114  CZ       -32.1200   11.6510   14.3940 C.cat  66  ARG66       0.5346
    115  NH1      -32.4920   11.4890   15.6660 N.pl3  66  ARG66       0.1354
    116  NH2      -32.3500   10.6920   13.5020 N.pl3  66  ARG66       0.1354
    117  N        -28.4690   13.1490   23.7060 N.3    74  LEU74      -0.1245
    118  CA       -27.9980   11.8160   23.2980 C.3    74  LEU74       0.1561
    119  C        -26.5910   11.5190   23.8110 C.2    74  LEU74       0.2260
    120  O        -26.3580   10.4660   24.3870 O.2    74  LEU74      -0.2867
    121  CB       -28.0440   11.6780   21.7750 C.3    74  LEU74       0.0270
    122  CG       -29.4560   11.5680   21.2060 C.3    74  LEU74       0.0019
    123  CD1      -29.4370   11.6270   19.6810 C.3    74  LEU74       0.0001
    124  CD2      -30.1400   10.3030   21.7130 C.3    74  LEU74       0.0001
@<TRIPOS>BOND
     1    80    81   ar
     2    80    78   ar
     3    49    48    1
     4    16    14   ar
     5    81    79   ar
     6    78    76   ar
     7    48    50    1
     8    48    47    2
     9    98    99    1
    10    14    15   ar
    11    14    13    1
    12    79    77   ar
    13    47    46    1
    14    46    45    1
    15   105   103   am
    16    76    77   ar
    17    76    75    1
    18    13    10    1
    19    99   100    1
    20    99   102    1
    21    39    37    1
    22   116   114    1
    23   106   107    1
    24    75    72    1
    25   103   104    2
    26   103   102    1
    27    45    44    1
    28   100   101    2
    29   113   114    2
    30   113   112    1
    31   111   112    1
    32   111   110    1
    33   114   115    1
    34   107   110    1
    35   107   108    1
    36    10    11    1
    37    10     9    1
    38    37    38    1
    39    37    36    2
    40    17    11   am
    41    17    18    1
    42    11    12    2
    43     1     2    1
    44     9     3   am
    45    90    89    2
    46    89    88    1
    47    72    71    1
    48    72    73    1
    49    44    41    1
    50    18    19    1
    51   108   109    2
    52    36    35    1
    53     3     2    1
    54     3     4    2
    55     2     5    1
    56    73    74    2
    57    73    82   am
    58    88    87    1
    59    88    91    1
    60    96    94   ar
    61    96    97   ar
    62    41    40    1
    63    41    42    1
    64    94    92   ar
    65    19    20    2
    66    19    21   am
    67    87    84   am
    68    40    31   am
    69    82    83    1
    70    97    95   ar
    71    35    34    1
    72    92    91    1
    73    92    93   ar
    74    33    34    1
    75    33    30    1
    76     5     6    1
    77    21    22    1
    78    42    43    2
    79    84    83    1
    80    84    85    2
    81     6     7    1
    82    95    93   ar
    83    31    30    1
    84    31    32    2
    85    83    86    1
    86    29    30    1
    87    29    23   am
    88    62    61    1
    89    28    26   am
    90    22    23    1
    91    22    25    1
    92    23    24    2
    93     8     7    1
    94    26    25    1
    95    26    27    2
    96    61    59   ar
    97    61    60   ar
    98    59    57   ar
    99   123   122    1
   100    69    68    1
   101    60    58   ar
   102    57    56   ar
   103   122   124    1
   104   122   121    1
   105    70    68    1
   106   121   118    1
   107    68    67    1
   108    58    56   ar
   109    56    55    1
   110    67    64    1
   111    51    52    1
   112   118   117    1
   113   118   119    1
   114    55    52    1
   115    52    53    1
   116    64    65    1
   117    64    63    1
   118    66    65    2
   119   119   120    2
   120    54    53    2
