@<TRIPOS>MOLECULE
tmp/5hxqA00.pdb
 121 115 0 0 0
SMALL
GASTEIGER

@<TRIPOS>ATOM
      1  N          2.6220   -4.5450    9.7550 N.3     9  ILE9       -0.1231
      2  CA         2.0740   -5.8840    9.7380 C.3     9  ILE9        0.1692
      3  C          3.0710   -6.7520   10.4840 C.2     9  ILE9        0.2592
      4  O          4.1780   -7.0380    9.9760 O.2     9  ILE9       -0.2718
      5  CB         1.8080   -6.3760    8.3060 C.3     9  ILE9        0.0266
      6  CG1        0.7490   -5.4710    7.6520 C.3     9  ILE9        0.0019
      7  CG2        1.4010   -7.8420    8.3240 C.3     9  ILE9        0.0020
      8  CD1        0.3540   -5.8440    6.2330 C.3     9  ILE9        0.0001
      9  N          2.6730   -7.1560   11.6900 N.am   10  MET10      -0.1965
     10  CA         3.5770   -7.7900   12.6650 C.3    10  MET10       0.1736
     11  C          3.6610   -9.3060   12.4320 C.2    10  MET10       0.2616
     12  O          3.2570  -10.1110   13.2730 O.2    10  MET10      -0.2715
     13  CB         3.1150   -7.4650   14.0880 C.3    10  MET10       0.0427
     14  CG         3.0490   -5.9760   14.3750 C.3    10  MET10       0.0599
     15  SD         2.6420   -5.5820   16.0970 S.3    10  MET10      -0.1393
     16  CE         0.9480   -6.1600   16.1750 C.3    10  MET10       0.0692
     17  N          4.2090   -9.6910   11.2870 N.am   11  ASP11      -0.1971
     18  CA         4.2410  -11.1010   10.8980 C.3    11  ASP11       0.1709
     19  C          5.5900  -11.7460   11.2580 C.2    11  ASP11       0.2293
     20  O          6.6160  -11.0620   11.3830 O.2    11  ASP11      -0.2864
     21  CB         3.9520  -11.2320    9.3980 C.3    11  ASP11       0.1436
     22  CG         3.5490  -12.6640    8.9710 C.2    11  ASP11       0.3671
     23  OD1        3.2360  -13.5180    9.8410 O.co2  11  ASP11      -0.2456
     24  OD2        3.5420  -12.9310    7.7400 O.co2  11  ASP11      -0.2456
     25  N         -1.0860   -4.3370   12.9250 N.3    53  PHE53      -0.1227
     26  CA        -1.9790   -5.4610   12.6350 C.3    53  PHE53       0.1736
     27  C         -1.6200   -6.6220   13.5590 C.2    53  PHE53       0.2595
     28  O         -0.5480   -7.2120   13.4200 O.2    53  PHE53      -0.2718
     29  CB        -1.8300   -5.8440   11.1580 C.3    53  PHE53       0.0547
     30  CG        -3.0270   -6.5490   10.5390 C.ar   53  PHE53      -0.0202
     31  CD1       -4.2460   -6.6630   11.1850 C.ar   53  PHE53      -0.0042
     32  CD2       -2.9260   -7.0470    9.2370 C.ar   53  PHE53      -0.0042
     33  CE1       -5.3310   -7.2810   10.5650 C.ar   53  PHE53      -0.0003
     34  CE2       -4.0040   -7.6600    8.6180 C.ar   53  PHE53      -0.0003
     35  CZ        -5.2090   -7.7750    9.2840 C.ar   53  PHE53      -0.0000
     36  N         -2.5040   -6.9450   14.5010 N.am   54  ALA54      -0.1966
     37  CA        -2.2360   -7.9890   15.5000 C.3    54  ALA54       0.1728
     38  C         -3.0140   -9.2990   15.3090 C.2    54  ALA54       0.2616
     39  O         -2.5240  -10.3630   15.6850 O.2    54  ALA54      -0.2715
     40  CB        -2.4950   -7.4420   16.8950 C.3    54  ALA54       0.0334
     41  N         -4.2160   -9.2260   14.7500 N.am   55  PHE55      -0.1960
     42  CA        -5.0650  -10.4090   14.5670 C.3    55  PHE55       0.1771
     43  C         -6.0620  -10.0440   13.4650 C.2    55  PHE55       0.2620
     44  O         -6.8270   -9.0820   13.5900 O.2    55  PHE55      -0.2715
     45  CB        -5.7890  -10.7660   15.8820 C.3    55  PHE55       0.0574
     46  CG        -6.5390  -12.0870   15.8740 C.ar   55  PHE55      -0.0200
     47  CD1       -5.9370  -13.2510   16.3570 C.ar   55  PHE55      -0.0042
     48  CD2       -7.8700  -12.1570   15.4590 C.ar   55  PHE55      -0.0042
     49  CE1       -6.6330  -14.4500   16.3910 C.ar   55  PHE55      -0.0003
     50  CE2       -8.5730  -13.3570   15.4870 C.ar   55  PHE55      -0.0003
     51  CZ        -7.9490  -14.5040   15.9450 C.ar   55  PHE55      -0.0000
     52  N         -6.0300  -10.7930   12.3720 N.am   56  SER56      -0.1950
     53  CA        -6.9630  -10.5660   11.2750 C.3    56  SER56       0.1924
     54  C         -8.2930  -11.2860   11.5160 C.2    56  SER56       0.2314
     55  O         -8.3650  -12.2140   12.3230 O.2    56  SER56      -0.2863
     56  CB        -6.3460  -11.0790    9.9830 C.3    56  SER56       0.2116
     57  OG        -6.3960  -12.4980    9.9740 O.3    56  SER56      -0.2180
     58  N         -9.3790  -13.3200    9.5400 N.3    58  GLU58      -0.1231
     59  CA        -9.0680  -14.6900    9.1100 C.3    58  GLU58       0.1699
     60  C         -8.3870  -15.5660   10.1680 C.2    58  GLU58       0.2592
     61  O         -8.4730  -16.7900   10.0840 O.2    58  GLU58      -0.2718
     62  CB        -8.2070  -14.6740    7.8360 C.3    58  GLU58       0.0402
     63  CG        -9.0070  -14.5340    6.5550 C.3    58  GLU58       0.1161
     64  CD        -9.7340  -15.8170    6.1650 C.2    58  GLU58       0.3649
     65  OE1       -9.0590  -16.8150    5.8200 O.co2  58  GLU58      -0.2457
     66  OE2      -10.9870  -15.8230    6.1870 O.co2  58  GLU58      -0.2457
     67  N         -7.7200  -14.9690   11.1600 N.am   59  ASN59      -0.1974
     68  CA        -6.9280  -15.7660   12.1140 C.3    59  ASN59       0.1688
     69  C         -7.7620  -16.6670   13.0440 C.2    59  ASN59       0.2292
     70  O         -7.1980  -17.5120   13.7340 O.2    59  ASN59      -0.2864
     71  CB        -5.9940  -14.8760   12.9540 C.3    59  ASN59       0.1181
     72  CG        -4.8640  -14.2460   12.1410 C.2    59  ASN59       0.2629
     73  OD1       -4.3330  -13.2020   12.5210 O.2    59  ASN59      -0.2716
     74  ND2       -4.4890  -14.8740   11.0310 N.am   59  ASN59      -0.0877
     75  N         -7.0930  -20.3830   12.5400 N.3    62  ARG62      -0.1245
     76  CA        -5.9030  -21.0410   13.0780 C.3    62  ARG62       0.1563
     77  C         -6.2990  -22.1150   14.1030 C.2    62  ARG62       0.2260
     78  O         -7.4620  -22.1990   14.5120 O.2    62  ARG62      -0.2867
     79  CB        -4.9550  -20.0210   13.7210 C.3    62  ARG62       0.0307
     80  CG        -4.4560  -18.9180   12.7920 C.3    62  ARG62       0.0489
     81  CD        -3.5390  -19.4460   11.7000 C.3    62  ARG62       0.2205
     82  NE        -3.0450  -18.3730   10.8290 N.pl3  62  ARG62      -0.0865
     83  CZ        -2.0270  -17.5560   11.1150 C.cat  62  ARG62       0.5346
     84  NH1       -1.6750  -16.6190   10.2380 N.pl3  62  ARG62       0.1354
     85  NH2       -1.3610  -17.6570   12.2680 N.pl3  62  ARG62       0.1354
     86  N          6.1530   -4.4560    6.6970 N.3   174  ARG174     -0.1245
     87  CA         5.7530   -5.8230    6.9610 C.3   174  ARG174      0.1563
     88  C          6.9760   -6.6980    7.1610 C.2   174  ARG174      0.2260
     89  O          7.8320   -6.8300    6.2520 O.2   174  ARG174     -0.2867
     90  CB         4.8960   -6.3890    5.8170 C.3   174  ARG174      0.0307
     91  CG         4.5300   -7.8360    6.0770 C.3   174  ARG174      0.0489
     92  CD         3.4590   -8.3660    5.1470 C.3   174  ARG174      0.2205
     93  NE         3.0860   -9.7200    5.5630 N.pl3 174  ARG174     -0.0865
     94  CZ         1.9080  -10.2930    5.3560 C.cat 174  ARG174      0.5346
     95  NH1        0.9040   -9.6390    4.7590 N.pl3 174  ARG174      0.1354
     96  NH2        1.7140  -11.5140    5.8070 N.pl3 174  ARG174      0.1354
     97  N          6.8430  -11.9690    3.4800 N.3   178  ASP178     -0.1239
     98  CA         5.8080  -11.9470    2.4340 C.3   178  ASP178      0.1674
     99  C          5.4880  -10.5300    1.9620 C.2   178  ASP178      0.2266
    100  O          5.5060   -9.5790    2.7440 O.2   178  ASP178     -0.2867
    101  CB         4.5240  -12.6460    2.8940 C.3   178  ASP178      0.1410
    102  CG         3.7170  -13.2120    1.7170 C.2   178  ASP178      0.3668
    103  OD1        4.2160  -13.1210    0.5650 O.co2 178  ASP178     -0.2456
    104  OD2        2.5940  -13.7300    1.9360 O.co2 178  ASP178     -0.2456
    105  N          2.5560   -8.9230    0.7660 N.3   180  ARG180     -0.1245
    106  CA         1.1040   -8.7580    0.6450 C.3   180  ARG180      0.1563
    107  C          0.6280   -7.8480    1.7680 C.2   180  ARG180      0.2260
    108  O          1.3030   -7.6970    2.7870 O.2   180  ARG180     -0.2867
    109  CB         0.3550  -10.0740    0.8630 C.3   180  ARG180      0.0307
    110  CG         0.8250  -11.2620    0.0660 C.3   180  ARG180      0.0489
    111  CD         0.0590  -12.5270    0.4590 C.3   180  ARG180      0.2205
    112  NE         0.8310  -13.6860   -0.0060 N.pl3 180  ARG180     -0.0865
    113  CZ         0.7460  -14.2290   -1.2160 C.cat 180  ARG180      0.5346
    114  NH1        1.5360  -15.2490   -1.5210 N.pl3 180  ARG180      0.1354
    115  NH2       -0.1320  -13.7850   -2.1100 N.pl3 180  ARG180      0.1354
    116  N         -2.5170   -8.5920    3.0500 N.3   182  SER182     -0.1217
    117  CA        -3.3410   -9.5580    3.7810 C.3   182  SER182      0.1889
    118  C         -4.5970   -8.9290    4.4390 C.2   182  SER182      0.2288
    119  O         -4.8620   -9.1250    5.6130 O.2   182  SER182     -0.2866
    120  CB        -2.4760  -10.3400    4.7900 C.3   182  SER182      0.2089
    121  OG        -1.4390  -11.0680    4.1180 O.3   182  SER182     -0.2183
@<TRIPOS>BOND
     1   115   113    1
     2   114   113    1
     3   113   112    2
     4   112   111    1
     5   110   111    1
     6   110   109    1
     7   103   102   ar
     8   106   105    1
     9   106   109    1
    10   106   107    1
    11   102   104   ar
    12   102   101    1
    13   107   108    2
    14    99    98    1
    15    99   100    2
    16    98   101    1
    17    98    97    1
    18   116   117    1
    19   117   118    1
    20   117   120    1
    21   121   120    1
    22   118   119    2
    23    95    94    1
    24    92    93    1
    25    92    91    1
    26    94    93    2
    27    94    96    1
    28    90    91    1
    29    90    87    1
    30    65    64   ar
    31    64    66   ar
    32    64    63    1
    33     8     6    1
    34    89    88    2
    35    63    62    1
    36    86    87    1
    37    87    88    1
    38     6     5    1
    39    24    22   ar
    40    62    59    1
    41     5     7    1
    42     5     2    1
    43    34    32   ar
    44    34    35   ar
    45    22    21    1
    46    22    23   ar
    47    59    58    1
    48    59    60    1
    49    32    30   ar
    50    35    33   ar
    51    21    18    1
    52     2     1    1
    53     2     3    1
    54    57    56    1
    55     4     3    2
    56    56    53    1
    57    61    60    2
    58    60    67   am
    59    84    83    1
    60     3     9   am
    61    30    29    1
    62    30    31   ar
    63    33    31   ar
    64    82    83    2
    65    82    81    1
    66    18    19    1
    67    18    17    1
    68    74    72   am
    69    83    85    1
    70    29    26    1
    71    67    68    1
    72    19    20    2
    73    53    54    1
    74    53    52    1
    75    17    11   am
    76    54    55    2
    77     9    10    1
    78    81    80    1
    79    68    71    1
    80    68    69    1
    81    72    73    2
    82    72    71    1
    83    52    43   am
    84    11    10    1
    85    11    12    2
    86    75    76    1
    87    26    25    1
    88    26    27    1
    89    10    13    1
    90    80    79    1
    91    69    70    2
    92    76    79    1
    93    76    77    1
    94    28    27    2
    95    43    44    2
    96    43    42    1
    97    27    36   am
    98    13    14    1
    99    77    78    2
   100    14    15    1
   101    36    37    1
   102    42    41    1
   103    42    45    1
   104    41    38   am
   105    38    37    1
   106    38    39    2
   107    48    50   ar
   108    48    46   ar
   109    50    51   ar
   110    37    40    1
   111    46    45    1
   112    46    47   ar
   113    51    49   ar
   114    15    16    1
   115    47    49   ar
