@<TRIPOS>MOLECULE
tmp/5hxtA01.pdb
 104 99 0 0 0
SMALL
GASTEIGER

@<TRIPOS>ATOM
      1  N        -32.7020    4.1770   10.0180 N.3     9  ILE9       -0.1231
      2  CA       -32.2170    5.5470   10.0060 C.3     9  ILE9        0.1692
      3  C        -33.2070    6.4340   10.7610 C.2     9  ILE9        0.2592
      4  O        -34.3370    6.6710   10.3000 O.2     9  ILE9       -0.2718
      5  CB       -31.9120    6.0620    8.5920 C.3     9  ILE9        0.0266
      6  CG1      -30.7810    5.2380    7.9780 C.3     9  ILE9        0.0019
      7  CG2      -31.4860    7.5300    8.6530 C.3     9  ILE9        0.0020
      8  CD1      -30.5450    5.4920    6.5100 C.3     9  ILE9        0.0001
      9  N        -32.7650    6.9040   11.9300 N.am   10  MET10      -0.1965
     10  CA       -33.6410    7.5660   12.9080 C.3    10  MET10       0.1736
     11  C        -33.7670    9.0740   12.6900 C.2    10  MET10       0.2616
     12  O        -33.4210    9.8700   13.5710 O.2    10  MET10      -0.2715
     13  CB       -33.1310    7.2960   14.3200 C.3    10  MET10       0.0427
     14  CG       -33.0320    5.8180   14.6510 C.3    10  MET10       0.0599
     15  SD       -32.5920    5.5610   16.3760 S.3    10  MET10      -0.1393
     16  CE       -30.8200    5.8240   16.3360 C.3    10  MET10       0.0692
     17  N        -34.2910    9.4500   11.5250 N.am   11  ASP11      -0.1971
     18  CA       -34.3390   10.8460   11.0720 C.3    11  ASP11       0.1709
     19  C        -35.6910   11.5100   11.3970 C.2    11  ASP11       0.2293
     20  O        -36.7150   10.8380   11.5450 O.2    11  ASP11      -0.2864
     21  CB       -34.0830   10.8790    9.5530 C.3    11  ASP11       0.1436
     22  CG       -33.6960   12.2560    9.0350 C.2    11  ASP11       0.3671
     23  OD1      -33.2510   13.1180    9.8360 O.co2  11  ASP11      -0.2456
     24  OD2      -33.8250   12.4770    7.8130 O.co2  11  ASP11      -0.2456
     25  N        -28.9750    4.2300   13.1990 N.3    53  PHE53      -0.1227
     26  CA       -28.0800    5.3600   12.8990 C.3    53  PHE53       0.1736
     27  C        -28.4210    6.5390   13.8010 C.2    53  PHE53       0.2595
     28  O        -29.4610    7.1770   13.6340 O.2    53  PHE53      -0.2718
     29  CB       -28.2250    5.7420   11.4190 C.3    53  PHE53       0.0547
     30  CG       -27.0200    6.4350   10.8170 C.ar   53  PHE53      -0.0202
     31  CD1      -25.8020    6.5440   11.4910 C.ar   53  PHE53      -0.0042
     32  CD2      -27.1000    6.9480    9.5250 C.ar   53  PHE53      -0.0042
     33  CE1      -24.7130    7.1490   10.8900 C.ar   53  PHE53      -0.0003
     34  CE2      -26.0100    7.5510    8.9290 C.ar   53  PHE53      -0.0003
     35  CZ       -24.8130    7.6460    9.6050 C.ar   53  PHE53      -0.0000
     36  N        -27.5460    6.8280   14.7590 N.am   54  ALA54      -0.1966
     37  CA       -27.7990    7.8640   15.7630 C.3    54  ALA54       0.1728
     38  C        -27.0260    9.1680   15.5330 C.2    54  ALA54       0.2616
     39  O        -27.4910   10.2430   15.9230 O.2    54  ALA54      -0.2715
     40  CB       -27.4780    7.3200   17.1500 C.3    54  ALA54       0.0334
     41  N        -25.8500    9.0750   14.9170 N.am   55  PHE55      -0.1960
     42  CA       -25.0130   10.2430   14.6850 C.3    55  PHE55       0.1771
     43  C        -23.9880    9.8670   13.6260 C.2    55  PHE55       0.2620
     44  O        -23.2040    8.9300   13.8160 O.2    55  PHE55      -0.2715
     45  CB       -24.3310   10.6540   16.0050 C.3    55  PHE55       0.0574
     46  CG       -23.6130   11.9730   15.9630 C.ar   55  PHE55      -0.0200
     47  CD1      -24.2580   13.1410   16.3310 C.ar   55  PHE55      -0.0042
     48  CD2      -22.2800   12.0470   15.5880 C.ar   55  PHE55      -0.0042
     49  CE1      -23.5900   14.3630   16.3120 C.ar   55  PHE55      -0.0003
     50  CE2      -21.6070   13.2600   15.5870 C.ar   55  PHE55      -0.0003
     51  CZ       -22.2610   14.4210   15.9420 C.ar   55  PHE55      -0.0000
     52  N        -24.0020   10.5740   12.5030 N.am   56  SER56      -0.1950
     53  CA       -23.0700   10.2810   11.4210 C.3    56  SER56       0.1924
     54  C        -21.8160   11.0990   11.5800 C.2    56  SER56       0.2314
     55  O        -21.8130   12.1180   12.2680 O.2    56  SER56      -0.2863
     56  CB       -23.6660   10.6420   10.0810 C.3    56  SER56       0.2116
     57  OG       -23.3660   11.9960    9.8170 O.3    56  SER56      -0.2180
     58  N        -22.3450   14.8010   11.1200 N.3    59  ASN59      -0.1240
     59  CA       -23.1670   15.6220   12.0410 C.3    59  ASN59       0.1653
     60  C        -22.3550   16.5500   12.9710 C.2    59  ASN59       0.2266
     61  O        -22.9280   17.3430   13.7100 O.2    59  ASN59      -0.2867
     62  CB       -24.1020   14.7540   12.9020 C.3    59  ASN59       0.1155
     63  CG       -25.2370   14.0970   12.1100 C.2    59  ASN59       0.2627
     64  OD1      -25.6640   12.9970   12.4510 O.2    59  ASN59      -0.2716
     65  ND2      -25.7340   14.7630   11.0730 N.am   59  ASN59      -0.0877
     66  N        -23.1710   20.2690   12.4220 N.3    62  ARG62      -0.1245
     67  CA       -24.3440   20.9270   13.0010 C.3    62  ARG62       0.1563
     68  C        -23.9320   22.0060   13.9930 C.2    62  ARG62       0.2260
     69  O        -22.7790   22.0720   14.4100 O.2    62  ARG62      -0.2867
     70  CB       -25.2740   19.9300   13.7140 C.3    62  ARG62       0.0307
     71  CG       -26.4660   19.4690   12.8920 C.3    62  ARG62       0.0489
     72  CD       -26.0850   18.3370   11.9640 C.3    62  ARG62       0.2205
     73  NE       -27.1850   17.9090   11.0950 N.pl3  62  ARG62      -0.0865
     74  CZ       -28.2490   17.2040   11.4890 C.cat  62  ARG62       0.5346
     75  NH1      -28.4120   16.8300   12.7590 N.pl3  62  ARG62       0.1354
     76  NH2      -29.1610   16.8610   10.5900 N.pl3  62  ARG62       0.1354
     77  N        -36.2860    4.0990    6.9960 N.3   174  ARG174     -0.1245
     78  CA       -35.8970    5.4810    7.2690 C.3   174  ARG174      0.1563
     79  C        -37.1020    6.3640    7.4720 C.2   174  ARG174      0.2260
     80  O        -37.9380    6.5110    6.5850 O.2   174  ARG174     -0.2867
     81  CB       -35.0110    6.0510    6.1670 C.3   174  ARG174      0.0307
     82  CG       -34.8150    7.5450    6.2760 C.3   174  ARG174      0.0489
     83  CD       -33.6990    8.0550    5.3840 C.3   174  ARG174      0.2205
     84  NE       -33.3500    9.4160    5.7670 N.pl3 174  ARG174     -0.0865
     85  CZ       -32.1730    9.9910    5.5520 C.cat 174  ARG174      0.5346
     86  NH1      -31.1890    9.3290    4.9210 N.pl3 174  ARG174      0.1354
     87  NH2      -31.9770   11.2360    5.9860 N.pl3 174  ARG174      0.1354
     88  N        -32.7500    8.5660    0.9180 N.3   180  ARG180     -0.1245
     89  CA       -31.2990    8.4380    0.8050 C.3   180  ARG180      0.1563
     90  C        -30.8050    7.5130    1.9180 C.2   180  ARG180      0.2260
     91  O        -31.5080    7.2980    2.9030 O.2   180  ARG180     -0.2867
     92  CB       -30.5950    9.7620    1.0500 C.3   180  ARG180      0.0307
     93  CG       -31.1270   10.9680    0.3310 C.3   180  ARG180      0.0489
     94  CD       -30.2240   12.1680    0.6330 C.3   180  ARG180      0.2205
     95  NE       -30.5320   12.8430    1.8920 N.pl3 180  ARG180     -0.0865
     96  CZ       -31.5560   13.6770    2.0980 C.cat 180  ARG180      0.5346
     97  NH1      -32.4280   13.9350    1.1300 N.pl3 180  ARG180      0.1354
     98  NH2      -31.7160   14.2540    3.2900 N.pl3 180  ARG180      0.1354
     99  N        -27.6030    8.3370    3.1850 N.3   182  SER182     -0.1217
    100  CA       -26.8120    9.3330    3.9220 C.3   182  SER182      0.1889
    101  C        -25.5620    8.7460    4.5940 C.2   182  SER182      0.2288
    102  O        -25.3080    8.9680    5.7780 O.2   182  SER182     -0.2866
    103  CB       -27.6840   10.0530    4.9500 C.3   182  SER182      0.2089
    104  OG       -28.7240   10.7800    4.3130 O.3   182  SER182     -0.2183
@<TRIPOS>BOND
     1    93    94    1
     2    93    92    1
     3    94    95    1
     4    89    88    1
     5    89    92    1
     6    89    90    1
     7    97    96    1
     8    95    96    2
     9    90    91    2
    10    96    98    1
    11    99   100    1
    12   100   101    1
    13   100   103    1
    14   104   103    1
    15   101   102    2
    16    86    85    1
    17    83    84    1
    18    83    82    1
    19    85    84    2
    20    85    87    1
    21    81    82    1
    22    81    78    1
    23     8     6    1
    24    80    79    2
    25    77    78    1
    26    78    79    1
    27    24    22   ar
    28     6     5    1
    29     5     7    1
    30     5     2    1
    31    34    32   ar
    32    34    35   ar
    33    22    21    1
    34    22    23   ar
    35    32    30   ar
    36    21    18    1
    37    35    33   ar
    38    57    56    1
    39     2     1    1
    40     2     3    1
    41    56    53    1
    42     4     3    2
    43    76    74    1
    44     3     9   am
    45    30    29    1
    46    30    31   ar
    47    33    31   ar
    48    18    19    1
    49    18    17    1
    50    65    63   am
    51    73    74    2
    52    73    72    1
    53    58    59    1
    54    19    20    2
    55    29    26    1
    56    53    54    1
    57    53    52    1
    58    74    75    1
    59    17    11   am
    60    54    55    2
    61     9    10    1
    62    72    71    1
    63    59    62    1
    64    59    60    1
    65    63    64    2
    66    63    62    1
    67    66    67    1
    68    52    43   am
    69    11    10    1
    70    11    12    2
    71    71    70    1
    72    26    25    1
    73    26    27    1
    74    10    13    1
    75    60    61    2
    76    67    70    1
    77    67    68    1
    78    43    44    2
    79    43    42    1
    80    28    27    2
    81    27    36   am
    82    68    69    2
    83    13    14    1
    84    14    15    1
    85    42    41    1
    86    42    45    1
    87    36    37    1
    88    41    38   am
    89    38    37    1
    90    38    39    2
    91    50    48   ar
    92    50    51   ar
    93    48    46   ar
    94    37    40    1
    95    51    49   ar
    96    46    45    1
    97    46    47   ar
    98    49    47   ar
    99    16    15    1
