@<TRIPOS>MOLECULE
tmp/5hxtB00.pdb
 124 120 0 0 0
SMALL
GASTEIGER

@<TRIPOS>ATOM
      1  N        -32.0770   -0.5880  -14.7420 N.3    15  MET15      -0.1230
      2  CA       -32.9870   -0.8940  -15.8520 C.3    15  MET15       0.1702
      3  C        -33.6940   -2.2330  -15.6370 C.2    15  MET15       0.2592
      4  O        -33.4150   -3.2090  -16.3330 O.2    15  MET15      -0.2718
      5  CB       -32.1820   -0.9350  -17.1630 C.3    15  MET15       0.0401
      6  CG       -31.3410    0.3130  -17.4130 C.3    15  MET15       0.0596
      7  SD       -30.5480    0.3830  -19.0280 S.3    15  MET15      -0.1393
      8  CE       -29.3130   -0.9040  -18.8680 C.3    15  MET15       0.0692
      9  N        -34.6050   -2.2750  -14.6720 N.am   16  ASP16      -0.1960
     10  CA       -35.2340   -3.5250  -14.2410 C.3    16  ASP16       0.1840
     11  C        -36.6730   -3.6660  -14.7700 C.2    16  ASP16       0.2623
     12  O        -37.2970   -2.6810  -15.1510 O.2    16  ASP16      -0.2715
     13  CB       -35.2330   -3.5840  -12.7190 C.3    16  ASP16       0.1450
     14  CG       -35.4060   -4.9870  -12.1790 C.2    16  ASP16       0.3671
     15  OD1      -35.1530   -5.9740  -12.9120 O.co2  16  ASP16      -0.2456
     16  OD2      -35.7780   -5.1150  -10.9990 O.co2  16  ASP16      -0.2456
     17  N        -37.1820   -4.8970  -14.7890 N.am   17  GLY17      -0.1940
     18  CA       -38.5570   -5.1770  -15.2300 C.3    17  GLY17       0.2014
     19  C        -38.7180   -5.7060  -16.6510 C.2    17  GLY17       0.2639
     20  O        -39.8420   -5.8070  -17.1460 O.2    17  GLY17      -0.2714
     21  N        -37.6110   -6.0510  -17.3110 N.am   18  ASN18      -0.1958
     22  CA       -37.6470   -6.4470  -18.7260 C.3    18  ASN18       0.1819
     23  C        -38.2410   -7.8400  -18.9470 C.2    18  ASN18       0.2621
     24  O        -38.9670   -8.0560  -19.9110 O.2    18  ASN18      -0.2715
     25  CB       -36.2500   -6.3780  -19.3550 C.3    18  ASN18       0.1195
     26  CG       -35.7390   -4.9550  -19.4980 C.2    18  ASN18       0.2630
     27  OD1      -36.4100   -4.0740  -20.0550 O.2    18  ASN18      -0.2716
     28  ND2      -34.5330   -4.7270  -19.0100 N.am   18  ASN18      -0.0877
     29  N        -37.9220   -8.7780  -18.0620 N.am   19  ARG19      -0.1963
     30  CA       -38.4630  -10.1240  -18.1570 C.3    19  ARG19       0.1729
     31  C        -39.9620  -10.1510  -17.8790 C.2    19  ARG19       0.2616
     32  O        -40.7280  -10.7710  -18.6220 O.2    19  ARG19      -0.2715
     33  CB       -37.7410  -11.0610  -17.1970 C.3    19  ARG19       0.0348
     34  CG       -36.3330  -11.4090  -17.6470 C.3    19  ARG19       0.0492
     35  CD       -35.8020  -12.6320  -16.9120 C.3    19  ARG19       0.2205
     36  NE       -35.6500  -12.3890  -15.4810 N.pl3  19  ARG19      -0.0865
     37  CZ       -35.2380  -13.2960  -14.6000 C.cat  19  ARG19       0.5346
     38  NH1      -34.9180  -14.5310  -14.9820 N.pl3  19  ARG19       0.1354
     39  NH2      -35.1430  -12.9650  -13.3220 N.pl3  19  ARG19       0.1354
     40  N        -40.3750   -9.4780  -16.8080 N.am   20  ARG20      -0.1977
     41  CA       -41.7840   -9.4200  -16.4450 C.3    20  ARG20       0.1597
     42  C        -42.6010   -8.7610  -17.5490 C.2    20  ARG20       0.2287
     43  O        -43.6500   -9.2700  -17.9210 O.2    20  ARG20      -0.2864
     44  CB       -41.9760   -8.6920  -15.1160 C.3    20  ARG20       0.0334
     45  CG       -41.5260   -9.5160  -13.9230 C.3    20  ARG20       0.0492
     46  CD       -41.3880   -8.6640  -12.6690 C.3    20  ARG20       0.2205
     47  NE       -40.1800   -7.8400  -12.6900 N.pl3  20  ARG20      -0.0865
     48  CZ       -39.8250   -6.9880  -11.7280 C.cat  20  ARG20       0.5346
     49  NH1      -40.5840   -6.8230  -10.6520 N.pl3  20  ARG20       0.1354
     50  NH2      -38.6990   -6.2900  -11.8390 N.pl3  20  ARG20       0.1354
     51  N        -35.6570   -8.2340  -23.1320 N.3    33  TYR33      -0.1241
     52  CA       -34.2480   -7.8550  -23.2230 C.3    33  TYR33       0.1605
     53  C        -33.8590   -7.0440  -24.4700 C.2    33  TYR33       0.2264
     54  O        -32.9840   -6.1860  -24.3830 O.2    33  TYR33      -0.2867
     55  CB       -33.3680   -9.1050  -23.1690 C.3    33  TYR33       0.0534
     56  CG       -33.2990   -9.8200  -21.8360 C.ar   33  TYR33      -0.0201
     57  CD1      -33.4440   -9.1390  -20.6240 C.ar   33  TYR33      -0.0009
     58  CD2      -33.0360  -11.1790  -21.7870 C.ar   33  TYR33      -0.0009
     59  CE1      -33.3570   -9.8060  -19.4170 C.ar   33  TYR33       0.0417
     60  CE2      -32.9430  -11.8490  -20.5830 C.ar   33  TYR33       0.0417
     61  CZ       -33.1040  -11.1580  -19.4040 C.ar   33  TYR33       0.1957
     62  OH       -32.9970  -11.8370  -18.2180 O.3    33  TYR33      -0.2866
     63  N        -33.8100   -3.1990  -24.1660 N.3    36  LEU36      -0.1245
     64  CA       -32.8420   -2.5640  -23.2500 C.3    36  LEU36       0.1561
     65  C        -32.0930   -1.4030  -23.8770 C.2    36  LEU36       0.2260
     66  O        -32.2310   -0.2650  -23.4390 O.2    36  LEU36      -0.2867
     67  CB       -31.8370   -3.5880  -22.7180 C.3    36  LEU36       0.0270
     68  CG       -30.9410   -3.1600  -21.5420 C.3    36  LEU36       0.0019
     69  CD1      -31.7580   -2.9290  -20.2760 C.3    36  LEU36       0.0001
     70  CD2      -29.8760   -4.2170  -21.2920 C.3    36  LEU36       0.0001
     71  N        -27.2550    0.3020  -15.1890 N.3    58  PHE58      -0.1227
     72  CA       -26.9100   -1.0540  -14.7630 C.3    58  PHE58       0.1736
     73  C        -27.4540   -2.0920  -15.7660 C.2    58  PHE58       0.2595
     74  O        -28.6430   -2.4170  -15.7510 O.2    58  PHE58      -0.2718
     75  CB       -27.4820   -1.3150  -13.3660 C.3    58  PHE58       0.0547
     76  CG       -26.7290   -2.3360  -12.5510 C.ar   58  PHE58      -0.0202
     77  CD1      -25.5010   -2.8540  -12.9550 C.ar   58  PHE58      -0.0042
     78  CD2      -27.2360   -2.7300  -11.3240 C.ar   58  PHE58      -0.0042
     79  CE1      -24.8170   -3.7710  -12.1700 C.ar   58  PHE58      -0.0003
     80  CE2      -26.5520   -3.6360  -10.5270 C.ar   58  PHE58      -0.0003
     81  CZ       -25.3390   -4.1550  -10.9480 C.ar   58  PHE58      -0.0000
     82  N        -26.5740   -2.6030  -16.6250 N.am   59  ALA59      -0.1966
     83  CA       -26.9600   -3.5210  -17.7000 C.3    59  ALA59       0.1728
     84  C        -26.7730   -4.9890  -17.3370 C.2    59  ALA59       0.2616
     85  O        -27.5290   -5.8330  -17.8080 O.2    59  ALA59      -0.2715
     86  CB       -26.1940   -3.1900  -18.9750 C.3    59  ALA59       0.0334
     87  N        -25.7730   -5.3070  -16.5220 N.am   60  PHE60      -0.1974
     88  CA       -25.5500   -6.6860  -16.1070 C.3    60  PHE60       0.1639
     89  C        -24.6800   -6.7050  -14.8600 C.2    60  PHE60       0.2290
     90  O        -23.5850   -6.1390  -14.8590 O.2    60  PHE60      -0.2864
     91  CB       -24.8870   -7.4960  -17.2420 C.3    60  PHE60       0.0560
     92  CG       -24.8080   -8.9800  -16.9770 C.ar   60  PHE60      -0.0200
     93  CD1      -25.7900   -9.8410  -17.4610 C.ar   60  PHE60      -0.0042
     94  CD2      -23.7500   -9.5220  -16.2560 C.ar   60  PHE60      -0.0042
     95  CE1      -25.7240  -11.2030  -17.2200 C.ar   60  PHE60      -0.0003
     96  CE2      -23.6780  -10.8860  -16.0140 C.ar   60  PHE60      -0.0003
     97  CZ       -24.6670  -11.7230  -16.4950 C.ar   60  PHE60      -0.0000
     98  N        -25.6700  -11.6440  -11.8950 N.3    64  ASN64      -0.1240
     99  CA       -26.5270  -12.1220  -12.9850 C.3    64  ASN64       0.1653
    100  C        -25.9800  -13.3620  -13.7260 C.2    64  ASN64       0.2266
    101  O        -26.6960  -13.9600  -14.5340 O.2    64  ASN64      -0.2867
    102  CB       -26.8210  -10.9910  -13.9880 C.3    64  ASN64       0.1155
    103  CG       -27.8100   -9.9530  -13.4570 C.2    64  ASN64       0.2627
    104  OD1      -27.8330   -8.8100  -13.9260 O.2    64  ASN64      -0.2716
    105  ND2      -28.6380  -10.3450  -12.4980 N.am   64  ASN64      -0.0877
    106  N        -28.0180  -16.7300  -13.3340 N.3    67  ARG67      -0.1245
    107  CA       -29.2350  -16.9530  -14.1060 C.3    67  ARG67       0.1563
    108  C        -29.1280  -18.1270  -15.0780 C.2    67  ARG67       0.2260
    109  O        -28.0890  -18.7810  -15.1680 O.2    67  ARG67      -0.2867
    110  CB       -29.5910  -15.6830  -14.8730 C.3    67  ARG67       0.0307
    111  CG       -29.9680  -14.5480  -13.9570 C.3    67  ARG67       0.0489
    112  CD       -30.6230  -13.4260  -14.7240 C.3    67  ARG67       0.2205
    113  NE       -31.2240  -12.4690  -13.8070 N.pl3  67  ARG67      -0.0865
    114  CZ       -31.8750  -11.3790  -14.1860 C.cat  67  ARG67       0.5346
    115  NH1      -32.0210  -11.1000  -15.4760 N.pl3  67  ARG67       0.1354
    116  NH2      -32.3880  -10.5690  -13.2680 N.pl3  67  ARG67       0.1354
    117  N        -27.9930  -12.7570  -23.5450 N.3    75  LEU75      -0.1245
    118  CA       -27.6370  -11.4030  -23.1150 C.3    75  LEU75       0.1561
    119  C        -26.2410  -11.0380  -23.5960 C.2    75  LEU75       0.2260
    120  O        -26.0510   -9.9990  -24.2330 O.2    75  LEU75      -0.2867
    121  CB       -27.7420  -11.2630  -21.5890 C.3    75  LEU75       0.0270
    122  CG       -29.1710  -11.1400  -21.0520 C.3    75  LEU75       0.0019
    123  CD1      -29.2110  -11.3700  -19.5480 C.3    75  LEU75       0.0001
    124  CD2      -29.7830   -9.7930  -21.4170 C.3    75  LEU75       0.0001
@<TRIPOS>BOND
     1    53    54    2
     2    53    52    1
     3   120   119    2
     4    63    64    1
     5    65    66    2
     6    65    64    1
     7   119   118    1
     8   117   118    1
     9    64    67    1
    10    52    55    1
    11    52    51    1
    12    55    56    1
    13   118   121    1
    14    67    68    1
    15    56    58   ar
    16    56    57   ar
    17    58    60   ar
    18   121   122    1
    19    68    70    1
    20    68    69    1
    21   124   122    1
    22   122   123    1
    23    57    59   ar
    24    60    61   ar
    25    27    26    2
    26    24    23    2
    27    26    25    1
    28    26    28   am
    29    59    61   ar
    30    61    62    1
    31    25    22    1
    32     7     8    1
    33     7     6    1
    34    86    83    1
    35    23    22    1
    36    23    29   am
    37    22    21    1
    38    32    31    2
    39    30    29    1
    40    30    31    1
    41    30    33    1
    42    43    42    2
    43    31    40   am
    44    85    84    2
    45    83    84    1
    46    83    82    1
    47    34    33    1
    48    34    35    1
    49    42    41    1
    50    93    95   ar
    51    93    92   ar
    52     6     5    1
    53    84    87   am
    54    21    19   am
    55    91    92    1
    56    91    88    1
    57    95    97   ar
    58     5     2    1
    59    20    19    2
    60    92    94   ar
    61    35    36    1
    62    40    41    1
    63    19    18    1
    64    82    73   am
    65    87    88    1
    66    97    96   ar
    67    41    44    1
    68     4     3    2
    69    94    96   ar
    70    88    89    1
    71     2     3    1
    72     2     1    1
    73    73    74    2
    74    73    72    1
    75     3     9   am
    76    36    37    2
    77   115   114    1
    78    18    17    1
    79    71    72    1
    80   109   108    2
    81    12    11    2
    82    44    45    1
    83   108   107    1
    84    38    37    1
    85   110   107    1
    86   110   111    1
    87    89    90    2
    88    17    11   am
    89    11    10    1
    90    72    75    1
    91   112   111    1
    92   112   113    1
    93     9    10    1
    94    37    39    1
    95   101   100    2
    96    10    13    1
    97   114   113    2
    98   114   116    1
    99   107   106    1
   100   102   103    1
   101   102    99    1
   102   104   103    2
   103    45    46    1
   104   100    99    1
   105   103   105   am
   106    75    76    1
   107    99    98    1
   108    77    76   ar
   109    77    79   ar
   110    15    14   ar
   111    13    14    1
   112    47    46    1
   113    47    48    2
   114    76    78   ar
   115    14    16   ar
   116    79    81   ar
   117    50    48    1
   118    48    49    1
   119    78    80   ar
   120    81    80   ar
