@<TRIPOS>MOLECULE
tmp/5hxtB01.pdb
 121 115 0 0 0
SMALL
GASTEIGER

@<TRIPOS>ATOM
      1  N        -31.2080    1.9180  -12.7990 N.3    14  ILE14      -0.1231
      2  CA       -31.3080    0.4640  -12.6860 C.3    14  ILE14       0.1692
      3  C        -32.4540    0.0140  -13.6120 C.2    14  ILE14       0.2592
      4  O        -33.6280    0.2100  -13.3010 O.2    14  ILE14      -0.2718
      5  CB       -31.5410    0.0290  -11.2370 C.3    14  ILE14       0.0266
      6  CG1      -30.3760    0.5030  -10.3610 C.3    14  ILE14       0.0019
      7  CG2      -31.6550   -1.4820  -11.1210 C.3    14  ILE14       0.0020
      8  CD1      -30.4390    0.0060   -8.9400 C.3    14  ILE14       0.0001
      9  N        -32.0770   -0.5880  -14.7420 N.am   15  MET15      -0.1965
     10  CA       -32.9870   -0.8940  -15.8520 C.3    15  MET15       0.1736
     11  C        -33.6940   -2.2330  -15.6370 C.2    15  MET15       0.2616
     12  O        -33.4150   -3.2090  -16.3330 O.2    15  MET15      -0.2715
     13  CB       -32.1820   -0.9350  -17.1630 C.3    15  MET15       0.0427
     14  CG       -31.3410    0.3130  -17.4130 C.3    15  MET15       0.0599
     15  SD       -30.5480    0.3830  -19.0280 S.3    15  MET15      -0.1393
     16  CE       -29.3130   -0.9040  -18.8680 C.3    15  MET15       0.0692
     17  N        -34.6050   -2.2750  -14.6720 N.am   16  ASP16      -0.1971
     18  CA       -35.2340   -3.5250  -14.2410 C.3    16  ASP16       0.1709
     19  C        -36.6730   -3.6660  -14.7700 C.2    16  ASP16       0.2293
     20  O        -37.2970   -2.6810  -15.1510 O.2    16  ASP16      -0.2864
     21  CB       -35.2330   -3.5840  -12.7190 C.3    16  ASP16       0.1436
     22  CG       -35.4060   -4.9870  -12.1790 C.2    16  ASP16       0.3671
     23  OD1      -35.1530   -5.9740  -12.9120 O.co2  16  ASP16      -0.2456
     24  OD2      -35.7780   -5.1150  -10.9990 O.co2  16  ASP16      -0.2456
     25  N        -27.2550    0.3020  -15.1890 N.3    58  PHE58      -0.1227
     26  CA       -26.9100   -1.0540  -14.7630 C.3    58  PHE58       0.1736
     27  C        -27.4540   -2.0920  -15.7660 C.2    58  PHE58       0.2595
     28  O        -28.6430   -2.4170  -15.7510 O.2    58  PHE58      -0.2718
     29  CB       -27.4820   -1.3150  -13.3660 C.3    58  PHE58       0.0547
     30  CG       -26.7290   -2.3360  -12.5510 C.ar   58  PHE58      -0.0202
     31  CD1      -25.5010   -2.8540  -12.9550 C.ar   58  PHE58      -0.0042
     32  CD2      -27.2360   -2.7300  -11.3240 C.ar   58  PHE58      -0.0042
     33  CE1      -24.8170   -3.7710  -12.1700 C.ar   58  PHE58      -0.0003
     34  CE2      -26.5520   -3.6360  -10.5270 C.ar   58  PHE58      -0.0003
     35  CZ       -25.3390   -4.1550  -10.9480 C.ar   58  PHE58      -0.0000
     36  N        -26.5740   -2.6030  -16.6250 N.am   59  ALA59      -0.1966
     37  CA       -26.9600   -3.5210  -17.7000 C.3    59  ALA59       0.1728
     38  C        -26.7730   -4.9890  -17.3370 C.2    59  ALA59       0.2616
     39  O        -27.5290   -5.8330  -17.8080 O.2    59  ALA59      -0.2715
     40  CB       -26.1940   -3.1900  -18.9750 C.3    59  ALA59       0.0334
     41  N        -25.7730   -5.3070  -16.5220 N.am   60  PHE60      -0.1960
     42  CA       -25.5500   -6.6860  -16.1070 C.3    60  PHE60       0.1771
     43  C        -24.6800   -6.7050  -14.8600 C.2    60  PHE60       0.2620
     44  O        -23.5850   -6.1390  -14.8590 O.2    60  PHE60      -0.2715
     45  CB       -24.8870   -7.4960  -17.2420 C.3    60  PHE60       0.0574
     46  CG       -24.8080   -8.9800  -16.9770 C.ar   60  PHE60      -0.0200
     47  CD1      -25.7900   -9.8410  -17.4610 C.ar   60  PHE60      -0.0042
     48  CD2      -23.7500   -9.5220  -16.2560 C.ar   60  PHE60      -0.0042
     49  CE1      -25.7240  -11.2030  -17.2200 C.ar   60  PHE60      -0.0003
     50  CE2      -23.6780  -10.8860  -16.0140 C.ar   60  PHE60      -0.0003
     51  CZ       -24.6670  -11.7230  -16.4950 C.ar   60  PHE60      -0.0000
     52  N        -25.1560   -7.3640  -13.8090 N.am   61  SER61      -0.1950
     53  CA       -24.4410   -7.4040  -12.5440 C.3    61  SER61       0.1924
     54  C        -23.5540   -8.6300  -12.4230 C.2    61  SER61       0.2314
     55  O        -23.7300   -9.6230  -13.1270 O.2    61  SER61      -0.2863
     56  CB       -25.4180   -7.3940  -11.3770 C.3    61  SER61       0.2116
     57  OG       -25.9480   -8.6780  -11.1690 O.3    61  SER61      -0.2180
     58  N        -23.7430  -10.6470  -10.1700 N.3    63  GLU63      -0.1231
     59  CA       -24.6110  -11.7380   -9.6950 C.3    63  GLU63       0.1699
     60  C        -25.4500  -12.3710  -10.8010 C.2    63  GLU63       0.2592
     61  O        -25.8920  -13.5060  -10.6550 O.2    63  GLU63      -0.2718
     62  CB       -25.5400  -11.2620   -8.5710 C.3    63  GLU63       0.0402
     63  CG       -24.8430  -11.1290   -7.2210 C.3    63  GLU63       0.1161
     64  CD       -23.9470   -9.9030   -7.1490 C.2    63  GLU63       0.3649
     65  OE1      -22.7160  -10.0610   -6.9660 O.co2  63  GLU63      -0.2457
     66  OE2      -24.4770   -8.7780   -7.3000 O.co2  63  GLU63      -0.2457
     67  N        -25.6700  -11.6440  -11.8950 N.am   64  ASN64      -0.1974
     68  CA       -26.5270  -12.1220  -12.9850 C.3    64  ASN64       0.1688
     69  C        -25.9800  -13.3620  -13.7260 C.2    64  ASN64       0.2292
     70  O        -26.6960  -13.9600  -14.5340 O.2    64  ASN64      -0.2864
     71  CB       -26.8210  -10.9910  -13.9880 C.3    64  ASN64       0.1181
     72  CG       -27.8100   -9.9530  -13.4570 C.2    64  ASN64       0.2629
     73  OD1      -27.8330   -8.8100  -13.9260 O.2    64  ASN64      -0.2716
     74  ND2      -28.6380  -10.3450  -12.4980 N.am   64  ASN64      -0.0877
     75  N        -28.0180  -16.7300  -13.3340 N.3    67  ARG67      -0.1245
     76  CA       -29.2350  -16.9530  -14.1060 C.3    67  ARG67       0.1563
     77  C        -29.1280  -18.1270  -15.0780 C.2    67  ARG67       0.2260
     78  O        -28.0890  -18.7810  -15.1680 O.2    67  ARG67      -0.2867
     79  CB       -29.5910  -15.6830  -14.8730 C.3    67  ARG67       0.0307
     80  CG       -29.9680  -14.5480  -13.9570 C.3    67  ARG67       0.0489
     81  CD       -30.6230  -13.4260  -14.7240 C.3    67  ARG67       0.2205
     82  NE       -31.2240  -12.4690  -13.8070 N.pl3  67  ARG67      -0.0865
     83  CZ       -31.8750  -11.3790  -14.1860 C.cat  67  ARG67       0.5346
     84  NH1      -32.0210  -11.1000  -15.4760 N.pl3  67  ARG67       0.1354
     85  NH2      -32.3880  -10.5690  -13.2680 N.pl3  67  ARG67       0.1354
     86  N        -34.8070    3.5070  -10.3560 N.3   179  ARG179     -0.1245
     87  CA       -34.9870    2.0870  -10.5940 C.3   179  ARG179      0.1563
     88  C        -36.4030    1.7960  -11.0670 C.2   179  ARG179      0.2260
     89  O        -37.3790    2.0930  -10.3710 O.2   179  ARG179     -0.2867
     90  CB       -34.6830    1.2610   -9.3570 C.3   179  ARG179      0.0307
     91  CG       -34.9710   -0.2120   -9.5750 C.3   179  ARG179      0.0489
     92  CD       -34.3750   -1.0650   -8.4930 C.3   179  ARG179      0.2205
     93  NE       -34.4790   -2.4760   -8.8380 N.pl3 179  ARG179     -0.0865
     94  CZ       -33.6560   -3.4240   -8.4040 C.cat 179  ARG179      0.5346
     95  NH1      -32.6320   -3.1330   -7.5910 N.pl3 179  ARG179      0.1354
     96  NH2      -33.8420   -4.6720   -8.8070 N.pl3 179  ARG179      0.1354
     97  N        -39.0610   -2.7480   -7.5420 N.3   183  ASP183     -0.1239
     98  CA       -38.2780   -3.2380   -6.4000 C.3   183  ASP183      0.1674
     99  C        -37.5690   -2.0310   -5.7620 C.2   183  ASP183      0.2266
    100  O        -37.1930   -1.0950   -6.4630 O.2   183  ASP183     -0.2867
    101  CB       -37.2820   -4.3400   -6.8070 C.3   183  ASP183      0.1410
    102  CG       -36.9880   -5.3410   -5.6650 C.2   183  ASP183      0.3668
    103  OD1      -37.3850   -5.0890   -4.5020 O.co2 183  ASP183     -0.2456
    104  OD2      -36.3410   -6.3850   -5.9240 O.co2 183  ASP183     -0.2456
    105  N        -34.5420   -1.6040   -3.8490 N.3   185  ARG185     -0.1245
    106  CA       -33.2240   -2.0330   -3.4220 C.3   185  ARG185      0.1563
    107  C        -32.2580   -1.5520   -4.4860 C.2   185  ARG185      0.2260
    108  O        -32.6860   -1.2060   -5.5780 O.2   185  ARG185     -0.2867
    109  CB       -33.1760   -3.5470   -3.3070 C.3   185  ARG185      0.0307
    110  CG       -33.9020   -4.2580   -4.4370 C.3   185  ARG185      0.0489
    111  CD       -33.5350   -5.7250   -4.4920 C.3   185  ARG185      0.2205
    112  NE       -33.8100   -6.3770   -3.2220 N.pl3 185  ARG185     -0.0865
    113  CZ       -33.4740   -7.6300   -2.9290 C.cat 185  ARG185      0.5346
    114  NH1      -32.8500   -8.4010   -3.8230 N.pl3 185  ARG185      0.1354
    115  NH2      -33.7690   -8.1140   -1.7310 N.pl3 185  ARG185      0.1354
    116  N        -29.4030   -3.4920   -5.2060 N.3   187  SER187     -0.1217
    117  CA       -28.9250   -4.7460   -5.7950 C.3   187  SER187      0.1889
    118  C        -27.4660   -4.6610   -6.2210 C.2   187  SER187      0.2288
    119  O        -27.1320   -4.8700   -7.3910 O.2   187  SER187     -0.2866
    120  CB       -29.8100   -5.1560   -6.9790 C.3   187  SER187      0.2089
    121  OG       -31.1640   -5.2970   -6.5790 O.3   187  SER187     -0.2183
@<TRIPOS>BOND
     1    15    16    1
     2    15    14    1
     3    40    37    1
     4    39    38    2
     5    37    38    1
     6    37    36    1
     7    47    49   ar
     8    47    46   ar
     9    14    13    1
    10    38    41   am
    11    45    46    1
    12    45    42    1
    13    49    51   ar
    14    13    10    1
    15    46    48   ar
    16    36    27   am
    17    41    42    1
    18    51    50   ar
    19    12    11    2
    20    48    50   ar
    21    42    43    1
    22    10    11    1
    23    10     9    1
    24    27    28    2
    25    27    26    1
    26    11    17   am
    27    84    83    1
    28    25    26    1
    29    78    77    2
    30    20    19    2
    31    77    76    1
    32    79    76    1
    33    79    80    1
    34    43    44    2
    35    43    52   am
    36    19    18    1
    37    26    29    1
    38     9     3   am
    39    81    80    1
    40    81    82    1
    41    17    18    1
    42    70    69    2
    43    18    21    1
    44    83    82    2
    45    83    85    1
    46    76    75    1
    47    71    72    1
    48    71    68    1
    49    73    72    2
    50    52    53    1
    51    69    68    1
    52     3     4    2
    53     3     2    1
    54    72    74   am
    55    29    30    1
    56    55    54    2
    57    68    67    1
    58    31    30   ar
    59    31    33   ar
    60    23    22   ar
    61     1     2    1
    62    21    22    1
    63     2     5    1
    64    30    32   ar
    65    53    54    1
    66    53    56    1
    67    22    24   ar
    68    33    35   ar
    69    67    60   am
    70    56    57    1
    71    32    34   ar
    72     5     7    1
    73     5     6    1
    74    88    87    1
    75    88    89    2
    76    35    34   ar
    77    60    61    2
    78    60    59    1
    79    87    86    1
    80    87    90    1
    81     6     8    1
    82    58    59    1
    83    59    62    1
    84    91    90    1
    85    91    92    1
    86    93    92    1
    87    93    94    2
    88    96    94    1
    89    62    63    1
    90    94    95    1
    91    97    98    1
    92   119   118    2
    93    66    64   ar
    94    63    64    1
    95    64    65   ar
    96   120   121    1
    97   120   117    1
    98   101    98    1
    99   101   102    1
   100   100    99    2
   101    98    99    1
   102   118   117    1
   103   104   102   ar
   104   117   116    1
   105   102   103   ar
   106   108   107    2
   107   111   110    1
   108   111   112    1
   109   107   106    1
   110   110   109    1
   111   105   106    1
   112   114   113    1
   113   106   109    1
   114   112   113    2
   115   113   115    1
