@<TRIPOS>MOLECULE
tmp/5hxwA03.pdb
 197 189 0 0 0
SMALL
GASTEIGER

@<TRIPOS>ATOM
      1  N         -2.6990   -7.0580    3.3850 N.3    59  TYR59      -0.1241
      2  CA        -3.4100   -7.3340    4.6330 C.3    59  TYR59       0.1605
      3  C         -4.4520   -6.2540    4.9430 C.2    59  TYR59       0.2264
      4  O         -5.6260   -6.5710    5.1640 O.2    59  TYR59      -0.2867
      5  CB        -2.4080   -7.5090    5.7860 C.3    59  TYR59       0.0534
      6  CG        -3.0240   -7.7100    7.1590 C.ar   59  TYR59      -0.0201
      7  CD1       -3.9070   -8.7720    7.4120 C.ar   59  TYR59      -0.0009
      8  CD2       -2.7080   -6.8510    8.2130 C.ar   59  TYR59      -0.0009
      9  CE1       -4.4670   -8.9540    8.6720 C.ar   59  TYR59       0.0417
     10  CE2       -3.2580   -7.0270    9.4750 C.ar   59  TYR59       0.0417
     11  CZ        -4.1350   -8.0780    9.6980 C.ar   59  TYR59       0.1957
     12  OH        -4.6740   -8.2520   10.9430 O.3    59  TYR59      -0.2866
     13  N         -3.7310   -2.8380    6.8430 N.3    61  GLN61      -0.1245
     14  CA        -3.5660   -1.9180    7.9720 C.3    61  GLN61       0.1566
     15  C         -2.6440   -0.7360    7.6700 C.2    61  GLN61       0.2260
     16  O         -1.5580   -0.9070    7.1060 O.2    61  GLN61      -0.2867
     17  CB        -3.1320   -2.6640    9.2450 C.3    61  GLN61       0.0367
     18  CG        -1.8030   -3.4090    9.1740 C.3    61  GLN61       0.0905
     19  CD        -1.4220   -4.0710   10.4860 C.2    61  GLN61       0.2608
     20  OE1       -1.8010   -3.6140   11.5630 O.2    61  GLN61      -0.2717
     21  NE2       -0.6570   -5.1470   10.4010 N.am   61  GLN61      -0.0878
     22  N         15.0710   -8.4270   -2.6760 N.3   236  LEU236     -0.1231
     23  CA        14.8460   -9.8650   -2.6870 C.3   236  LEU236      0.1678
     24  C         13.3580  -10.1600   -2.5340 C.2   236  LEU236      0.2434
     25  O         12.6650   -9.4300   -1.8190 O.2   236  LEU236     -0.2733
     26  CB        15.6660  -10.5660   -1.5930 C.3   236  LEU236      0.0284
     27  CG        17.1850  -10.6850   -1.7940 C.3   236  LEU236      0.0019
     28  CD1       17.8070  -11.4960   -0.6690 C.3   236  LEU236      0.0001
     29  CD2       17.5360  -11.3130   -3.1370 C.3   236  LEU236      0.0001
     30  N         12.8590  -11.2180   -3.2150 N.am  237  PRO237     -0.2718
     31  CA        11.4480  -11.5870   -3.0890 C.3   237  PRO237      0.1535
     32  C         11.0700  -12.1020   -1.6970 C.2   237  PRO237      0.2598
     33  O         11.8790  -12.7370   -1.0180 O.2   237  PRO237     -0.2715
     34  CB        11.2760  -12.6940   -4.1340 C.3   237  PRO237      0.0310
     35  CG        12.6380  -13.2630   -4.3070 C.3   237  PRO237      0.0237
     36  CD        13.5540  -12.0840   -4.1860 C.3   237  PRO237      0.0939
     37  N          9.8420  -11.7950   -1.2910 N.am  238  ALA238     -0.1978
     38  CA         9.2430  -12.3140   -0.0660 C.3   238  ALA238      0.1597
     39  C          7.7890  -12.6810   -0.3450 C.2   238  ALA238      0.2287
     40  O          7.1260  -12.0360   -1.1610 O.2   238  ALA238     -0.2864
     41  CB         9.3340  -11.2830    1.0440 C.3   238  ALA238      0.0319
     42  N          3.9090  -14.0180    1.4610 N.3   240  GLN240     -0.1245
     43  CA         3.0390  -14.2110    2.6170 C.3   240  GLN240      0.1566
     44  C          1.6250  -14.5660    2.1770 C.2   240  GLN240      0.2260
     45  O          1.0320  -13.8910    1.3280 O.2   240  GLN240     -0.2867
     46  CB         3.0250  -12.9710    3.5130 C.3   240  GLN240      0.0367
     47  CG         2.3370  -13.1910    4.8540 C.3   240  GLN240      0.0905
     48  CD         2.2460  -11.9320    5.6930 C.2   240  GLN240      0.2608
     49  OE1        1.9610  -10.8430    5.1880 O.2   240  GLN240     -0.2717
     50  NE2        2.4860  -12.0780    6.9890 N.am  240  GLN240     -0.0878
     51  N          6.7390  -14.8600    7.0340 N.3   279  ILE279     -0.1245
     52  CA         7.1750  -14.3810    5.7170 C.3   279  ILE279      0.1561
     53  C          8.1230  -15.4200    5.1040 C.2   279  ILE279      0.2260
     54  O          9.1000  -15.8310    5.7350 O.2   279  ILE279     -0.2867
     55  CB         7.8800  -12.9940    5.8010 C.3   279  ILE279      0.0252
     56  CG1        7.0350  -11.9550    6.5720 C.3   279  ILE279      0.0019
     57  CG2        8.2950  -12.4870    4.4200 C.3   279  ILE279      0.0019
     58  CD1        5.7600  -11.4790    5.8960 C.3   279  ILE279      0.0001
     59  N         10.8310  -16.2280    2.3130 N.3   281  ALA281     -0.1245
     60  CA        11.7920  -15.7100    1.3370 C.3   281  ALA281      0.1562
     61  C         12.3370  -16.8420    0.4540 C.2   281  ALA281      0.2260
     62  O         13.1280  -17.6720    0.9290 O.2   281  ALA281     -0.2867
     63  CB        12.9230  -14.9500    2.0250 C.3   281  ALA281      0.0290
     64  N         20.1940  -14.0600   -4.2780 N.3   287  SER287     -0.1217
     65  CA        20.4900  -14.4890   -2.9050 C.3   287  SER287      0.1889
     66  C         21.9750  -14.7670   -2.7020 C.2   287  SER287      0.2288
     67  O         22.5210  -14.4810   -1.6400 O.2   287  SER287     -0.2866
     68  CB        19.6950  -15.7410   -2.5380 C.3   287  SER287      0.2089
     69  OG        18.3450  -15.6350   -2.9470 O.3   287  SER287     -0.2183
     70  N         22.5500  -11.5300   -0.6750 N.3   291  GLY291     -0.1210
     71  CA        21.7320  -12.0890    0.4000 C.3   291  GLY291      0.1956
     72  C         22.3990  -12.0600    1.7630 C.2   291  GLY291      0.2611
     73  O         21.7180  -12.2010    2.7860 O.2   291  GLY291     -0.2717
     74  N         23.7240  -11.8800    1.7790 N.am  292  TYR292     -0.1976
     75  CA        24.4940  -11.7240    3.0220 C.3   292  TYR292      0.1639
     76  C         24.1140  -10.4470    3.7810 C.2   292  TYR292      0.2290
     77  O         24.1820  -10.4050    5.0130 O.2   292  TYR292     -0.2864
     78  CB        26.0090  -11.7890    2.7590 C.3   292  TYR292      0.0560
     79  CG        26.6350  -10.5380    2.1560 C.ar  292  TYR292     -0.0198
     80  CD1       26.6740  -10.3480    0.7670 C.ar  292  TYR292     -0.0009
     81  CD2       27.2080   -9.5520    2.9760 C.ar  292  TYR292     -0.0009
     82  CE1       27.2490   -9.2080    0.2140 C.ar  292  TYR292      0.0417
     83  CE2       27.7840   -8.4080    2.4320 C.ar  292  TYR292      0.0417
     84  CZ        27.8030   -8.2400    1.0530 C.ar  292  TYR292      0.1957
     85  OH        28.3760   -7.1090    0.5140 O.3   292  TYR292     -0.2866
     86  N         21.2050   -9.3430    4.1100 N.3   294  TYR294     -0.1227
     87  CA        19.8980   -9.5900    4.7270 C.3   294  TYR294      0.1736
     88  C         19.9870  -10.4570    5.9850 C.2   294  TYR294      0.2595
     89  O         18.9620  -10.7720    6.5960 O.2   294  TYR294     -0.2718
     90  CB        18.9520  -10.2500    3.7160 C.3   294  TYR294      0.0548
     91  CG        18.4820   -9.3490    2.5970 C.ar  294  TYR294     -0.0200
     92  CD1       19.3280   -9.0170    1.5310 C.ar  294  TYR294     -0.0009
     93  CD2       17.1790   -8.8480    2.5860 C.ar  294  TYR294     -0.0009
     94  CE1       18.8940   -8.1970    0.4990 C.ar  294  TYR294      0.0417
     95  CE2       16.7340   -8.0270    1.5540 C.ar  294  TYR294      0.0417
     96  CZ        17.5950   -7.7060    0.5140 C.ar  294  TYR294      0.1957
     97  OH        17.1650   -6.8970   -0.5130 O.3   294  TYR294     -0.2866
     98  N         21.2080  -10.8380    6.3620 N.am  295  LEU295     -0.1980
     99  CA        21.4490  -11.6990    7.5300 C.3   295  LEU295      0.1596
    100  C         21.0910  -11.1040    8.9110 C.2   295  LEU295      0.2287
    101  O         20.6190  -11.8540    9.7750 O.2   295  LEU295     -0.2864
    102  CB        22.8780  -12.2670    7.5260 C.3   295  LEU295      0.0297
    103  CG        23.2330  -13.3640    6.5120 C.3   295  LEU295      0.0022
    104  CD1       24.7440  -13.5170    6.4030 C.3   295  LEU295      0.0001
    105  CD2       22.5860  -14.7000    6.8580 C.3   295  LEU295      0.0001
    106  N         18.5470   -9.4480    9.5820 N.3   297  LEU297     -0.1231
    107  CA        17.1000   -9.6240    9.7270 C.3   297  LEU297      0.1693
    108  C         16.7660  -11.0100   10.2810 C.2   297  LEU297      0.2591
    109  O         15.8150  -11.1540   11.0490 O.2   297  LEU297     -0.2718
    110  CB        16.3600   -9.3530    8.4090 C.3   297  LEU297      0.0284
    111  CG        16.3970   -7.9410    7.8010 C.3   297  LEU297      0.0019
    112  CD1       15.8710   -7.9820    6.3760 C.3   297  LEU297      0.0001
    113  CD2       15.6240   -6.9110    8.6160 C.3   297  LEU297      0.0001
    114  N         17.5620  -12.0160    9.9140 N.am  298  LEU298     -0.1980
    115  CA        17.4340  -13.3650   10.4840 C.3   298  LEU298      0.1596
    116  C         17.9250  -13.4550   11.9410 C.2   298  LEU298      0.2287
    117  O         17.8000  -14.5090   12.5800 O.2   298  LEU298     -0.2864
    118  CB        18.1520  -14.4090    9.6110 C.3   298  LEU298      0.0297
    119  CG        17.8320  -14.6150    8.1210 C.3   298  LEU298      0.0022
    120  CD1       18.5480  -15.8620    7.6230 C.3   298  LEU298      0.0001
    121  CD2       16.3400  -14.7160    7.8280 C.3   298  LEU298      0.0001
    122  N         11.4680  -12.5730   14.5430 N.3   303  PHE303     -0.1228
    123  CA        11.4040  -12.3870   13.0920 C.3   303  PHE303      0.1721
    124  C         10.9770  -13.6740   12.3830 C.2   303  PHE303      0.2437
    125  O         11.5450  -14.7420   12.6380 O.2   303  PHE303     -0.2733
    126  CB        12.7440  -11.8940   12.5450 C.3   303  PHE303      0.0547
    127  CG        12.6170  -10.9520   11.3860 C.ar  303  PHE303     -0.0202
    128  CD1       12.2770   -9.6110   11.5940 C.ar  303  PHE303     -0.0042
    129  CD2       12.8410  -11.3950   10.0820 C.ar  303  PHE303     -0.0042
    130  CE1       12.1580   -8.7320   10.5220 C.ar  303  PHE303     -0.0003
    131  CE2       12.7340  -10.5150    9.0090 C.ar  303  PHE303     -0.0003
    132  CZ        12.3870   -9.1860    9.2270 C.ar  303  PHE303     -0.0000
    133  N          9.9820  -13.5690   11.4790 N.am  304  PRO304     -0.2718
    134  CA         9.2930  -14.7420   10.9650 C.3   304  PRO304      0.1535
    135  C          9.7130  -15.2070    9.5580 C.2   304  PRO304      0.2598
    136  O          8.9220  -15.8720    8.8770 O.2   304  PRO304     -0.2715
    137  CB         7.8350  -14.2710   10.9550 C.3   304  PRO304      0.0310
    138  CG         7.9110  -12.7760   10.7660 C.3   304  PRO304      0.0237
    139  CD         9.3320  -12.3370   10.9930 C.3   304  PRO304      0.0939
    140  N         10.9350  -14.8780    9.1370 N.am  305  VAL305     -0.1978
    141  CA        11.3910  -15.2210    7.7830 C.3   305  VAL305      0.1596
    142  C         11.9250  -16.6530    7.6870 C.2   305  VAL305      0.2287
    143  O         12.8720  -17.0230    8.3850 O.2   305  VAL305     -0.2864
    144  CB        12.3660  -14.1690    7.1860 C.3   305  VAL305      0.0276
    145  CG1       13.0390  -14.6790    5.9170 C.3   305  VAL305      0.0022
    146  CG2       11.6120  -12.8910    6.8620 C.3   305  VAL305      0.0022
    147  N         13.5890  -19.3160    4.9770 N.3   307  ILE307     -0.1245
    148  CA        14.2810  -19.5320    3.7080 C.3   307  ILE307      0.1561
    149  C         13.6400  -20.7540    3.0510 C.2   307  ILE307      0.2260
    150  O         13.4920  -21.8060    3.6840 O.2   307  ILE307     -0.2867
    151  CB        15.8140  -19.7310    3.9090 C.3   307  ILE307      0.0252
    152  CG1       16.4660  -18.5230    4.6220 C.3   307  ILE307      0.0019
    153  CG2       16.5250  -20.0810    2.6010 C.3   307  ILE307      0.0019
    154  CD1       16.3140  -17.1670    3.9500 C.3   307  ILE307      0.0001
    155  N          6.1940   -9.6630   -2.1620 N.3   373  MET373     -0.1245
    156  CA         6.9150   -8.4070   -1.9030 C.3   373  MET373      0.1570
    157  C          8.3230   -8.4530   -2.5010 C.2   373  MET373      0.2261
    158  O          8.8140   -9.5170   -2.8940 O.2   373  MET373     -0.2867
    159  CB         7.0550   -8.1450   -0.3990 C.3   373  MET373      0.0387
    160  CG         5.7860   -8.2390    0.4190 C.3   373  MET373      0.0595
    161  SD         6.1560   -8.8240    2.0810 S.3   373  MET373     -0.1393
    162  CE         4.7910   -9.9470    2.3500 C.3   373  MET373      0.0692
    163  N         11.8240   -6.5550   -0.9720 N.3   375  ILE375     -0.1245
    164  CA        12.2970   -5.7740    0.1730 C.3   375  ILE375      0.1561
    165  C         13.8090   -5.5350    0.0770 C.2   375  ILE375      0.2260
    166  O         14.5670   -6.4480   -0.2660 O.2   375  ILE375     -0.2867
    167  CB        11.8940   -6.4670    1.5140 C.3   375  ILE375      0.0252
    168  CG1       10.3640   -6.6860    1.6130 C.3   375  ILE375      0.0019
    169  CG2       12.4210   -5.7310    2.7430 C.3   375  ILE375      0.0019
    170  CD1        9.4940   -5.4410    1.5440 C.3   375  ILE375      0.0001
    171  N         15.0010   -2.9030    5.0290 N.3   379  GLU379     -0.1245
    172  CA        13.5290   -2.9830    5.1040 C.3   379  GLU379      0.1567
    173  C         12.8000   -1.6460    4.8360 C.2   379  GLU379      0.2260
    174  O         11.5930   -1.5260    5.0660 O.2   379  GLU379     -0.2867
    175  CB        13.0880   -3.6230    6.4350 C.3   379  GLU379      0.0388
    176  CG        11.8930   -4.5610    6.3350 C.3   379  GLU379      0.1160
    177  CD        11.4760   -5.1390    7.6790 C.2   379  GLU379      0.3649
    178  OE1       12.3610   -5.4500    8.5130 O.co2 379  GLU379     -0.2457
    179  OE2       10.2540   -5.2900    7.8960 O.co2 379  GLU379     -0.2457
    180  N          7.1870   -2.8050    1.9360 N.3   399  GLY399     -0.1210
    181  CA         6.1560   -3.6750    2.5030 C.3   399  GLY399      0.1956
    182  C          4.9760   -2.8960    3.0680 C.2   399  GLY399      0.2611
    183  O          4.0240   -3.4900    3.5820 O.2   399  GLY399     -0.2717
    184  N          5.0370   -1.5690    2.9580 N.am  400  TRP400     -0.1976
    185  CA         4.0340   -0.6820    3.5340 C.3   400  TRP400      0.1640
    186  C          3.5060    0.3530    2.5380 C.2   400  TRP400      0.2290
    187  O          3.0500    1.4350    2.9300 O.2   400  TRP400     -0.2864
    188  CB         4.6170    0.0080    4.7670 C.3   400  TRP400      0.0576
    189  CG         4.8300   -0.9100    5.9290 C.ar  400  TRP400      0.0006
    190  CD1        6.0270   -1.3440    6.4180 C.ar  400  TRP400      0.0946
    191  CD2        3.8180   -1.5080    6.7490 C.ar  400  TRP400      0.0152
    192  NE1        5.8280   -2.1750    7.4940 N.ar  400  TRP400     -0.2442
    193  CE2        4.4820   -2.2970    7.7190 C.ar  400  TRP400      0.0810
    194  CE3        2.4150   -1.4550    6.7620 C.ar  400  TRP400      0.0012
    195  CZ2        3.7910   -3.0290    8.7000 C.ar  400  TRP400      0.0191
    196  CZ3        1.7240   -2.1870    7.7340 C.ar  400  TRP400      0.0001
    197  CH2        2.4180   -2.9640    8.6900 C.ar  400  TRP400      0.0015
@<TRIPOS>BOND
     1    35    36    1
     2    35    34    1
     3    64    65    1
     4    36    30    1
     5    34    31    1
     6    30    31    1
     7    30    24   am
     8    29    27    1
     9    31    32    1
    10    69    68    1
    11    65    66    1
    12    65    68    1
    13   158   157    2
    14    66    67    2
    15    23    22    1
    16    23    24    1
    17    23    26    1
    18    24    25    2
    19   157   156    1
    20   155   156    1
    21   156   159    1
    22    27    26    1
    23    27    28    1
    24    32    37   am
    25    32    33    2
    26    37    38    1
    27    40    39    2
    28   163   164    1
    29    70    71    1
    30    97    96    1
    31   159   160    1
    32    39    38    1
    33   166   165    2
    34    38    41    1
    35   165   164    1
    36   164   167    1
    37    82    80   ar
    38    82    84   ar
    39    71    72    1
    40   160   161    1
    41    61    62    2
    42    61    60    1
    43    94    96   ar
    44    94    92   ar
    45    85    84    1
    46    96    95   ar
    47    80    79   ar
    48    84    83   ar
    49    45    44    2
    50    60    63    1
    51    60    59    1
    52    42    43    1
    53   167   168    1
    54   167   169    1
    55    92    91   ar
    56   170   168    1
    57    95    93   ar
    58    72    74   am
    59    72    73    2
    60    74    75    1
    61   180   181    1
    62   161   162    1
    63    79    78    1
    64    79    81   ar
    65    44    43    1
    66    83    81   ar
    67   181   182    1
    68   186   187    2
    69   186   185    1
    70    93    91   ar
    71    91    90    1
    72   153   151    1
    73    43    46    1
    74    78    75    1
    75   184   182   am
    76   184   185    1
    77    75    76    1
    78   149   150    2
    79   149   148    1
    80   182   183    2
    81     1     2    1
    82    46    47    1
    83   185   188    1
    84   148   151    1
    85   148   147    1
    86    90    87    1
    87    76    77    2
    88   151   152    1
    89   154   152    1
    90    86    87    1
    91    57    55    1
    92     2     3    1
    93     2     5    1
    94    87    88    1
    95   188   189    1
    96   173   174    2
    97   173   172    1
    98    47    48    1
    99     3     4    2
   100   171   172    1
   101   172   175    1
   102    53    52    1
   103    53    54    2
   104    49    48    2
   105    48    50   am
   106    52    55    1
   107    52    51    1
   108     5     6    1
   109    55    56    1
   110    58    56    1
   111   145   144    1
   112   189   190   ar
   113   189   191   ar
   114    88    98   am
   115    88    89    2
   116   176   175    1
   117   176   177    1
   118    98    99    1
   119   112   111    1
   120   104   103    1
   121   190   192   ar
   122   103   105    1
   123   103   102    1
   124   191   194   ar
   125   191   193   ar
   126   194   196   ar
   127    13    14    1
   128   146   144    1
   129    16    15    2
   130     6     7   ar
   131     6     8   ar
   132   144   141    1
   133     7     9   ar
   134   192   193   ar
   135   102    99    1
   136    99   100    1
   137   120   119    1
   138    15    14    1
   139   177   179   ar
   140   177   178   ar
   141   142   141    1
   142   142   143    2
   143   193   195   ar
   144   196   197   ar
   145   141   140    1
   146   111   110    1
   147   111   113    1
   148   121   119    1
   149    14    17    1
   150   119   118    1
   151     8    10   ar
   152   110   107    1
   153     9    11   ar
   154   197   195   ar
   155   136   135    2
   156   100   101    2
   157   131   132   ar
   158   131   129   ar
   159   140   135   am
   160    18    17    1
   161    18    19    1
   162   132   130   ar
   163    10    11   ar
   164   135   134    1
   165   106   107    1
   166   118   115    1
   167    11    12    1
   168   107   108    1
   169   114   108   am
   170   114   115    1
   171   129   127   ar
   172   108   109    2
   173    21    19   am
   174   115   116    1
   175    19    20    2
   176   130   128   ar
   177   138   137    1
   178   138   139    1
   179   137   134    1
   180   134   133    1
   181   139   133    1
   182   127   128   ar
   183   127   126    1
   184   133   124   am
   185   116   117    2
   186   124   125    2
   187   124   123    1
   188   126   123    1
   189   123   122    1
