@<TRIPOS>MOLECULE
tmp/5hxxB01.pdb
 113 109 0 0 0
SMALL
GASTEIGER

@<TRIPOS>ATOM
      1  N        -15.8520   11.2410   16.7240 N.3    35  THR35      -0.1203
      2  CA       -14.5460   10.7470   17.1000 C.3    35  THR35       0.1994
      3  C        -14.5210    9.6290   18.1620 C.2    35  THR35       0.2618
      4  O        -13.6010    8.8510   18.1720 O.2    35  THR35      -0.2717
      5  CB       -13.5590   11.8680   17.5820 C.3    35  THR35       0.1784
      6  OG1      -14.0340   12.4180   18.7840 O.3    35  THR35      -0.2211
      7  CG2      -13.3680   12.9690   16.5560 C.3    35  THR35       0.0376
      8  N        -15.4630    9.5320   19.0790 N.am   36  ARG36      -0.1965
      9  CA       -15.1880    8.6210   20.1860 C.3    36  ARG36       0.1729
     10  C        -16.1620    7.4480   20.1910 C.2    36  ARG36       0.2617
     11  O        -17.3470    7.6780   20.0650 O.2    36  ARG36      -0.2715
     12  CB       -15.1680    9.3990   21.5110 C.3    36  ARG36       0.0348
     13  CG       -13.9580   10.3600   21.6210 C.3    36  ARG36       0.0492
     14  CD       -13.9750   11.3040   22.8230 C.3    36  ARG36       0.2205
     15  NE       -12.8250   12.2220   22.7390 N.pl3  36  ARG36      -0.0865
     16  CZ       -11.5420   11.9040   22.9780 C.cat  36  ARG36       0.5346
     17  NH1      -11.1510   10.6790   23.3590 N.pl3  36  ARG36       0.1354
     18  NH2      -10.6170   12.8550   22.8560 N.pl3  36  ARG36       0.1354
     19  N        -15.6840    6.2330   20.3840 N.am   37  GLY37      -0.1940
     20  CA       -16.5420    5.1010   20.4400 C.3    37  GLY37       0.2014
     21  C        -17.1240    4.9700   21.8440 C.2    37  GLY37       0.2638
     22  O        -16.8270    4.0030   22.5000 O.2    37  GLY37      -0.2714
     23  N        -17.8690    5.9670   22.3210 N.am   38  LYS38      -0.1977
     24  CA       -18.4330    5.9490   23.6770 C.3    38  LYS38       0.1596
     25  C        -19.9110    5.4750   23.4780 C.2    38  LYS38       0.2287
     26  O        -20.5650    5.9140   22.5410 O.2    38  LYS38      -0.2864
     27  CB       -18.4730    7.3440   24.3110 C.3    38  LYS38       0.0298
     28  CG       -17.1600    8.0350   24.5900 C.3    38  LYS38       0.0038
     29  CD       -17.4450    9.3220   25.3170 C.3    38  LYS38       0.0206
     30  CE       -16.1620   10.0470   25.5370 C.3    38  LYS38       0.1093
     31  NZ       -16.2960   10.9380   26.6990 N.3    38  LYS38      -0.1314
     32  N         -6.2000   -0.2980   16.3820 N.3   139  TYR139     -0.1227
     33  CA        -6.6520    0.4990   17.5090 C.3   139  TYR139      0.1736
     34  C         -5.5390    1.4250   18.0460 C.2   139  TYR139      0.2595
     35  O         -4.4760    0.9590   18.4350 O.2   139  TYR139     -0.2718
     36  CB        -7.0540   -0.4770   18.6040 C.3   139  TYR139      0.0548
     37  CG        -7.6080    0.1160   19.8460 C.ar  139  TYR139     -0.0200
     38  CD1       -8.3200    1.3520   19.8630 C.ar  139  TYR139     -0.0009
     39  CD2       -7.5400   -0.5960   21.0110 C.ar  139  TYR139     -0.0009
     40  CE1       -8.9220    1.8520   21.0300 C.ar  139  TYR139      0.0417
     41  CE2       -8.1340   -0.0950   22.1730 C.ar  139  TYR139      0.0417
     42  CZ        -8.7700    1.1180   22.1800 C.ar  139  TYR139      0.1957
     43  OH        -9.3260    1.5310   23.3600 O.3   139  TYR139     -0.2866
     44  N         -5.7810    2.7100   17.9970 N.am  140  ASP140     -0.1960
     45  CA        -4.8380    3.7220   18.3640 C.3   140  ASP140      0.1840
     46  C         -4.2650    3.6170   19.7740 C.2   140  ASP140      0.2621
     47  O         -3.0430    3.8430   19.9720 O.2   140  ASP140     -0.2715
     48  CB        -5.3860    5.1190   18.1140 C.3   140  ASP140      0.1450
     49  CG        -6.6990    5.4000   18.8250 C.2   140  ASP140      0.3671
     50  OD1       -7.4160    4.5240   19.3580 O.co2 140  ASP140     -0.2456
     51  OD2       -7.0480    6.5690   18.8000 O.co2 140  ASP140     -0.2456
     52  N         -5.1130    3.2370   20.7150 N.am  141  ARG141     -0.1977
     53  CA        -4.6790    3.0830   22.1070 C.3   141  ARG141      0.1597
     54  C         -3.7320    1.9180   22.2950 C.2   141  ARG141      0.2287
     55  O         -2.8480    2.0610   23.0950 O.2   141  ARG141     -0.2864
     56  CB        -5.8290    3.0040   23.0720 C.3   141  ARG141      0.0334
     57  CG        -6.6120    4.3080   23.0540 C.3   141  ARG141      0.0492
     58  CD        -7.5840    4.2730   24.1650 C.3   141  ARG141      0.2205
     59  NE        -8.4540    5.4240   24.1290 N.pl3 141  ARG141     -0.0865
     60  CZ        -8.2370    6.6000   24.7450 C.cat 141  ARG141      0.5346
     61  NH1       -7.1800    6.8070   25.4990 N.pl3 141  ARG141      0.1354
     62  NH2       -9.1610    7.5600   24.6370 N.pl3 141  ARG141      0.1354
     63  N        -11.5020   -3.1950   15.9200 N.3   188  ASN188     -0.1240
     64  CA       -11.4610   -1.7480   15.8790 C.3   188  ASN188      0.1653
     65  C        -10.3800   -1.3310   14.8500 C.2   188  ASN188      0.2266
     66  O         -9.1670   -1.5150   15.1250 O.2   188  ASN188     -0.2867
     67  CB       -11.1770   -1.2390   17.2880 C.3   188  ASN188      0.1155
     68  CG       -11.0810    0.2450   17.3760 C.2   188  ASN188      0.2627
     69  OD1      -11.0040    0.9590   16.3720 O.2   188  ASN188     -0.2716
     70  ND2      -11.0430    0.7330   18.6090 N.am  188  ASN188     -0.0877
     71  N        -14.7510   -6.7900   21.7920 N.3   220  TYR220     -0.1241
     72  CA       -16.0900   -6.8260   21.1850 C.3   220  TYR220      0.1605
     73  C        -16.6700   -8.2380   21.0880 C.2   220  TYR220      0.2264
     74  O        -17.5000   -8.5230   20.2100 O.2   220  TYR220     -0.2867
     75  CB       -16.1320   -6.0300   19.8070 C.3   220  TYR220      0.0534
     76  CG       -15.6330   -4.6270   19.9230 C.ar  220  TYR220     -0.0201
     77  CD1      -16.4680   -3.6330   20.4190 C.ar  220  TYR220     -0.0009
     78  CD2      -14.2960   -4.2870   19.6510 C.ar  220  TYR220     -0.0009
     79  CE1      -15.9910   -2.3460   20.6730 C.ar  220  TYR220      0.0417
     80  CE2      -13.8200   -2.9740   19.8970 C.ar  220  TYR220      0.0417
     81  CZ       -14.6960   -2.0240   20.4070 C.ar  220  TYR220      0.1957
     82  OH       -14.2850   -0.7640   20.6490 O.3   220  TYR220     -0.2866
     83  N        -18.2950   -1.5660   27.3710 N.3   256  LYS256     -0.1245
     84  CA       -19.4130   -1.2740   26.4290 C.3   256  LYS256      0.1561
     85  C        -20.5790   -2.2480   26.6310 C.2   256  LYS256      0.2260
     86  O        -21.3200   -2.6070   25.6650 O.2   256  LYS256     -0.2867
     87  CB       -18.8880   -1.2520   24.9530 C.3   256  LYS256      0.0271
     88  CG       -17.6990   -0.3370   24.8140 C.3   256  LYS256      0.0035
     89  CD       -17.1780   -0.1010   23.4060 C.3   256  LYS256      0.0206
     90  CE       -15.8150    0.6180   23.4780 C.3   256  LYS256      0.1093
     91  NZ       -15.7860    1.4710   22.2700 N.3   256  LYS256     -0.1314
     92  N        -17.4200    0.6970   15.1070 N.3   348  PHE348     -0.1241
     93  CA       -16.8510    1.5980   14.1210 C.3   348  PHE348      0.1605
     94  C        -17.1560    1.1880   12.6970 C.2   348  PHE348      0.2264
     95  O        -17.4680   -0.0000   12.4330 O.2   348  PHE348     -0.2867
     96  CB       -15.3230    1.7270   14.3040 C.3   348  PHE348      0.0534
     97  CG       -14.9290    2.0890   15.6770 C.ar  348  PHE348     -0.0203
     98  CD1      -14.9390    3.3810   16.0740 C.ar  348  PHE348     -0.0042
     99  CD2      -14.5820    1.0930   16.6120 C.ar  348  PHE348     -0.0042
    100  CE1      -14.6340    3.7350   17.3730 C.ar  348  PHE348     -0.0003
    101  CE2      -14.2870    1.4260   17.9200 C.ar  348  PHE348     -0.0003
    102  CZ       -14.2940    2.7690   18.3140 C.ar  348  PHE348     -0.0000
    103  N        -11.7690    6.7820   10.4340 N.3   391  ARG391     -0.1245
    104  CA       -12.5850    5.9320   11.2390 C.3   391  ARG391      0.1563
    105  C        -13.8260    6.7730   11.5810 C.2   391  ARG391      0.2260
    106  O        -13.7370    7.9380   11.8420 O.2   391  ARG391     -0.2867
    107  CB       -11.8100    5.5480   12.4750 C.3   391  ARG391      0.0307
    108  CG       -12.5800    4.6110   13.3810 C.3   391  ARG391      0.0489
    109  CD       -11.7820    4.3390   14.6120 C.3   391  ARG391      0.2205
    110  NE       -12.1500    5.3130   15.6150 N.pl3 391  ARG391     -0.0865
    111  CZ       -11.8180    5.2270   16.8930 C.cat 391  ARG391      0.5346
    112  NH1      -11.0140    4.2430   17.2820 N.pl3 391  ARG391      0.1354
    113  NH2      -12.2340    6.1560   17.7640 N.pl3 391  ARG391      0.1354
@<TRIPOS>BOND
     1   103   104    1
     2   104   105    1
     3   104   107    1
     4   105   106    2
     5    95    94    2
     6   107   108    1
     7    94    93    1
     8   108   109    1
     9    93    96    1
    10    93    92    1
    11    96    97    1
    12   109   110    1
    13    65    66    2
    14    65    64    1
    15   110   111    2
    16    97    98   ar
    17    97    99   ar
    18    64    63    1
    19    64    67    1
    20    98   100   ar
    21    69    68    2
    22    32    33    1
    23     7     5    1
    24    99   101   ar
    25     1     2    1
    26   111   112    1
    27   111   113    1
    28     2     5    1
    29     2     3    1
    30    67    68    1
    31   100   102   ar
    32    68    70   am
    33    33    34    1
    34    33    36    1
    35     5     6    1
    36   101   102   ar
    37    44    34   am
    38    44    45    1
    39    34    35    2
    40    48    45    1
    41    48    49    1
    42     3     4    2
    43     3     8   am
    44    45    46    1
    45    36    37    1
    46    51    49   ar
    47    49    50   ar
    48     8     9    1
    49    78    80   ar
    50    78    76   ar
    51    46    47    2
    52    46    52   am
    53    75    76    1
    54    75    72    1
    55    37    38   ar
    56    37    39   ar
    57    38    40   ar
    58    80    81   ar
    59    76    77   ar
    60    11    10    2
    61     9    10    1
    62     9    12    1
    63    10    19   am
    64    74    73    2
    65    19    20    1
    66    81    82    1
    67    81    79   ar
    68    77    79   ar
    69    20    21    1
    70    52    53    1
    71    39    41   ar
    72    40    42   ar
    73    73    72    1
    74    72    71    1
    75    12    13    1
    76    13    14    1
    77    21    23   am
    78    21    22    2
    79    53    54    1
    80    53    56    1
    81    41    42   ar
    82    42    43    1
    83    91    90    1
    84    54    55    2
    85    23    24    1
    86    26    25    2
    87    15    14    1
    88    15    16    2
    89    18    16    1
    90    16    17    1
    91    57    56    1
    92    57    58    1
    93    89    90    1
    94    89    88    1
    95    25    24    1
    96    24    27    1
    97    59    58    1
    98    59    60    2
    99    27    28    1
   100    28    29    1
   101    62    60    1
   102    60    61    1
   103    88    87    1
   104    87    84    1
   105    29    30    1
   106    30    31    1
   107    86    85    2
   108    84    85    1
   109    84    83    1
