@<TRIPOS>MOLECULE
tmp/5hxxA01.pdb
 95 92 0 0 0
SMALL
GASTEIGER

@<TRIPOS>ATOM
      1  N         -3.7480   -9.6050   61.1620 N.3    36  ARG36      -0.1231
      2  CA        -4.5920   -8.9960   60.1170 C.3    36  ARG36       0.1694
      3  C         -4.8450   -7.5090   60.3400 C.2    36  ARG36       0.2593
      4  O         -5.7570   -7.1490   61.1340 O.2    36  ARG36      -0.2718
      5  CB        -5.9290   -9.7850   60.0370 C.3    36  ARG36       0.0321
      6  CG        -5.7210  -11.2870   59.7410 C.3    36  ARG36       0.0489
      7  CD        -6.9650  -12.1530   60.0340 C.3    36  ARG36       0.2205
      8  NE        -7.2290  -12.2560   61.4700 N.pl3  36  ARG36      -0.0865
      9  CZ        -8.2490  -12.9110   62.0300 C.cat  36  ARG36       0.5346
     10  NH1       -9.1240  -13.5760   61.2590 N.pl3  36  ARG36       0.1354
     11  NH2       -8.3730  -12.9430   63.3720 N.pl3  36  ARG36       0.1354
     12  N         -4.1150   -6.6610   59.6090 N.am   37  GLY37      -0.1942
     13  CA        -4.2600   -5.2270   59.7130 C.3    37  GLY37       0.2014
     14  C         -5.4560   -4.6940   58.9630 C.2    37  GLY37       0.2638
     15  O         -5.3250   -3.8040   58.1500 O.2    37  GLY37      -0.2714
     16  N         -6.6230   -5.2890   59.1960 N.am   38  LYS38      -0.1977
     17  CA        -7.8260   -4.9500   58.4300 C.3    38  LYS38       0.1596
     18  C         -9.0350   -4.6600   59.2680 C.2    38  LYS38       0.2287
     19  O         -9.1210   -5.1170   60.3890 O.2    38  LYS38      -0.2864
     20  CB        -8.1570   -5.9890   57.3390 C.3    38  LYS38       0.0298
     21  CG        -8.1770   -7.4210   57.6960 C.3    38  LYS38       0.0038
     22  CD        -8.2700   -8.3740   56.4930 C.3    38  LYS38       0.0206
     23  CE        -9.0590   -9.6030   56.9340 C.3    38  LYS38       0.1093
     24  NZ        -9.0400  -10.8070   56.0540 N.3    38  LYS38      -0.1314
     25  N          6.3900   -0.3850   56.7250 N.3   139  TYR139     -0.1227
     26  CA         5.2940   -1.1400   56.1620 C.3   139  TYR139      0.1736
     27  C          5.8600   -2.1430   55.1550 C.2   139  TYR139      0.2595
     28  O          6.5240   -1.7180   54.1980 O.2   139  TYR139     -0.2718
     29  CB         4.3790   -0.1710   55.4220 C.3   139  TYR139      0.0548
     30  CG         3.1380   -0.7720   54.7860 C.ar  139  TYR139     -0.0200
     31  CD1        2.5200   -1.9200   55.2820 C.ar  139  TYR139     -0.0009
     32  CD2        2.5110   -0.1020   53.7380 C.ar  139  TYR139     -0.0009
     33  CE1        1.3290   -2.4390   54.7130 C.ar  139  TYR139      0.0417
     34  CE2        1.3170   -0.5790   53.1820 C.ar  139  TYR139      0.0417
     35  CZ         0.7490   -1.7630   53.6550 C.ar  139  TYR139      0.1957
     36  OH        -0.4170   -2.2490   53.0920 O.3   139  TYR139     -0.2866
     37  N          5.6470   -3.4360   55.3920 N.am  140  ASP140     -0.1960
     38  CA         6.1360   -4.4920   54.4950 C.3   140  ASP140      0.1840
     39  C          5.7850   -4.3230   53.0330 C.2   140  ASP140      0.2621
     40  O          6.6240   -4.6330   52.2230 O.2   140  ASP140     -0.2715
     41  CB         5.7960   -5.9170   54.9510 C.3   140  ASP140      0.1450
     42  CG         4.2900   -6.1980   55.0210 C.2   140  ASP140      0.3671
     43  OD1        3.4560   -5.2860   55.0360 O.co2 140  ASP140     -0.2456
     44  OD2        3.9620   -7.3840   55.1470 O.co2 140  ASP140     -0.2456
     45  N          4.5570   -3.8580   52.7090 N.am  141  ARG141     -0.1977
     46  CA         4.1520   -3.7010   51.3040 C.3   141  ARG141      0.1597
     47  C          4.9190   -2.5610   50.5680 C.2   141  ARG141      0.2287
     48  O          5.1500   -2.6830   49.3610 O.2   141  ARG141     -0.2864
     49  CB         2.6380   -3.5230   51.1930 C.3   141  ARG141      0.0334
     50  CG         1.9840   -4.8510   51.5610 C.3   141  ARG141      0.0492
     51  CD         0.5230   -4.8420   51.2550 C.3   141  ARG141      0.2205
     52  NE        -0.0870   -6.0600   51.7910 N.pl3 141  ARG141     -0.0865
     53  CZ        -0.2400   -7.2080   51.1450 C.cat 141  ARG141      0.5346
     54  NH1        0.1480   -7.3750   49.8770 N.pl3 141  ARG141      0.1354
     55  NH2       -0.8740   -8.2040   51.7840 N.pl3 141  ARG141      0.1354
     56  N          2.6390    3.0330   60.3370 N.3   188  ASN188     -0.1240
     57  CA         2.5390    1.6130   60.4360 C.3   188  ASN188      0.1653
     58  C          3.9930    1.1020   60.6490 C.2   188  ASN188      0.2266
     59  O          4.7700    1.1600   59.6800 O.2   188  ASN188     -0.2867
     60  CB         1.9440    1.0870   59.1130 C.3   188  ASN188      0.1155
     61  CG         1.9050   -0.4540   59.0260 C.2   188  ASN188      0.2627
     62  OD1        2.5120   -1.1740   59.8210 O.2   188  ASN188     -0.2716
     63  ND2        1.1610   -0.9650   58.0260 N.am  188  ASN188     -0.0877
     64  N         -3.1430    6.9280   57.2840 N.3   220  TYR220     -0.1241
     65  CA        -3.9440    7.0870   58.5140 C.3   220  TYR220      0.1605
     66  C         -4.2270    8.5510   58.8540 C.2   220  TYR220      0.2264
     67  O         -4.4030    8.9330   60.0190 O.2   220  TYR220     -0.2867
     68  CB        -3.2350    6.3580   59.6780 C.3   220  TYR220      0.0534
     69  CG        -2.9730    4.9380   59.3240 C.ar  220  TYR220     -0.0201
     70  CD1       -4.0060    4.0080   59.3710 C.ar  220  TYR220     -0.0009
     71  CD2       -1.7350    4.5070   58.8790 C.ar  220  TYR220     -0.0009
     72  CE1       -3.8120    2.6760   59.0370 C.ar  220  TYR220      0.0417
     73  CE2       -1.5290    3.1920   58.5020 C.ar  220  TYR220      0.0417
     74  CZ        -2.5840    2.2600   58.6100 C.ar  220  TYR220      0.1957
     75  OH        -2.4380    0.9780   58.1930 O.3   220  TYR220     -0.2866
     76  N         -9.5880    2.1530   54.8260 N.3   256  LYS256     -0.1245
     77  CA       -10.0000    1.9240   56.2210 C.3   256  LYS256      0.1561
     78  C        -11.0000    2.9910   56.6740 C.2   256  LYS256      0.2260
     79  O        -11.0940    3.3110   57.8680 O.2   256  LYS256     -0.2867
     80  CB        -8.7740    1.8900   57.1400 C.3   256  LYS256      0.0271
     81  CG        -7.8050    0.7710   56.6670 C.3   256  LYS256      0.0035
     82  CD        -6.5120    0.6950   57.4250 C.3   256  LYS256      0.0206
     83  CE        -5.6040   -0.3140   56.7580 C.3   256  LYS256      0.1093
     84  NZ        -4.9550   -1.1310   57.7910 N.3   256  LYS256     -0.1314
     85  N         -2.0270   -0.3790   64.4690 N.3   348  PHE348     -0.1241
     86  CA        -1.0280   -1.2880   65.0270 C.3   348  PHE348      0.1605
     87  C         -0.4590   -0.8360   66.3690 C.2   348  PHE348      0.2264
     88  O         -0.4640    0.3540   66.7160 O.2   348  PHE348     -0.2867
     89  CB         0.1210   -1.6000   64.0260 C.3   348  PHE348      0.0534
     90  CG        -0.3550   -2.0610   62.7030 C.ar  348  PHE348     -0.0203
     91  CD1       -0.6630   -3.3990   62.4690 C.ar  348  PHE348     -0.0042
     92  CD2       -0.5140   -1.1590   61.6650 C.ar  348  PHE348     -0.0042
     93  CE1       -1.1520   -3.7860   61.2150 C.ar  348  PHE348     -0.0003
     94  CE2       -0.9810   -1.5500   60.4200 C.ar  348  PHE348     -0.0003
     95  CZ        -1.3130   -2.8740   60.1980 C.ar  348  PHE348     -0.0000
@<TRIPOS>BOND
     1    48    47    2
     2    54    53    1
     3    47    46    1
     4    53    55    1
     5    53    52    2
     6    49    46    1
     7    49    50    1
     8    51    50    1
     9    51    52    1
    10    46    45    1
    11    40    39    2
    12    45    39   am
    13    39    38    1
    14    36    35    1
    15    34    35   ar
    16    34    32   ar
    17    35    33   ar
    18    32    30   ar
    19    28    27    2
    20    38    41    1
    21    38    37    1
    22    33    31   ar
    23    30    31   ar
    24    30    29    1
    25    76    77    1
    26    41    42    1
    27    42    43   ar
    28    42    44   ar
    29    27    37   am
    30    27    26    1
    31    29    26    1
    32    24    23    1
    33    26    25    1
    34    77    78    1
    35    77    80    1
    36    22    23    1
    37    22    21    1
    38    81    80    1
    39    81    82    1
    40    78    79    2
    41    83    82    1
    42    83    84    1
    43    64    65    1
    44    20    21    1
    45    20    17    1
    46    63    61   am
    47    15    14    2
    48    75    74    1
    49    17    16    1
    50    17    18    1
    51    73    74   ar
    52    73    71   ar
    53    65    66    1
    54    65    68    1
    55    74    72   ar
    56    66    67    2
    57    71    69   ar
    58    14    16   am
    59    14    13    1
    60    61    60    1
    61    61    62    2
    62    72    70   ar
    63    60    57    1
    64    18    19    2
    65    69    70   ar
    66    69    68    1
    67    12    13    1
    68    12     3   am
    69    59    58    2
    70     6     7    1
    71     6     5    1
    72     7     8    1
    73     5     2    1
    74     2     3    1
    75     2     1    1
    76    95    94   ar
    77    95    93   ar
    78    56    57    1
    79     3     4    2
    80    94    92   ar
    81    57    58    1
    82    93    91   ar
    83    10     9    1
    84     8     9    2
    85    92    90   ar
    86     9    11    1
    87    91    90   ar
    88    90    89    1
    89    89    86    1
    90    85    86    1
    91    86    87    1
    92    87    88    2
