@<TRIPOS>MOLECULE
tmp/5hxxA00.pdb
 125 116 0 0 0
SMALL
GASTEIGER

@<TRIPOS>ATOM
      1  N         -4.1150   -6.6610   59.6090 N.3    37  GLY37      -0.1225
      2  CA        -4.2600   -5.2270   59.7130 C.3    37  GLY37       0.1811
      3  C         -5.4560   -4.6940   58.9630 C.2    37  GLY37       0.2280
      4  O         -5.3250   -3.8040   58.1500 O.2    37  GLY37      -0.2866
      5  N         -9.1960    2.0150   43.6820 N.3    99  ALA99      -0.1231
      6  CA        -9.2870    1.6600   45.0760 C.3    99  ALA99       0.1694
      7  C         -7.9570    1.3870   45.7700 C.2    99  ALA99       0.2593
      8  O         -7.9650    0.9610   46.9340 O.2    99  ALA99      -0.2718
      9  CB       -10.1960    0.4650   45.2130 C.3    99  ALA99       0.0304
     10  N         -6.8030    1.6070   45.1200 N.am  100  SER100     -0.1938
     11  CA        -5.5740    1.3250   45.7850 C.3   100  SER100      0.2055
     12  C         -4.5220    2.3970   45.6120 C.2   100  SER100      0.2644
     13  O         -3.9980    2.5880   44.5100 O.2   100  SER100     -0.2714
     14  CB        -5.0210    0.0010   45.2930 C.3   100  SER100      0.2130
     15  OG        -3.7270   -0.3000   45.8440 O.3   100  SER100     -0.2179
     16  N         -4.1090    2.9850   46.7250 N.am  101  SER101     -0.1935
     17  CA        -3.0210    3.9370   46.6760 C.3   101  SER101      0.2055
     18  C         -1.6660    3.2070   46.4800 C.2   101  SER101      0.2642
     19  O         -0.7550    3.7310   45.8170 O.2   101  SER101     -0.2714
     20  CB        -3.1050    4.8480   47.9260 C.3   101  SER101      0.2130
     21  OG        -2.9110    4.1060   49.0870 O.3   101  SER101     -0.2179
     22  N         -1.5580    1.9490   46.9550 N.am  102  LEU102     -0.1977
     23  CA        -0.3710    1.1670   46.6570 C.3   102  LEU102      0.1596
     24  C         -0.1450    0.9940   45.1450 C.2   102  LEU102      0.2287
     25  O          0.9940    1.0860   44.7150 O.2   102  LEU102     -0.2864
     26  CB        -0.3710   -0.1820   47.3020 C.3   102  LEU102      0.0297
     27  CG        -0.0100   -0.2960   48.7820 C.3   102  LEU102      0.0022
     28  CD1       -0.3680   -1.7290   49.2300 C.3   102  LEU102      0.0001
     29  CD2        1.5000   -0.0360   48.9840 C.3   102  LEU102      0.0001
     30  N          1.4990    4.1700   43.9590 N.3   105  MET105     -0.1245
     31  CA         2.9020    4.1650   44.4110 C.3   105  MET105      0.1570
     32  C          3.8230    3.2850   43.5620 C.2   105  MET105      0.2261
     33  O          4.8760    3.6960   43.1340 O.2   105  MET105     -0.2867
     34  CB         2.9560    3.7370   45.8690 C.3   105  MET105      0.0387
     35  CG         2.4560    4.8370   46.8070 C.3   105  MET105      0.0595
     36  SD         2.3490    4.0910   48.4630 S.3   105  MET105     -0.1393
     37  CE         0.7800    4.6840   48.9060 C.3   105  MET105      0.0692
     38  N          6.3900   -0.3850   56.7250 N.3   139  TYR139     -0.1241
     39  CA         5.2940   -1.1400   56.1620 C.3   139  TYR139      0.1605
     40  C          5.8600   -2.1430   55.1550 C.2   139  TYR139      0.2264
     41  O          6.5240   -1.7180   54.1980 O.2   139  TYR139     -0.2867
     42  CB         4.3790   -0.1710   55.4220 C.3   139  TYR139      0.0534
     43  CG         3.1380   -0.7720   54.7860 C.ar  139  TYR139     -0.0201
     44  CD1        2.5200   -1.9200   55.2820 C.ar  139  TYR139     -0.0009
     45  CD2        2.5110   -0.1020   53.7380 C.ar  139  TYR139     -0.0009
     46  CE1        1.3290   -2.4390   54.7130 C.ar  139  TYR139      0.0417
     47  CE2        1.3170   -0.5790   53.1820 C.ar  139  TYR139      0.0417
     48  CZ         0.7490   -1.7630   53.6550 C.ar  139  TYR139      0.1957
     49  OH        -0.4170   -2.2490   53.0920 O.3   139  TYR139     -0.2866
     50  N          5.3490    6.7170   56.3430 N.3   183  VAL183     -0.1245
     51  CA         3.9490    6.8290   56.7070 C.3   183  VAL183      0.1561
     52  C          3.9730    7.8850   57.8280 C.2   183  VAL183      0.2260
     53  O          4.4150    7.5570   58.9140 O.2   183  VAL183     -0.2867
     54  CB         3.3340    5.5070   57.1800 C.3   183  VAL183      0.0252
     55  CG1        1.8450    5.6520   57.5060 C.3   183  VAL183      0.0019
     56  CG2        3.5390    4.4290   56.1300 C.3   183  VAL183      0.0019
     57  N          2.6390    3.0330   60.3370 N.3   188  ASN188     -0.1240
     58  CA         2.5390    1.6130   60.4360 C.3   188  ASN188      0.1653
     59  C          3.9930    1.1020   60.6490 C.2   188  ASN188      0.2266
     60  O          4.7700    1.1600   59.6800 O.2   188  ASN188     -0.2867
     61  CB         1.9440    1.0870   59.1130 C.3   188  ASN188      0.1155
     62  CG         1.9050   -0.4540   59.0260 C.2   188  ASN188      0.2627
     63  OD1        2.5120   -1.1740   59.8210 O.2   188  ASN188     -0.2716
     64  ND2        1.1610   -0.9650   58.0260 N.am  188  ASN188     -0.0877
     65  N          3.0540    8.6300   52.4350 N.3   217  ASP217     -0.1239
     66  CA         1.8440    7.7750   52.3730 C.3   217  ASP217      0.1674
     67  C          1.0680    7.9730   53.6330 C.2   217  ASP217      0.2266
     68  O          1.2220    7.2270   54.6600 O.2   217  ASP217     -0.2867
     69  CB         2.2160    6.3050   52.1850 C.3   217  ASP217      0.1410
     70  CG         1.0080    5.3810   52.1440 C.2   217  ASP217      0.3668
     71  OD1       -0.1350    5.9250   52.1030 O.co2 217  ASP217     -0.2456
     72  OD2        1.2630    4.1250   52.2230 O.co2 217  ASP217     -0.2456
     73  N         -1.6230    7.1760   54.9140 N.3   219  ALA219     -0.1231
     74  CA        -2.6470    6.1380   54.9900 C.3   219  ALA219      0.1694
     75  C         -3.5700    6.2500   56.2090 C.2   219  ALA219      0.2592
     76  O         -4.7130    5.7990   56.1140 O.2   219  ALA219     -0.2718
     77  CB        -2.0180    4.7550   54.9440 C.3   219  ALA219      0.0304
     78  N         -3.1430    6.9280   57.2840 N.am  220  TYR220     -0.1976
     79  CA        -3.9440    7.0870   58.5140 C.3   220  TYR220      0.1639
     80  C         -4.2270    8.5510   58.8540 C.2   220  TYR220      0.2290
     81  O         -4.4030    8.9330   60.0190 O.2   220  TYR220     -0.2864
     82  CB        -3.2350    6.3580   59.6780 C.3   220  TYR220      0.0560
     83  CG        -2.9730    4.9380   59.3240 C.ar  220  TYR220     -0.0198
     84  CD1       -4.0060    4.0080   59.3710 C.ar  220  TYR220     -0.0009
     85  CD2       -1.7350    4.5070   58.8790 C.ar  220  TYR220     -0.0009
     86  CE1       -3.8120    2.6760   59.0370 C.ar  220  TYR220      0.0417
     87  CE2       -1.5290    3.1920   58.5020 C.ar  220  TYR220      0.0417
     88  CZ        -2.5840    2.2600   58.6100 C.ar  220  TYR220      0.1957
     89  OH        -2.4380    0.9780   58.1930 O.3   220  TYR220     -0.2866
     90  N         -6.1040    7.1830   51.2140 N.3   253  SER253     -0.1217
     91  CA        -7.2340    6.4350   50.6670 C.3   253  SER253      0.1889
     92  C         -8.3340    6.2610   51.6870 C.2   253  SER253      0.2288
     93  O         -8.1970    6.6260   52.8760 O.2   253  SER253     -0.2866
     94  CB        -6.7670    5.0850   50.1800 C.3   253  SER253      0.2089
     95  OG        -6.7270    4.1490   51.1930 O.3   253  SER253     -0.2183
     96  N         -9.5760    3.1930   52.2650 N.3   255  SER255     -0.1202
     97  CA        -9.6530    1.7440   52.3910 C.3   255  SER255      0.2020
     98  C        -10.0330    1.3720   53.8330 C.2   255  SER255      0.2618
     99  O        -10.7410    0.3680   54.0130 O.2   255  SER255     -0.2717
    100  CB        -8.3360    1.0240   52.0530 C.3   255  SER255      0.2103
    101  OG        -8.0000    1.1180   50.6660 O.3   255  SER255     -0.2182
    102  N         -9.5880    2.1530   54.8260 N.am  256  LYS256     -0.1979
    103  CA       -10.0000    1.9240   56.2210 C.3   256  LYS256      0.1596
    104  C        -11.0000    2.9910   56.6740 C.2   256  LYS256      0.2287
    105  O        -11.0940    3.3110   57.8680 O.2   256  LYS256     -0.2864
    106  CB        -8.7740    1.8900   57.1400 C.3   256  LYS256      0.0298
    107  CG        -7.8050    0.7710   56.6670 C.3   256  LYS256      0.0038
    108  CD        -6.5120    0.6950   57.4250 C.3   256  LYS256      0.0206
    109  CE        -5.6040   -0.3140   56.7580 C.3   256  LYS256      0.1093
    110  NZ        -4.9550   -1.1310   57.7910 N.3   256  LYS256     -0.1314
    111  N        -10.1800   -2.2700   49.9710 N.3   261  GLY261     -0.1225
    112  CA       -10.1190   -2.8460   48.6010 C.3   261  GLY261      0.1811
    113  C        -11.0980   -2.3520   47.5540 C.2   261  GLY261      0.2280
    114  O        -10.9890   -2.7480   46.3860 O.2   261  GLY261     -0.2866
    115  N         -2.0270   -0.3790   64.4690 N.3   348  PHE348     -0.1241
    116  CA        -1.0280   -1.2880   65.0270 C.3   348  PHE348      0.1605
    117  C         -0.4590   -0.8360   66.3690 C.2   348  PHE348      0.2264
    118  O         -0.4640    0.3540   66.7160 O.2   348  PHE348     -0.2867
    119  CB         0.1210   -1.6000   64.0260 C.3   348  PHE348      0.0534
    120  CG        -0.3550   -2.0610   62.7030 C.ar  348  PHE348     -0.0203
    121  CD1       -0.6630   -3.3990   62.4690 C.ar  348  PHE348     -0.0042
    122  CD2       -0.5140   -1.1590   61.6650 C.ar  348  PHE348     -0.0042
    123  CE1       -1.1520   -3.7860   61.2150 C.ar  348  PHE348     -0.0003
    124  CE2       -0.9810   -1.5500   60.4200 C.ar  348  PHE348     -0.0003
    125  CZ        -1.3130   -2.8740   60.1980 C.ar  348  PHE348     -0.0000
@<TRIPOS>BOND
     1    33    32    2
     2    32    31    1
     3     5     6    1
     4    30    31    1
     5    31    34    1
     6    13    12    2
     7    25    24    2
     8     6     9    1
     9     6     7    1
    10    10     7   am
    11    10    11    1
    12    24    23    1
    13    14    11    1
    14    14    15    1
    15    12    11    1
    16    12    16   am
    17     7     8    2
    18    19    18    2
    19    34    35    1
    20   114   113    2
    21    18    17    1
    22    18    22   am
    23    23    22    1
    24    23    26    1
    25    17    16    1
    26    17    20    1
    27    35    36    1
    28    26    27    1
    29   113   112    1
    30    20    21    1
    31    36    37    1
    32   112   111    1
    33    27    29    1
    34    27    28    1
    35    94    91    1
    36    94    95    1
    37   101   100    1
    38    91    90    1
    39    91    92    1
    40    92    93    2
    41   100    97    1
    42    71    70   ar
    43    70    69    1
    44    70    72   ar
    45    69    66    1
    46    96    97    1
    47    66    65    1
    48    66    67    1
    49    97    98    1
    50    49    48    1
    51    47    48   ar
    52    47    45   ar
    53    67    68    2
    54    48    46   ar
    55    45    43   ar
    56    98    99    2
    57    98   102   am
    58    41    40    2
    59    46    44   ar
    60    43    44   ar
    61    43    42    1
    62   102   103    1
    63    73    74    1
    64    77    74    1
    65    74    75    1
    66    40    39    1
    67    42    39    1
    68    76    75    2
    69    56    54    1
    70    39    38    1
    71    75    78   am
    72   103   104    1
    73   103   106    1
    74    50    51    1
    75   107   106    1
    76   107   108    1
    77   104   105    2
    78    51    54    1
    79    51    52    1
    80   109   108    1
    81   109   110    1
    82    54    55    1
    83    78    79    1
    84    52    53    2
    85    64    62   am
    86     4     3    2
    87    89    88    1
    88    87    88   ar
    89    87    85   ar
    90    79    80    1
    91    79    82    1
    92    88    86   ar
    93    80    81    2
    94    85    83   ar
    95     3     2    1
    96    62    61    1
    97    62    63    2
    98    86    84   ar
    99    61    58    1
   100    83    84   ar
   101    83    82    1
   102     1     2    1
   103    60    59    2
   104   125   124   ar
   105   125   123   ar
   106    57    58    1
   107   124   122   ar
   108    58    59    1
   109   123   121   ar
   110   122   120   ar
   111   121   120   ar
   112   120   119    1
   113   119   116    1
   114   115   116    1
   115   116   117    1
   116   117   118    2
