@<TRIPOS>MOLECULE
tmp/5hy1A00.pdb
 89 83 0 0 0
SMALL
GASTEIGER

@<TRIPOS>ATOM
      1  N         73.7000   92.2080    5.6960 N.3    46  GLY46      -0.1225
      2  CA        74.9580   92.1160    6.4470 C.3    46  GLY46       0.1811
      3  C         76.1660   91.7120    5.6540 C.2    46  GLY46       0.2280
      4  O         77.2440   91.5750    6.2290 O.2    46  GLY46      -0.2866
      5  N         73.1800  100.1870    5.0960 N.3    53  ARG53      -0.1245
      6  CA        74.2160  100.9070    5.8320 C.3    53  ARG53       0.1563
      7  C         74.3620  102.3410    5.3210 C.2    53  ARG53       0.2260
      8  O         74.3680  103.2870    6.1240 O.2    53  ARG53      -0.2867
      9  CB        75.5520  100.1580    5.7620 C.3    53  ARG53       0.0307
     10  CG        75.4840   98.7170    6.2800 C.3    53  ARG53       0.0489
     11  CD        76.8530   98.0600    6.3150 C.3    53  ARG53       0.2205
     12  NE        77.3280   97.7250    4.9810 N.pl3  53  ARG53      -0.0865
     13  CZ        77.6020   96.4950    4.5490 C.cat  53  ARG53       0.5346
     14  NH1       77.4520   95.4490    5.3550 N.pl3  53  ARG53       0.1354
     15  NH2       78.0230   96.3070    3.3050 N.pl3  53  ARG53       0.1354
     16  N         77.9700  101.1370   10.8250 N.3    82  TRP82      -0.1227
     17  CA        76.7110  100.4120   10.6960 C.3    82  TRP82       0.1737
     18  C         77.0110   98.9540   10.4360 C.2    82  TRP82       0.2596
     19  O         77.6650   98.6170    9.4700 O.2    82  TRP82      -0.2718
     20  CB        75.8670  100.9650    9.5530 C.3    82  TRP82       0.0564
     21  CG        75.4880  102.3810    9.6860 C.ar   82  TRP82       0.0003
     22  CD1       76.0000  103.4090    8.9920 C.ar   82  TRP82       0.0946
     23  CD2       74.5230  102.9130   10.5640 C.ar   82  TRP82       0.0152
     24  NE1       75.4070  104.5640    9.3860 N.ar   82  TRP82      -0.2442
     25  CE2       74.4850  104.2850   10.3450 C.ar   82  TRP82       0.0810
     26  CE3       73.6840  102.3640   11.5140 C.ar   82  TRP82       0.0012
     27  CZ2       73.6620  105.1030   11.0200 C.ar   82  TRP82       0.0191
     28  CZ3       72.8620  103.1940   12.2090 C.ar   82  TRP82       0.0001
     29  CH2       72.8620  104.5530   11.9680 C.ar   82  TRP82       0.0015
     30  N         76.5950   98.1060   11.3480 N.am   83  SER83      -0.1938
     31  CA        76.7500   96.6700   11.1780 C.3    83  SER83       0.2055
     32  C         75.4210   96.1540   10.6380 C.2    83  SER83       0.2643
     33  O         74.4270   96.0580   11.3490 O.2    83  SER83      -0.2714
     34  CB        77.0890   96.0010   12.5230 C.3    83  SER83       0.2130
     35  OG        77.0320   94.5930   12.4250 O.3    83  SER83      -0.2179
     36  N         75.4090   95.8200    9.3680 N.am   84  GLY84      -0.1954
     37  CA        74.2290   95.2580    8.7360 C.3    84  GLY84       0.1869
     38  C         73.9290   93.8540    9.1820 C.2    84  GLY84       0.2309
     39  O         74.7730   93.1640    9.7750 O.2    84  GLY84      -0.2863
     40  N         85.7730   90.4230    3.7090 N.3   190  MET190     -0.1245
     41  CA        85.1360   90.9360    4.9110 C.3   190  MET190      0.1570
     42  C         85.7190   90.2890    6.1720 C.2   190  MET190      0.2261
     43  O         86.1350   90.9890    7.0950 O.2   190  MET190     -0.2867
     44  CB        83.6260   90.7050    4.8490 C.3   190  MET190      0.0387
     45  CG        82.8800   91.0370    6.1390 C.3   190  MET190      0.0595
     46  SD        81.1210   90.6510    6.0700 S.3   190  MET190     -0.1393
     47  CE        80.7140   91.4510    4.5020 C.3   190  MET190      0.0692
     48  N         88.4200   92.3210    8.9010 N.3   194  ASN194     -0.1240
     49  CA        88.1480   92.3730   10.3330 C.3   194  ASN194      0.1653
     50  C         89.2240   91.6400   11.1320 C.2   194  ASN194      0.2266
     51  O         89.6100   92.0890   12.2070 O.2   194  ASN194     -0.2867
     52  CB        86.7720   91.7800   10.6410 C.3   194  ASN194      0.1155
     53  CG        85.6590   92.4450    9.8680 C.2   194  ASN194      0.2627
     54  OD1       85.8110   93.5650    9.3870 O.2   194  ASN194     -0.2716
     55  ND2       84.5390   91.7670    9.7570 N.am  194  ASN194     -0.0877
     56  N         84.3710   95.5430   11.8960 N.3   230  SER230     -0.1202
     57  CA        83.4010   95.4820   10.8450 C.3   230  SER230      0.2020
     58  C         83.9670   95.9830    9.5540 C.2   230  SER230      0.2619
     59  O         84.8770   96.7610    9.5260 O.2   230  SER230     -0.2717
     60  CB        82.2420   96.4200   11.1660 C.3   230  SER230      0.2103
     61  OG        81.0130   95.7380   11.0660 O.3   230  SER230     -0.2182
     62  N         83.3470   95.5500    8.4680 N.am  231  SER231     -0.1951
     63  CA        83.6630   96.0510    7.1660 C.3   231  SER231      0.1924
     64  C         82.3830   95.9930    6.3150 C.2   231  SER231      0.2314
     65  O         81.3830   95.3670    6.7300 O.2   231  SER231     -0.2863
     66  CB        84.7870   95.2410    6.5440 C.3   231  SER231      0.2116
     67  OG        84.5920   93.8470    6.7070 O.3   231  SER231     -0.2180
     68  N         74.5590   84.6720   13.5160 N.3   326  LYS326     -0.1245
     69  CA        74.1110   85.9810   13.9400 C.3   326  LYS326      0.1561
     70  C         72.6890   85.8980   14.5580 C.2   326  LYS326      0.2260
     71  O         72.4380   86.4550   15.6280 O.2   326  LYS326     -0.2867
     72  CB        74.1250   86.9580   12.7810 C.3   326  LYS326      0.0271
     73  CG        73.6700   88.3640   13.1650 C.3   326  LYS326      0.0035
     74  CD        73.7200   89.3110   11.9940 C.3   326  LYS326      0.0206
     75  CE        75.1240   89.5830   11.5460 C.3   326  LYS326      0.1093
     76  NZ        75.1600   90.2890   10.2630 N.3   326  LYS326     -0.1314
     77  N         77.3400   91.3140   16.1360 N.3   345  SER345     -0.1202
     78  CA        78.0840   91.3900   14.9010 C.3   345  SER345      0.2020
     79  C         78.7700   90.0460   14.6510 C.2   345  SER345      0.2618
     80  O         79.2430   89.3910   15.5760 O.2   345  SER345     -0.2717
     81  CB        79.1450   92.5180   14.9710 C.3   345  SER345      0.2103
     82  OG        79.9760   92.5300   13.8270 O.3   345  SER345     -0.2182
     83  N         78.8260   89.6590   13.3920 N.am  346  VAL346     -0.1979
     84  CA        79.4370   88.3920   12.9830 C.3   346  VAL346      0.1595
     85  C         80.7700   88.6810   12.2770 C.2   346  VAL346      0.2287
     86  O         81.0640   89.8320   11.9170 O.2   346  VAL346     -0.2864
     87  CB        78.4790   87.5830   12.0930 C.3   346  VAL346      0.0276
     88  CG1       78.4620   88.1120   10.6910 C.3   346  VAL346      0.0022
     89  CG2       78.8320   86.1150   12.1170 C.3   346  VAL346      0.0022
@<TRIPOS>BOND
     1    15    13    1
     2    40    41    1
     3    47    46    1
     4    13    12    2
     5    13    14    1
     6    44    41    1
     7    44    45    1
     8    41    42    1
     9    12    11    1
    10     5     6    1
    11     7     6    1
    12     7     8    2
    13     3     4    2
    14     3     2    1
    15     1     2    1
    16     9     6    1
    17     9    10    1
    18    46    45    1
    19    42    43    2
    20    10    11    1
    21    64    65    2
    22    64    63    1
    23    66    67    1
    24    66    63    1
    25    63    62    1
    26    62    58   am
    27    37    38    1
    28    37    36    1
    29    48    49    1
    30    22    24   ar
    31    22    21   ar
    32    38    39    2
    33    36    32   am
    34    24    25   ar
    35    54    53    2
    36    19    18    2
    37    59    58    2
    38    20    21    1
    39    20    17    1
    40    58    57    1
    41    21    23   ar
    42    55    53   am
    43    53    52    1
    44    76    75    1
    45    49    52    1
    46    49    50    1
    47    25    23   ar
    48    25    27   ar
    49    18    17    1
    50    18    30   am
    51    23    26   ar
    52    32    31    1
    53    32    33    2
    54    88    87    1
    55    17    16    1
    56    57    60    1
    57    57    56    1
    58    27    29   ar
    59    61    60    1
    60    50    51    2
    61    31    30    1
    62    31    34    1
    63    26    28   ar
    64    75    74    1
    65    86    85    2
    66    29    28   ar
    67    74    73    1
    68    87    89    1
    69    87    84    1
    70    85    84    1
    71    35    34    1
    72    72    73    1
    73    72    69    1
    74    84    83    1
    75    83    79   am
    76    68    69    1
    77    82    81    1
    78    69    70    1
    79    70    71    2
    80    79    78    1
    81    79    80    2
    82    78    81    1
    83    78    77    1
