@<TRIPOS>MOLECULE
tmp/5hyhA00.pdb
 72 66 0 0 0
SMALL
GASTEIGER

@<TRIPOS>ATOM
      1  N         39.1280   31.5090  173.8720 N.3   163  ILE163     -0.1231
      2  CA        39.7110   30.1880  173.9070 C.3   163  ILE163      0.1692
      3  C         39.9450   29.6750  172.4820 C.2   163  ILE163      0.2592
      4  O         40.7670   28.7830  172.2630 O.2   163  ILE163     -0.2718
      5  CB        38.8330   29.2710  174.7670 C.3   163  ILE163      0.0266
      6  CG1       38.9900   29.7140  176.2360 C.3   163  ILE163      0.0019
      7  CG2       39.2000   27.8170  174.5900 C.3   163  ILE163      0.0020
      8  CD1       38.2230   28.9080  177.2480 C.3   163  ILE163      0.0001
      9  N         39.2370   30.2590  171.5190 N.am  164  SER164     -0.1952
     10  CA        39.3300   29.8380  170.1360 C.3   164  SER164      0.1924
     11  C         40.0980   30.8220  169.2560 C.2   164  SER164      0.2314
     12  O         40.3680   30.5170  168.1080 O.2   164  SER164     -0.2863
     13  CB        37.9310   29.6250  169.5410 C.3   164  SER164      0.2116
     14  OG        37.0740   28.9110  170.4090 O.3   164  SER164     -0.2180
     15  N         43.1590   31.8340  169.1540 N.3   166  ASN166     -0.1225
     16  CA        44.4810   31.3390  168.7690 C.3   166  ASN166      0.1785
     17  C         44.3880   30.6020  167.4420 C.2   166  ASN166      0.2597
     18  O         45.1790   30.8540  166.5340 O.2   166  ASN166     -0.2718
     19  CB        45.0890   30.4170  169.8340 C.3   166  ASN166      0.1169
     20  CG        45.6650   31.1630  171.0300 C.2   166  ASN166      0.2627
     21  OD1       45.3720   30.8140  172.1660 O.2   166  ASN166     -0.2716
     22  ND2       46.5000   32.1740  170.7860 N.am  166  ASN166     -0.0877
     23  N         43.3980   29.7230  167.3200 N.am  167  ALA167     -0.1979
     24  CA        43.1860   28.9630  166.0960 C.3   167  ALA167      0.1597
     25  C         42.7560   29.8580  164.9200 C.2   167  ALA167      0.2287
     26  O         43.0310   29.5430  163.7650 O.2   167  ALA167     -0.2864
     27  CB        42.1430   27.8730  166.3140 C.3   167  ALA167      0.0319
     28  N         46.1090   31.6320  164.0530 N.3   170  ASP170     -0.1239
     29  CA        46.9600   30.6220  163.4210 C.3   170  ASP170      0.1674
     30  C         46.8170   30.5770  161.8960 C.2   170  ASP170      0.2266
     31  O         47.7860   30.3050  161.1960 O.2   170  ASP170     -0.2867
     32  CB        46.6260   29.2180  163.9250 C.3   170  ASP170      0.1410
     33  CG        47.1500   28.9300  165.3320 C.2   170  ASP170      0.3668
     34  OD1       48.0470   29.6190  165.8720 O.co2 170  ASP170     -0.2456
     35  OD2       46.6490   27.9420  165.8800 O.co2 170  ASP170     -0.2456
     36  N         47.3040   33.4410  174.0870 N.3   194  TYR194     -0.1241
     37  CA        47.6310   32.2220  174.8180 C.3   194  TYR194      0.1605
     38  C         47.3110   32.3990  176.3060 C.2   194  TYR194      0.2264
     39  O         46.7080   31.5250  176.9370 O.2   194  TYR194     -0.2867
     40  CB        49.1160   31.8720  174.6650 C.3   194  TYR194      0.0534
     41  CG        49.5310   31.5060  173.2540 C.ar  194  TYR194     -0.0201
     42  CD1       48.9150   30.4580  172.5780 C.ar  194  TYR194     -0.0009
     43  CD2       50.5590   32.1980  172.5990 C.ar  194  TYR194     -0.0009
     44  CE1       49.3010   30.1140  171.2850 C.ar  194  TYR194      0.0417
     45  CE2       50.9460   31.8630  171.3070 C.ar  194  TYR194      0.0417
     46  CZ        50.3130   30.8200  170.6570 C.ar  194  TYR194      0.1957
     47  OH        50.6890   30.4870  169.3750 O.3   194  TYR194     -0.2866
     48  N         40.3770   24.0480  163.9840 N.3   269  ASP269     -0.1239
     49  CA        40.9720   23.6900  165.2810 C.3   269  ASP269      0.1674
     50  C         40.0960   24.1800  166.4490 C.2   269  ASP269      0.2266
     51  O         40.1590   25.3660  166.8530 O.2   269  ASP269     -0.2867
     52  CB        42.3880   24.2450  165.3830 C.3   269  ASP269      0.1410
     53  CG        43.0250   24.0360  166.7540 C.2   269  ASP269      0.3668
     54  OD1       42.5860   23.1830  167.5460 O.co2 269  ASP269     -0.2456
     55  OD2       43.9880   24.7510  167.0430 O.co2 269  ASP269     -0.2456
     56  N         40.3040   22.7530  169.4660 N.3   271  SER271     -0.1202
     57  CA        40.9210   22.0910  170.6060 C.3   271  SER271      0.2020
     58  C         40.8000   22.9160  171.8840 C.2   271  SER271      0.2619
     59  O         40.8280   22.3530  172.9690 O.2   271  SER271     -0.2717
     60  CB        42.3960   21.7960  170.3270 C.3   271  SER271      0.2103
     61  OG        43.1300   22.9760  170.1560 O.3   271  SER271     -0.2182
     62  N         40.6610   24.2420  171.7600 N.am  272  GLY272     -0.1956
     63  CA        40.5270   25.0960  172.9330 C.3   272  GLY272      0.1869
     64  C         39.2760   24.7420  173.7110 C.2   272  GLY272      0.2309
     65  O         39.3430   24.3480  174.8810 O.2   272  GLY272     -0.2863
     66  N         38.9210   20.9650  174.8880 N.3   275  THR275     -0.1218
     67  CA        39.7050   20.7150  176.0740 C.3   275  THR275      0.1862
     68  C         39.0960   21.3290  177.3240 C.2   275  THR275      0.2287
     69  O         39.0980   20.6860  178.3700 O.2   275  THR275     -0.2866
     70  CB        41.1520   21.2130  175.8810 C.3   275  THR275      0.1770
     71  OG1       41.7550   20.4730  174.8090 O.3   275  THR275     -0.2211
     72  CG2       41.9770   21.0430  177.1560 C.3   275  THR275      0.0375
@<TRIPOS>BOND
     1    31    30    2
     2    30    29    1
     3    29    32    1
     4    29    28    1
     5    26    25    2
     6    32    33    1
     7    48    49    1
     8    25    24    1
     9    49    52    1
    10    49    50    1
    11    33    34   ar
    12    33    35   ar
    13    52    53    1
    14    24    27    1
    15    24    23    1
    16    50    51    2
    17    18    17    2
    18    53    55   ar
    19    53    54   ar
    20    23    17   am
    21    17    16    1
    22    12    11    2
    23    16    15    1
    24    16    19    1
    25    11    10    1
    26    47    46    1
    27    56    57    1
    28    13    10    1
    29    13    14    1
    30    19    20    1
    31    10     9    1
    32    61    60    1
    33    60    57    1
    34    57    58    1
    35    46    44   ar
    36    46    45   ar
    37    22    20   am
    38    20    21    2
    39    44    42   ar
    40    45    43   ar
    41     9     3   am
    42    62    58   am
    43    62    63    1
    44    58    59    2
    45     4     3    2
    46     3     2    1
    47    42    41   ar
    48    43    41   ar
    49    63    64    1
    50    41    40    1
    51    64    65    2
    52     1     2    1
    53     2     5    1
    54    36    37    1
    55     7     5    1
    56    40    37    1
    57     5     6    1
    58    71    70    1
    59    37    38    1
    60    66    67    1
    61    70    67    1
    62    70    72    1
    63    67    68    1
    64     6     8    1
    65    38    39    2
    66    68    69    2
