@<TRIPOS>MOLECULE
tmp/5hykA00.pdb
 196 187 0 0 0
SMALL
GASTEIGER

@<TRIPOS>ATOM
      1  N         15.2890   35.8730   12.6140 N.3    57  VAL57      -0.1245
      2  CA        14.0710   35.1030   12.4280 C.3    57  VAL57       0.1561
      3  C         14.3800   33.6170   12.4050 C.2    57  VAL57       0.2260
      4  O         13.6560   32.8240   13.0000 O.2    57  VAL57      -0.2867
      5  CB        13.3430   35.4940   11.1400 C.3    57  VAL57       0.0252
      6  CG1       12.1790   34.5460   10.8870 C.3    57  VAL57       0.0019
      7  CG2       12.8730   36.9280   11.2340 C.3    57  VAL57       0.0019
      8  N         14.9470   32.3930   16.1580 N.3    60  PHE60      -0.1227
      9  CA        13.7750   32.2250   17.0010 C.3    60  PHE60       0.1736
     10  C         12.6550   31.4160   16.3600 C.2    60  PHE60       0.2595
     11  O         11.7140   31.0290   17.0450 O.2    60  PHE60      -0.2718
     12  CB        13.2720   33.5870   17.4550 C.3    60  PHE60       0.0547
     13  CG        14.0940   34.1570   18.5710 C.ar   60  PHE60      -0.0202
     14  CD1       13.8620   33.7660   19.8860 C.ar   60  PHE60      -0.0042
     15  CD2       15.1450   35.0230   18.3050 C.ar   60  PHE60      -0.0042
     16  CE1       14.6370   34.2610   20.9210 C.ar   60  PHE60      -0.0003
     17  CE2       15.9260   35.5250   19.3370 C.ar   60  PHE60      -0.0003
     18  CZ        15.6720   35.1410   20.6460 C.ar   60  PHE60      -0.0000
     19  N         12.7560   31.1350   15.0640 N.am   61  HIS61      -0.1975
     20  CA        11.8810   30.1200   14.4900 C.3    61  HIS61       0.1656
     21  C         12.3090   28.7760   15.0520 C.2    61  HIS61       0.2291
     22  O         11.4810   27.9650   15.4810 O.2    61  HIS61      -0.2864
     23  CB        11.9310   30.1060   12.9560 C.3    61  HIS61       0.0771
     24  CG        11.1220   29.0010   12.3410 C.ar   61  HIS61       0.0820
     25  ND1        9.7950   29.1480   12.0100 N.ar   61  HIS61      -0.2267
     26  CD2       11.4580   27.7310   12.0090 C.ar   61  HIS61       0.1154
     27  CE1        9.3430   28.0130   11.4970 C.ar   61  HIS61       0.1986
     28  NE2       10.3320   27.1400   11.4860 N.ar   61  HIS61      -0.2212
     29  N         13.8100   28.3790   17.7850 N.3    63  CYS63      -0.1221
     30  CA        13.4910   28.3840   19.2070 C.3    63  CYS63       0.1808
     31  C         12.0140   28.1100   19.4570 C.2    63  CYS63       0.2601
     32  O         11.6750   27.4170   20.4140 O.2    63  CYS63      -0.2717
     33  CB        13.8910   29.7120   19.8490 C.3    63  CYS63       0.0970
     34  SG        15.6740   29.8570   20.1630 S.3    63  CYS63      -0.0800
     35  N         11.1240   28.6370   18.6210 N.am   64  GLN64      -0.1979
     36  CA         9.6990   28.4420   18.9010 C.3    64  GLN64       0.1601
     37  C          9.3020   27.0070   18.5460 C.2    64  GLN64       0.2287
     38  O          8.3580   26.4530   19.1210 O.2    64  GLN64      -0.2864
     39  CB         8.8180   29.4650   18.1600 C.3    64  GLN64       0.0394
     40  CG         8.7040   29.2780   16.6510 C.3    64  GLN64       0.0908
     41  CD         7.7940   30.3210   15.9850 C.2    64  GLN64       0.2608
     42  OE1        7.0140   31.0070   16.6480 O.2    64  GLN64      -0.2717
     43  NE2        7.9170   30.4540   14.6680 N.am   64  GLN64      -0.0878
     44  N          9.9160   25.1310   21.6220 N.3    67  SER67      -0.1217
     45  CA         8.8640   25.3980   22.6030 C.3    67  SER67       0.1889
     46  C          7.6360   24.5650   22.2990 C.2    67  SER67       0.2288
     47  O          7.0290   23.9920   23.2000 O.2    67  SER67      -0.2866
     48  CB         8.4810   26.8700   22.6250 C.3    67  SER67       0.2089
     49  OG         9.5570   27.6750   23.0690 O.3    67  SER67      -0.2183
     50  N          3.7860   27.6410   29.5070 N.3   101  TYR101     -0.1241
     51  CA         4.9820   28.4770   29.4000 C.3   101  TYR101      0.1605
     52  C          5.6630   28.7590   30.7450 C.2   101  TYR101      0.2264
     53  O          6.8840   28.9270   30.7860 O.2   101  TYR101     -0.2867
     54  CB         4.6670   29.7750   28.6700 C.3   101  TYR101      0.0534
     55  CG         5.0080   29.6210   27.2100 C.ar  101  TYR101     -0.0201
     56  CD1        6.3220   29.7080   26.7770 C.ar  101  TYR101     -0.0009
     57  CD2        4.0300   29.3250   26.2760 C.ar  101  TYR101     -0.0009
     58  CE1        6.6570   29.5310   25.4500 C.ar  101  TYR101      0.0417
     59  CE2        4.3510   29.1550   24.9430 C.ar  101  TYR101      0.0417
     60  CZ         5.6670   29.2580   24.5320 C.ar  101  TYR101      0.1957
     61  OH         6.0050   29.0960   23.2010 O.3   101  TYR101     -0.2866
     62  N          7.6740   25.7430   30.8500 N.3   104  ILE104     -0.1231
     63  CA         8.7300   25.7740   29.8420 C.3   104  ILE104      0.1692
     64  C          9.9460   26.5420   30.3650 C.2   104  ILE104      0.2592
     65  O         11.0770   26.0610   30.2770 O.2   104  ILE104     -0.2718
     66  CB         8.2290   26.4010   28.5270 C.3   104  ILE104      0.0266
     67  CG1        7.3960   25.3730   27.7500 C.3   104  ILE104      0.0019
     68  CG2        9.4020   26.7900   27.6250 C.3   104  ILE104      0.0020
     69  CD1        6.7210   25.9360   26.5140 C.3   104  ILE104      0.0001
     70  N          9.7050   27.7240   30.9160 N.am  105  PHE105     -0.1976
     71  CA        10.8040   28.5590   31.3720 C.3   105  PHE105      0.1639
     72  C         11.4670   27.9840   32.6200 C.2   105  PHE105      0.2290
     73  O         12.6780   28.1380   32.8140 O.2   105  PHE105     -0.2864
     74  CB        10.3140   29.9700   31.6260 C.3   105  PHE105      0.0560
     75  CG         9.9140   30.6930   30.3590 C.ar  105  PHE105     -0.0200
     76  CD1       10.5780   30.4300   29.1740 C.ar  105  PHE105     -0.0042
     77  CD2        8.8850   31.6120   30.3590 C.ar  105  PHE105     -0.0042
     78  CE1       10.2180   31.0850   28.0040 C.ar  105  PHE105     -0.0003
     79  CE2        8.5260   32.2780   29.1860 C.ar  105  PHE105     -0.0003
     80  CZ         9.1920   32.0050   28.0240 C.ar  105  PHE105     -0.0000
     81  N         13.5800   25.2850   31.1140 N.3   108  LEU108     -0.1245
     82  CA        14.6030   25.8430   30.2290 C.3   108  LEU108      0.1561
     83  C         15.8920   26.0570   30.9990 C.2   108  LEU108      0.2260
     84  O         16.9900   25.9600   30.4510 O.2   108  LEU108     -0.2867
     85  CB        14.1230   27.1600   29.6230 C.3   108  LEU108      0.0270
     86  CG        14.8140   27.6090   28.3340 C.3   108  LEU108      0.0019
     87  CD1       14.8400   26.4720   27.3350 C.3   108  LEU108      0.0001
     88  CD2       14.1010   28.8160   27.7490 C.3   108  LEU108      0.0001
     89  N         15.0300   41.3510   19.1780 N.3   138  PHE138     -0.1241
     90  CA        15.3320   39.9330   19.3540 C.3   138  PHE138      0.1605
     91  C         16.3880   39.6810   20.4300 C.2   138  PHE138      0.2264
     92  O         16.4540   38.5890   20.9950 O.2   138  PHE138     -0.2867
     93  CB        15.7950   39.3240   18.0310 C.3   138  PHE138      0.0534
     94  CG        14.7590   39.3740   16.9460 C.ar  138  PHE138     -0.0203
     95  CD1       13.8670   38.3240   16.7700 C.ar  138  PHE138     -0.0042
     96  CD2       14.6750   40.4680   16.0950 C.ar  138  PHE138     -0.0042
     97  CE1       12.9110   38.3650   15.7680 C.ar  138  PHE138     -0.0003
     98  CE2       13.7210   40.5130   15.0880 C.ar  138  PHE138     -0.0003
     99  CZ        12.8390   39.4600   14.9260 C.ar  138  PHE138     -0.0000
    100  N         14.8600   38.9750   24.0220 N.3   141  ILE141     -0.1231
    101  CA        13.9350   37.8650   24.2510 C.3   141  ILE141      0.1692
    102  C         14.4720   36.8910   25.3090 C.2   141  ILE141      0.2591
    103  O         13.7940   36.5920   26.2950 O.2   141  ILE141     -0.2718
    104  CB        13.6300   37.0950   22.9460 C.3   141  ILE141      0.0266
    105  CG1       13.2130   38.0530   21.8400 C.3   141  ILE141      0.0019
    106  CG2       12.4880   36.1310   23.1490 C.3   141  ILE141      0.0020
    107  CD1       12.9610   37.3540   20.5200 C.3   141  ILE141      0.0001
    108  N         15.6930   36.4090   25.1190 N.am  142  MET142     -0.1979
    109  CA        16.2020   35.3490   25.9800 C.3   142  MET142      0.1605
    110  C         16.8880   35.8380   27.2580 C.2   142  MET142      0.2287
    111  O         17.0490   35.0700   28.2170 O.2   142  MET142     -0.2864
    112  CB        17.1600   34.4690   25.1850 C.3   142  MET142      0.0413
    113  CG        16.4640   33.6420   24.1090 C.3   142  MET142      0.0598
    114  SD        15.2620   32.4970   24.8360 S.3   142  MET142     -0.1393
    115  CE        13.7420   33.4040   24.6900 C.3   142  MET142      0.0692
    116  N          6.9180   38.1480   28.6620 N.3   227  HIS227     -0.1241
    117  CA         7.2980   37.5180   27.4080 C.3   227  HIS227      0.1621
    118  C          6.1960   37.6570   26.3690 C.2   227  HIS227      0.2264
    119  O          6.4650   37.8000   25.1720 O.2   227  HIS227     -0.2867
    120  CB         7.6100   36.0470   27.6190 C.3   227  HIS227      0.0745
    121  CG         7.9890   35.3340   26.3660 C.ar  227  HIS227      0.0817
    122  ND1        9.2160   35.4960   25.7620 N.ar  227  HIS227     -0.2268
    123  CD2        7.3040   34.4540   25.5980 C.ar  227  HIS227      0.1154
    124  CE1        9.2750   34.7420   24.6800 C.ar  227  HIS227      0.1986
    125  NE2        8.1290   34.0960   24.5610 N.ar  227  HIS227     -0.2212
    126  N          6.7550   39.3480   22.7010 N.3   231  VAL231     -0.1245
    127  CA         6.3450   38.5740   21.5340 C.3   231  VAL231      0.1561
    128  C          5.3840   39.3850   20.6690 C.2   231  VAL231      0.2260
    129  O          5.5290   39.4270   19.4430 O.2   231  VAL231     -0.2867
    130  CB         5.6870   37.2380   21.9360 C.3   231  VAL231      0.0252
    131  CG1        4.8470   36.6790   20.7820 C.3   231  VAL231      0.0019
    132  CG2        6.7550   36.2420   22.3480 C.3   231  VAL231      0.0019
    133  N          7.1240   42.1180   18.5980 N.3   234  ILE234     -0.1231
    134  CA         7.8740   41.6010   17.4580 C.3   234  ILE234      0.1692
    135  C          6.9490   41.2370   16.2890 C.2   234  ILE234      0.2591
    136  O          7.3470   41.3300   15.1340 O.2   234  ILE234     -0.2718
    137  CB         8.7260   40.3840   17.8520 C.3   234  ILE234      0.0266
    138  CG1        9.6030   40.7380   19.0510 C.3   234  ILE234      0.0019
    139  CG2        9.6010   39.9270   16.6880 C.3   234  ILE234      0.0020
    140  CD1       10.5410   39.6440   19.4670 C.3   234  ILE234      0.0001
    141  N          5.7110   40.8460   16.5880 N.am  235  LYS235     -0.1980
    142  CA         4.7440   40.5310   15.5390 C.3   235  LYS235      0.1596
    143  C          4.3350   41.8040   14.8140 C.2   235  LYS235      0.2287
    144  O          4.1090   41.7980   13.5980 O.2   235  LYS235     -0.2864
    145  CB         3.5130   39.8240   16.1160 C.3   235  LYS235      0.0298
    146  CG         2.5150   39.3790   15.0480 C.3   235  LYS235      0.0038
    147  CD         1.1930   38.8890   15.6380 C.3   235  LYS235      0.0206
    148  CE         0.4260   38.0410   14.6270 C.3   235  LYS235      0.1093
    149  NZ         0.8660   36.6150   14.6620 N.3   235  LYS235     -0.1314
    150  N          7.7380   43.3620   13.0760 N.3   238  GLU238     -0.1245
    151  CA         8.4570   42.4060   12.2490 C.3   238  GLU238      0.1567
    152  C          7.5130   41.3410   11.6840 C.2   238  GLU238      0.2260
    153  O          6.8330   40.6360   12.4300 O.2   238  GLU238     -0.2867
    154  CB         9.5910   41.7770   13.0740 C.3   238  GLU238      0.0388
    155  CG         9.9680   40.3570   12.7030 C.3   238  GLU238      0.1160
    156  CD        10.7880   40.2820   11.4370 C.2   238  GLU238      0.3649
    157  OE1       11.4460   41.2870   11.0870 O.co2 238  GLU238     -0.2457
    158  OE2       10.7760   39.2110   10.7960 O.co2 238  GLU238     -0.2457
    159  N          8.8430   37.5370    9.1880 N.3   241  ALA241     -0.1231
    160  CA         8.6860   36.2490    9.8440 C.3   241  ALA241      0.1694
    161  C          7.2350   35.7890    9.9800 C.2   241  ALA241      0.2592
    162  O          6.3290   36.2930    9.3060 O.2   241  ALA241     -0.2718
    163  CB         9.3150   36.3140   11.2140 C.3   241  ALA241      0.0304
    164  N          7.0420   34.8190   10.8700 N.am  242  ALA242     -0.1966
    165  CA         5.7220   34.3320   11.2290 C.3   242  ALA242      0.1728
    166  C          5.7710   33.6370   12.5950 C.2   242  ALA242      0.2616
    167  O          6.5380   32.6950   12.8080 O.2   242  ALA242     -0.2715
    168  CB         5.1870   33.3910   10.1690 C.3   242  ALA242      0.0334
    169  N          4.9530   34.1350   13.5130 N.am  243  LEU243     -0.1977
    170  CA         4.7580   33.5190   14.8190 C.3   243  LEU243      0.1596
    171  C          3.9950   32.2040   14.6650 C.2   243  LEU243      0.2287
    172  O          3.0220   32.1420   13.9110 O.2   243  LEU243     -0.2864
    173  CB         3.9930   34.4730   15.7230 C.3   243  LEU243      0.0297
    174  CG         3.7840   34.0540   17.1800 C.3   243  LEU243      0.0022
    175  CD1        5.1230   33.8120   17.8710 C.3   243  LEU243      0.0001
    176  CD2        2.9730   35.1170   17.9010 C.3   243  LEU243      0.0001
    177  N          1.3370   29.3460   19.3550 N.3   247  LEU247     -0.1245
    178  CA         1.8230   30.3880   20.2460 C.3   247  LEU247      0.1561
    179  C          0.9600   31.6330   20.1200 C.2   247  LEU247      0.2260
    180  O          0.7190   32.3450   21.0950 O.2   247  LEU247     -0.2867
    181  CB         3.2850   30.7060   19.9440 C.3   247  LEU247      0.0270
    182  CG         4.3710   29.8300   20.5750 C.3   247  LEU247      0.0019
    183  CD1        4.1670   28.3590   20.2800 C.3   247  LEU247      0.0001
    184  CD2        5.7740   30.2660   20.1380 C.3   247  LEU247      0.0001
    185  N         -0.7280   33.0910   23.4920 N.3   251  TYR251     -0.1241
    186  CA        -0.3470   34.4300   23.9340 C.3   251  TYR251      0.1605
    187  C         -1.4690   35.4590   23.8410 C.2   251  TYR251      0.2264
    188  O         -1.4850   36.4200   24.6150 O.2   251  TYR251     -0.2867
    189  CB         0.8670   34.9250   23.1350 C.3   251  TYR251      0.0534
    190  CG         2.1350   34.2120   23.5190 C.ar  251  TYR251     -0.0201
    191  CD1        2.3360   33.7920   24.8280 C.ar  251  TYR251     -0.0009
    192  CD2        3.1200   33.9390   22.5830 C.ar  251  TYR251     -0.0009
    193  CE1        3.4830   33.1320   25.1960 C.ar  251  TYR251      0.0417
    194  CE2        4.2750   33.2820   22.9370 C.ar  251  TYR251      0.0417
    195  CZ         4.4490   32.8770   24.2470 C.ar  251  TYR251      0.1957
    196  OH         5.5990   32.2200   24.6070 O.3   251  TYR251     -0.2866
@<TRIPOS>BOND
     1   159   160    1
     2   162   161    2
     3   160   161    1
     4   160   163    1
     5   161   164   am
     6   168   165    1
     7   158   156   ar
     8   164   165    1
     9     6     5    1
    10   157   156   ar
    11     5     7    1
    12     5     2    1
    13   165   166    1
    14   156   155    1
    15    28    27   ar
    16    28    26   ar
    17    27    25   ar
    18   152   151    1
    19   152   153    2
    20    26    24   ar
    21    25    24   ar
    22   151   154    1
    23   151   150    1
    24    24    23    1
    25     3     2    1
    26     3     4    2
    27     2     1    1
    28   166   167    2
    29   166   169   am
    30   155   154    1
    31    23    20    1
    32   169   170    1
    33   144   143    2
    34   172   171    2
    35    20    21    1
    36    20    19    1
    37   148   149    1
    38   148   147    1
    39   171   170    1
    40    43    41   am
    41   143   142    1
    42   170   173    1
    43    99    98   ar
    44    99    97   ar
    45   146   147    1
    46   146   145    1
    47    21    22    2
    48    19    10   am
    49    98    96   ar
    50   136   135    2
    51   142   145    1
    52   142   141    1
    53   173   174    1
    54    97    95   ar
    55    41    42    2
    56    41    40    1
    57    96    94   ar
    58     8     9    1
    59   135   141   am
    60   135   134    1
    61    10     9    1
    62    10    11    2
    63    40    39    1
    64   139   137    1
    65    95    94   ar
    66    94    93    1
    67     9    12    1
    68   174   175    1
    69   174   176    1
    70    12    13    1
    71   134   137    1
    72   134   133    1
    73    29    30    1
    74   137   138    1
    75    93    90    1
    76    39    36    1
    77    15    13   ar
    78    15    17   ar
    79    37    36    1
    80    37    38    2
    81    13    14   ar
    82    35    36    1
    83    35    31   am
    84   138   140    1
    85    89    90    1
    86    30    31    1
    87    30    33    1
    88    17    18   ar
    89    90    91    1
    90   177   178    1
    91   129   128    2
    92    31    32    2
    93    33    34    1
    94    14    16   ar
    95   181   178    1
    96   181   182    1
    97   179   178    1
    98   179   180    2
    99   184   182    1
   100   183   182    1
   101    91    92    2
   102   107   105    1
   103    18    16   ar
   104   128   127    1
   105   131   130    1
   106   127   130    1
   107   127   126    1
   108    44    45    1
   109   105   104    1
   110   130   132    1
   111    46    45    1
   112    46    47    2
   113   192   194   ar
   114   192   190   ar
   115    45    48    1
   116    48    49    1
   117   194   195   ar
   118   104   106    1
   119   104   101    1
   120   189   190    1
   121   189   186    1
   122    61    60    1
   123   185   186    1
   124   190   191   ar
   125   187   186    1
   126   187   188    2
   127   100   101    1
   128   113   114    1
   129   113   112    1
   130   195   196    1
   131   195   193   ar
   132   101   102    1
   133    60    59   ar
   134    60    58   ar
   135   125   124   ar
   136   125   123   ar
   137   124   122   ar
   138   115   114    1
   139   191   193   ar
   140    59    57   ar
   141   108   102   am
   142   108   109    1
   143   119   118    2
   144   112   109    1
   145   102   103    2
   146    58    56   ar
   147   123   121   ar
   148   122   121   ar
   149   109   110    1
   150    57    55   ar
   151   121   120    1
   152   118   117    1
   153    69    67    1
   154    56    55   ar
   155    55    54    1
   156   110   111    2
   157    87    86    1
   158   117   120    1
   159   117   116    1
   160    68    66    1
   161    88    86    1
   162    67    66    1
   163    78    80   ar
   164    78    76   ar
   165    80    79   ar
   166    86    85    1
   167    66    63    1
   168    54    51    1
   169    76    75   ar
   170    79    77   ar
   171    51    50    1
   172    51    52    1
   173    85    82    1
   174    63    64    1
   175    63    62    1
   176    82    83    1
   177    82    81    1
   178    65    64    2
   179    77    75   ar
   180    75    74    1
   181    64    70   am
   182    84    83    2
   183    52    53    2
   184    70    71    1
   185    71    74    1
   186    71    72    1
   187    72    73    2
