@<TRIPOS>MOLECULE
tmp/5hylD00.pdb
 128 122 0 0 0
SMALL
GASTEIGER

@<TRIPOS>ATOM
      1  N        -54.2740  -32.3780    5.4140 N.3    19  LEU19      -0.1245
      2  CA       -53.3330  -31.4340    6.0120 C.3    19  LEU19       0.1561
      3  C        -53.1110  -31.7410    7.4870 C.2    19  LEU19       0.2260
      4  O        -51.9840  -31.6300    7.9890 O.2    19  LEU19      -0.2867
      5  CB       -53.8160  -29.9960    5.8280 C.3    19  LEU19       0.0270
      6  CG       -53.0780  -29.2010    4.7430 C.3    19  LEU19       0.0019
      7  CD1      -51.5840  -29.1180    5.0580 C.3    19  LEU19       0.0001
      8  CD2      -53.2770  -29.8220    3.3510 C.3    19  LEU19       0.0001
      9  N        -50.6310  -34.5350    7.5670 N.3    22  PHE22      -0.1227
     10  CA       -49.2830  -34.0720    7.2350 C.3    22  PHE22       0.1736
     11  C        -48.6450  -33.3460    8.4170 C.2    22  PHE22       0.2595
     12  O        -47.4970  -33.6210    8.7940 O.2    22  PHE22      -0.2718
     13  CB       -49.3530  -33.1620    6.0040 C.3    22  PHE22       0.0547
     14  CG       -48.0730  -32.4120    5.7070 C.ar   22  PHE22      -0.0202
     15  CD1      -46.9550  -33.0740    5.2130 C.ar   22  PHE22      -0.0042
     16  CD2      -48.0100  -31.0390    5.8830 C.ar   22  PHE22      -0.0042
     17  CE1      -45.7820  -32.3660    4.9090 C.ar   22  PHE22      -0.0003
     18  CE2      -46.8350  -30.3240    5.6030 C.ar   22  PHE22      -0.0003
     19  CZ       -45.7330  -30.9840    5.1220 C.ar   22  PHE22      -0.0000
     20  N        -49.3870  -32.4340    9.0330 N.am   23  HIS23      -0.1975
     21  CA       -48.8120  -31.6750   10.1340 C.3    23  HIS23       0.1656
     22  C        -48.5150  -32.5680   11.3290 C.2    23  HIS23       0.2291
     23  O        -47.4910  -32.3840   11.9910 O.2    23  HIS23      -0.2864
     24  CB       -49.7370  -30.5170   10.4850 C.3    23  HIS23       0.0771
     25  CG       -49.6570  -29.3940    9.4950 C.ar   23  HIS23       0.0820
     26  ND1      -50.6780  -28.4910    9.2930 N.ar   23  HIS23      -0.2267
     27  CD2      -48.6580  -29.0300    8.6510 C.ar   23  HIS23       0.1154
     28  CE1      -50.3140  -27.6170    8.3660 C.ar   23  HIS23       0.1986
     29  NE2      -49.0900  -27.9160    7.9680 N.ar   23  HIS23      -0.2212
     30  N        -45.1690  -34.3800   10.5710 N.3    26  ILE26      -0.1245
     31  CA       -43.9450  -33.5860   10.6190 C.3    26  ILE26       0.1561
     32  C        -43.7790  -32.8410   11.9360 C.2    26  ILE26       0.2260
     33  O        -42.7670  -32.1340   12.1150 O.2    26  ILE26      -0.2867
     34  CB       -43.8710  -32.5940    9.4440 C.3    26  ILE26       0.0252
     35  CG1      -44.9060  -31.4740    9.6040 C.3    26  ILE26       0.0019
     36  CG2      -44.0640  -33.3330    8.1040 C.3    26  ILE26       0.0019
     37  CD1      -44.6480  -30.2570    8.6800 C.3    26  ILE26       0.0001
     38  N        -44.7980  -17.7370    8.7770 N.3    44  LEU44      -0.1231
     39  CA       -44.5490  -18.8990    7.9260 C.3    44  LEU44       0.1693
     40  C        -45.6860  -19.1170    6.9340 C.2    44  LEU44       0.2591
     41  O        -45.4430  -19.3770    5.7500 O.2    44  LEU44      -0.2718
     42  CB       -44.3640  -20.1570    8.7660 C.3    44  LEU44       0.0284
     43  CG       -44.1920  -21.4070    7.8840 C.3    44  LEU44       0.0019
     44  CD1      -42.8790  -21.3750    7.0660 C.3    44  LEU44       0.0001
     45  CD2      -44.2610  -22.6810    8.7110 C.3    44  LEU44       0.0001
     46  N        -46.9350  -19.0230    7.3940 N.am   45  ARG45      -0.1980
     47  CA       -48.0480  -19.2440    6.4720 C.3    45  ARG45       0.1597
     48  C        -48.0020  -18.2460    5.3190 C.2    45  ARG45       0.2287
     49  O        -48.2650  -18.6060    4.1620 O.2    45  ARG45      -0.2864
     50  CB       -49.3970  -19.1530    7.1940 C.3    45  ARG45       0.0334
     51  CG       -49.6480  -20.1320    8.3580 C.3    45  ARG45       0.0492
     52  CD       -49.0390  -21.5280    8.1830 C.3    45  ARG45       0.2205
     53  NE       -49.3610  -22.1400    6.8900 N.pl3  45  ARG45      -0.0865
     54  CZ       -49.0060  -23.3770    6.5410 C.cat  45  ARG45       0.5346
     55  NH1      -48.3480  -24.1500    7.4010 N.pl3  45  ARG45       0.1354
     56  NH2      -49.2880  -23.8390    5.3270 N.pl3  45  ARG45       0.1354
     57  N        -45.1770  -19.3620    2.8690 N.3    48  LEU48      -0.1245
     58  CA       -45.5530  -20.5170    2.0510 C.3    48  LEU48       0.1561
     59  C        -46.5630  -20.1210    0.9810 C.2    48  LEU48       0.2260
     60  O        -46.5040  -20.6220   -0.1470 O.2    48  LEU48      -0.2867
     61  CB       -46.1110  -21.6330    2.9390 C.3    48  LEU48       0.0270
     62  CG       -45.0930  -22.2540    3.9100 C.3    48  LEU48       0.0019
     63  CD1      -45.7440  -23.3150    4.7970 C.3    48  LEU48       0.0001
     64  CD2      -43.9320  -22.8450    3.1280 C.3    48  LEU48       0.0001
     65  N        -44.5500  -18.3160   -1.7520 N.3    51  GLU51      -0.1245
     66  CA       -43.7710  -19.2620   -2.5480 C.3    51  GLU51       0.1567
     67  C        -44.6630  -20.0030   -3.5380 C.2    51  GLU51       0.2260
     68  O        -44.3300  -20.1290   -4.7190 O.2    51  GLU51      -0.2867
     69  CB       -43.0510  -20.2620   -1.6390 C.3    51  GLU51       0.0388
     70  CG       -41.9750  -19.6490   -0.7560 C.3    51  GLU51       0.1160
     71  CD       -41.2590  -20.6780    0.1130 C.2    51  GLU51       0.3649
     72  OE1      -41.6220  -21.8710    0.0630 O.co2  51  GLU51      -0.2457
     73  OE2      -40.3290  -20.2860    0.8490 O.co2  51  GLU51      -0.2457
     74  N        -44.9080  -19.7420   -7.8670 N.3    55  GLU55      -0.1245
     75  CA       -44.7150  -20.8720   -8.7630 C.3    55  GLU55       0.1567
     76  C        -45.9040  -21.0350   -9.7030 C.2    55  GLU55       0.2260
     77  O        -45.7270  -21.3920  -10.8720 O.2    55  GLU55      -0.2867
     78  CB       -44.4890  -22.1520   -7.9650 C.3    55  GLU55       0.0388
     79  CG       -43.1730  -22.1600   -7.1770 C.3    55  GLU55       0.1160
     80  CD       -41.9680  -21.8370   -8.0440 C.2    55  GLU55       0.3649
     81  OE1      -41.8540  -22.3780   -9.1700 O.co2  55  GLU55      -0.2457
     82  OE2      -41.1320  -21.0220   -7.6000 O.co2  55  GLU55      -0.2457
     83  N        -49.9560  -29.2580  -10.8430 N.3    83  HIS83      -0.1226
     84  CA       -49.1380  -29.5190   -9.6640 C.3    83  HIS83       0.1752
     85  C        -49.0040  -28.2670   -8.8060 C.2    83  HIS83       0.2595
     86  O        -49.2000  -28.3140   -7.5880 O.2    83  HIS83      -0.2718
     87  CB       -47.7720  -30.0430  -10.1110 C.3    83  HIS83       0.0759
     88  CG       -46.9500  -30.6360   -9.0070 C.ar   83  HIS83       0.0818
     89  ND1      -45.9250  -31.5280   -9.2440 N.ar   83  HIS83      -0.2268
     90  CD2      -47.0000  -30.4660   -7.6630 C.ar   83  HIS83       0.1154
     91  CE1      -45.3860  -31.8910   -8.0920 C.ar   83  HIS83       0.1986
     92  NE2      -46.0130  -31.2540   -7.1180 N.ar   83  HIS83      -0.2212
     93  N        -48.7070  -27.1230   -9.4270 N.am   84  GLU84      -0.1979
     94  CA       -48.5170  -25.9010   -8.6410 C.3    84  GLU84       0.1602
     95  C        -49.8290  -25.4130   -8.0340 C.2    84  GLU84       0.2287
     96  O        -49.8400  -24.8780   -6.9240 O.2    84  GLU84      -0.2864
     97  CB       -47.8800  -24.7990   -9.4930 C.3    84  GLU84       0.0415
     98  CG       -46.5640  -25.1830  -10.1620 C.3    84  GLU84       0.1163
     99  CD       -45.4360  -25.5480   -9.2050 C.2    84  GLU84       0.3649
    100  OE1      -44.3460  -25.9060   -9.7000 O.co2  84  GLU84      -0.2457
    101  OE2      -45.6060  -25.4700   -7.9750 O.co2  84  GLU84      -0.2457
    102  N        -50.3050  -27.3980   -4.9600 N.3    87  ASP87      -0.1239
    103  CA       -49.4320  -26.8950   -3.9000 C.3    87  ASP87       0.1674
    104  C        -50.0180  -25.6490   -3.2540 C.2    87  ASP87       0.2266
    105  O        -49.8810  -25.4370   -2.0430 O.2    87  ASP87      -0.2867
    106  CB       -48.0460  -26.5680   -4.4660 C.3    87  ASP87       0.1410
    107  CG       -47.1730  -27.7870   -4.6390 C.2    87  ASP87       0.3668
    108  OD1      -47.5030  -28.8710   -4.1080 O.co2  87  ASP87      -0.2456
    109  OD2      -46.1270  -27.6470   -5.3060 O.co2  87  ASP87      -0.2456
    110  N        -52.5590  -26.7550   -1.0520 N.3    90  TYR90      -0.1227
    111  CA       -51.9490  -27.4190    0.0920 C.3    90  TYR90       0.1736
    112  C        -51.5610  -26.4120    1.1710 C.2    90  TYR90       0.2595
    113  O        -51.8580  -26.6220    2.3550 O.2    90  TYR90      -0.2718
    114  CB       -50.7350  -28.2400   -0.3620 C.3    90  TYR90       0.0548
    115  CG       -50.4760  -29.4430    0.5040 C.ar   90  TYR90      -0.0200
    116  CD1      -49.7020  -29.3450    1.6670 C.ar   90  TYR90      -0.0009
    117  CD2      -51.0070  -30.6810    0.1730 C.ar   90  TYR90      -0.0009
    118  CE1      -49.4780  -30.4530    2.4760 C.ar   90  TYR90       0.0417
    119  CE2      -50.7930  -31.7980    0.9770 C.ar   90  TYR90       0.0417
    120  CZ       -50.0300  -31.6790    2.1230 C.ar   90  TYR90       0.1957
    121  OH       -49.8100  -32.7920    2.8980 O.3    90  TYR90      -0.2866
    122  N        -50.9440  -25.2900    0.7810 N.am   91  VAL91      -0.1980
    123  CA       -50.5080  -24.3160    1.7840 C.3    91  VAL91       0.1595
    124  C        -51.6440  -23.4140    2.2590 C.2    91  VAL91       0.2287
    125  O        -51.5350  -22.8160    3.3330 O.2    91  VAL91      -0.2864
    126  CB       -49.3400  -23.4580    1.2660 C.3    91  VAL91       0.0276
    127  CG1      -48.1370  -24.3420    0.9090 C.3    91  VAL91       0.0022
    128  CG2      -49.7610  -22.6090    0.0780 C.3    91  VAL91       0.0022
@<TRIPOS>BOND
     1    77    76    2
     2    83    84    1
     3    98    97    1
     4    98    99    1
     5    87    84    1
     6    87    88    1
     7    76    75    1
     8   100    99   ar
     9    84    85    1
    10    97    94    1
    11    93    85   am
    12    93    94    1
    13    89    88   ar
    14    89    91   ar
    15    99   101   ar
    16    81    80   ar
    17    88    90   ar
    18    85    86    2
    19    75    78    1
    20    75    74    1
    21    94    95    1
    22    91    92   ar
    23    80    82   ar
    24    80    79    1
    25    95    96    2
    26    78    79    1
    27    90    92   ar
    28   109   107   ar
    29   102   103    1
    30    68    67    2
    31   107   106    1
    32   107   108   ar
    33   106   103    1
    34   103   104    1
    35    67    66    1
    36   104   105    2
    37    66    65    1
    38    66    69    1
    39    69    70    1
    40   110   111    1
    41    70    71    1
    42   114   111    1
    43   114   115    1
    44    60    59    2
    45    72    71   ar
    46   128   126    1
    47   111   112    1
    48    71    73   ar
    49   117   115   ar
    50   117   119   ar
    51   115   116   ar
    52   122   112   am
    53   122   123    1
    54   127   126    1
    55   119   120   ar
    56    59    58    1
    57   112   113    2
    58   126   123    1
    59   116   118   ar
    60   123   124    1
    61    58    57    1
    62    58    61    1
    63   120   118   ar
    64   120   121    1
    65   124   125    2
    66    61    62    1
    67    64    62    1
    68     8     6    1
    69    62    63    1
    70    49    48    2
    71     6     7    1
    72     6     5    1
    73    17    19   ar
    74    17    15   ar
    75    19    18   ar
    76    15    14   ar
    77    48    47    1
    78    56    54    1
    79     1     2    1
    80    18    16   ar
    81    14    16   ar
    82    14    13    1
    83    41    40    2
    84     5     2    1
    85    13    10    1
    86     2     3    1
    87    47    50    1
    88    47    46    1
    89    54    53    2
    90    54    55    1
    91    53    52    1
    92    40    46   am
    93    40    39    1
    94    44    43    1
    95    50    51    1
    96    10     9    1
    97    10    11    1
    98     3     4    2
    99    43    45    1
   100    43    42    1
   101    39    42    1
   102    39    38    1
   103    29    28   ar
   104    29    27   ar
   105    36    34    1
   106    52    51    1
   107    28    26   ar
   108    11    12    2
   109    11    20   am
   110    27    25   ar
   111    37    35    1
   112    20    21    1
   113    26    25   ar
   114    34    35    1
   115    34    31    1
   116    25    24    1
   117    21    24    1
   118    21    22    1
   119    30    31    1
   120    31    32    1
   121    22    23    2
   122    32    33    2
