@<TRIPOS>MOLECULE
tmp/5hymA01.pdb
 264 259 0 0 0
SMALL
GASTEIGER

@<TRIPOS>ATOM
      1  N          6.5680   26.1270  -13.6800 N.3    47  GLN47      -0.1245
      2  CA         7.0830   24.7820  -13.5470 C.3    47  GLN47       0.1566
      3  C          7.0670   24.1610  -14.9120 C.2    47  GLN47       0.2260
      4  O          6.0980   24.3390  -15.6410 O.2    47  GLN47      -0.2867
      5  CB         6.1360   24.0000  -12.6310 C.3    47  GLN47       0.0367
      6  CG         6.0900   24.5910  -11.2220 C.3    47  GLN47       0.0905
      7  CD         5.1900   23.8420  -10.2740 C.2    47  GLN47       0.2608
      8  OE1        5.3830   22.6380  -10.0230 O.2    47  GLN47      -0.2717
      9  NE2        4.1910   24.5350   -9.7490 N.am   47  GLN47      -0.0878
     10  N          8.4670   17.1240   -5.3720 N.3    75  ILE75      -0.1245
     11  CA         7.2250   17.8860   -5.1930 C.3    75  ILE75       0.1561
     12  C          6.6450   17.4160   -3.8420 C.2    75  ILE75       0.2260
     13  O          6.4410   16.2240   -3.6230 O.2    75  ILE75      -0.2867
     14  CB         6.2660   17.7100   -6.3880 C.3    75  ILE75       0.0252
     15  CG1        6.9250   18.2120   -7.6680 C.3    75  ILE75       0.0019
     16  CG2        4.9830   18.5000   -6.1610 C.3    75  ILE75       0.0019
     17  CD1        6.2740   17.7140   -8.9410 C.3    75  ILE75       0.0001
     18  N          3.6730   17.6930   -1.0640 N.3    77  PHE77      -0.1241
     19  CA         2.3330   18.1580   -0.7050 C.3    77  PHE77       0.1605
     20  C          2.2270   18.1680    0.8250 C.2    77  PHE77       0.2264
     21  O          2.6320   17.2360    1.5130 O.2    77  PHE77      -0.2867
     22  CB         1.2150   17.3400   -1.3680 C.3    77  PHE77       0.0534
     23  CG         1.1870   17.4630   -2.8780 C.ar   77  PHE77      -0.0203
     24  CD1        0.5410   18.5110   -3.5080 C.ar   77  PHE77      -0.0042
     25  CD2        1.8320   16.5420   -3.6580 C.ar   77  PHE77      -0.0042
     26  CE1        0.5790   18.6480   -4.8830 C.ar   77  PHE77      -0.0003
     27  CE2        1.8530   16.6630   -5.0420 C.ar   77  PHE77      -0.0003
     28  CZ         1.2420   17.7110   -5.6590 C.ar   77  PHE77      -0.0000
     29  N          2.5470   13.8150    1.1070 N.3    87  THR87      -0.1218
     30  CA         3.3550   12.9270    0.2560 C.3    87  THR87       0.1862
     31  C          4.4010   13.6610   -0.5430 C.2    87  THR87       0.2287
     32  O          4.3510   14.8870   -0.6480 O.2    87  THR87      -0.2866
     33  CB         2.4590   12.0890   -0.7010 C.3    87  THR87       0.1770
     34  OG1        3.2370   11.0520   -1.3150 O.3    87  THR87      -0.2211
     35  CG2        1.7780   12.9290   -1.7410 C.3    87  THR87       0.0375
     36  N          6.6340   13.4040   -4.4020 N.3    89  ILE89      -0.1245
     37  CA         7.0680   12.8550   -5.6580 C.3    89  ILE89       0.1561
     38  C          8.5760   13.0990   -5.7960 C.2    89  ILE89       0.2260
     39  O          9.0370   14.2280   -5.8540 O.2    89  ILE89      -0.2867
     40  CB         6.3190   13.5040   -6.8340 C.3    89  ILE89       0.0252
     41  CG1        4.7940   13.4820   -6.5870 C.3    89  ILE89       0.0019
     42  CG2        6.6700   12.7560   -8.1120 C.3    89  ILE89       0.0019
     43  CD1        3.9570   14.1850   -7.6570 C.3    89  ILE89       0.0001
     44  N         12.3910   17.7350  -14.1190 N.3   103  TYR103     -0.1241
     45  CA        11.3190   18.6340  -13.7260 C.3   103  TYR103      0.1605
     46  C         12.0730   19.8310  -13.2020 C.2   103  TYR103      0.2264
     47  O         12.8940   19.6860  -12.2940 O.2   103  TYR103     -0.2867
     48  CB        10.4770   18.0850  -12.5690 C.3   103  TYR103      0.0534
     49  CG         9.1260   18.7950  -12.3520 C.ar  103  TYR103     -0.0201
     50  CD1        9.0520   20.0350  -11.7580 C.ar  103  TYR103     -0.0009
     51  CD2        7.9310   18.2150  -12.7630 C.ar  103  TYR103     -0.0009
     52  CE1        7.8350   20.6790  -11.5510 C.ar  103  TYR103      0.0417
     53  CE2        6.7020   18.8510  -12.5750 C.ar  103  TYR103      0.0417
     54  CZ         6.6640   20.0820  -11.9520 C.ar  103  TYR103      0.1957
     55  OH         5.4930   20.7510  -11.7840 O.3   103  TYR103     -0.2866
     56  N          9.6000   21.9910   -4.6940 N.3   202  VAL202     -0.1245
     57  CA         8.3120   22.5800   -4.9410 C.3   202  VAL202      0.1561
     58  C          7.4060   22.1460   -3.8060 C.2   202  VAL202      0.2260
     59  O          7.1720   20.9730   -3.6300 O.2   202  VAL202     -0.2867
     60  CB         7.7840   22.1130   -6.3030 C.3   202  VAL202      0.0252
     61  CG1        6.3840   22.6570   -6.5780 C.3   202  VAL202      0.0019
     62  CG2        8.7220   22.6040   -7.3940 C.3   202  VAL202      0.0019
     63  N          3.6540   22.3700   -2.0950 N.3   204  GLY204     -0.1225
     64  CA         2.2280   22.7240   -2.1830 C.3   204  GLY204      0.1811
     65  C          1.4310   22.4540   -0.8950 C.2   204  GLY204      0.2280
     66  O          1.1730   21.2780   -0.5300 O.2   204  GLY204     -0.2866
     67  N          1.7050   27.7050   -2.7560 N.3   213  ILE213     -0.1245
     68  CA         2.7940   27.0370   -3.4060 C.3   213  ILE213      0.1561
     69  C          4.0470   27.8630   -3.2920 C.2   213  ILE213      0.2260
     70  O          4.0000   29.1000   -3.3660 O.2   213  ILE213     -0.2867
     71  CB         2.4420   26.7610   -4.8840 C.3   213  ILE213      0.0252
     72  CG1        1.2950   25.7510   -4.9710 C.3   213  ILE213      0.0019
     73  CG2        3.6420   26.2440   -5.6610 C.3   213  ILE213      0.0019
     74  CD1        0.5590   25.7090   -6.3180 C.3   213  ILE213      0.0001
     75  N         -4.6590   25.9390  -13.4670 N.3   299  GLN299     -0.1231
     76  CA        -3.2270   25.6500  -13.4560 C.3   299  GLN299      0.1698
     77  C         -2.7600   24.5590  -12.4600 C.2   299  GLN299      0.2592
     78  O         -1.5690   24.4600  -12.1720 O.2   299  GLN299     -0.2718
     79  CB        -2.4180   26.9400  -13.3090 C.3   299  GLN299      0.0381
     80  CG        -2.5600   27.5750  -11.9470 C.3   299  GLN299      0.0905
     81  CD        -3.6900   28.6150  -11.8780 C.2   299  GLN299      0.2608
     82  OE1       -4.3930   28.9000  -12.8850 O.2   299  GLN299     -0.2717
     83  NE2       -3.8780   29.1820  -10.6680 N.am  299  GLN299     -0.0878
     84  N         -3.6750   23.7030  -12.0030 N.am  300  TYR300     -0.1962
     85  CA        -3.3500   22.7120  -10.9700 C.3   300  TYR300      0.1771
     86  C         -2.3540   21.6210  -11.3800 C.2   300  TYR300      0.2619
     87  O         -1.5910   21.1100  -10.5380 O.2   300  TYR300     -0.2715
     88  CB        -4.6170   22.0710  -10.4970 C.3   300  TYR300      0.0574
     89  CG        -5.6090   23.0850   -9.9750 C.ar  300  TYR300     -0.0198
     90  CD1       -5.3610   23.8190   -8.7970 C.ar  300  TYR300     -0.0009
     91  CD2       -6.8110   23.3150  -10.6510 C.ar  300  TYR300     -0.0009
     92  CE1       -6.3090   24.7600   -8.3450 C.ar  300  TYR300      0.0417
     93  CE2       -7.7270   24.2360  -10.1930 C.ar  300  TYR300      0.0417
     94  CZ        -7.4720   24.9330   -9.0390 C.ar  300  TYR300      0.1957
     95  OH        -8.4260   25.8050   -8.6080 O.3   300  TYR300     -0.2866
     96  N         -2.3670   21.2610  -12.6580 N.am  301  LEU301     -0.1963
     97  CA        -1.3370   20.3880  -13.2280 C.3   301  LEU301      0.1728
     98  C         -0.0890   21.1260  -13.7550 C.2   301  LEU301      0.2616
     99  O          0.8090   20.4820  -14.2520 O.2   301  LEU301     -0.2715
    100  CB        -1.9050   19.5020  -14.3360 C.3   301  LEU301      0.0311
    101  CG        -2.9980   18.5220  -13.9100 C.3   301  LEU301      0.0022
    102  CD1       -3.6070   17.8660  -15.1310 C.3   301  LEU301      0.0001
    103  CD2       -2.5580   17.3930  -12.9580 C.3   301  LEU301      0.0001
    104  N          0.0040   22.4490  -13.6550 N.am  302  ALA302     -0.1977
    105  CA         1.2580   23.1400  -14.0630 C.3   302  ALA302      0.1597
    106  C          1.7430   22.7710  -15.4970 C.2   302  ALA302      0.2287
    107  O          2.9190   22.4980  -15.7320 O.2   302  ALA302     -0.2864
    108  CB         2.3530   22.8370  -13.0680 C.3   302  ALA302      0.0319
    109  N         -7.9640   15.9230  -21.9190 N.3   348  ARG348     -0.1245
    110  CA        -7.8200   15.2030  -20.6530 C.3   348  ARG348      0.1563
    111  C         -7.1020   16.0650  -19.5460 C.2   348  ARG348      0.2260
    112  O         -7.4890   16.0550  -18.3670 O.2   348  ARG348     -0.2867
    113  CB        -7.0700   13.9170  -20.8940 C.3   348  ARG348      0.0307
    114  CG        -7.0980   12.9860  -19.6920 C.3   348  ARG348      0.0489
    115  CD        -6.2840   11.7540  -20.0370 C.3   348  ARG348      0.2205
    116  NE        -6.0740   10.9190  -18.8520 N.pl3 348  ARG348     -0.0865
    117  CZ        -5.4780    9.7350  -18.8530 C.cat 348  ARG348      0.5346
    118  NH1       -4.9980    9.1800  -19.9850 N.pl3 348  ARG348      0.1354
    119  NH2       -5.3500    9.0890  -17.7150 N.pl3 348  ARG348      0.1354
    120  N         -9.1550   16.6260  -16.2060 N.3   352  THR352     -0.1218
    121  CA        -8.4960   16.1180  -15.0260 C.3   352  THR352      0.1862
    122  C         -7.9490   17.2260  -14.1360 C.2   352  THR352      0.2287
    123  O         -7.9550   17.1070  -12.9230 O.2   352  THR352     -0.2866
    124  CB        -7.4140   15.1110  -15.4130 C.3   352  THR352      0.1770
    125  OG1       -7.9920   14.0460  -16.1580 O.3   352  THR352     -0.2211
    126  CG2       -6.7750   14.5360  -14.2290 C.3   352  THR352      0.0375
    127  N        -10.6780   18.2790  -11.7050 N.3   355  MET355     -0.1230
    128  CA       -10.8430   17.2930  -10.6720 C.3   355  MET355      0.1702
    129  C         -9.6500   17.3210   -9.6810 C.2   355  MET355      0.2592
    130  O         -9.8270   17.1950   -8.4630 O.2   355  MET355     -0.2718
    131  CB       -11.0640   15.9050  -11.2860 C.3   355  MET355      0.0401
    132  CG       -11.2620   14.8460  -10.2110 C.3   355  MET355      0.0596
    133  SD        -9.7130   14.2380   -9.4130 S.3   355  MET355     -0.1393
    134  CE        -9.1690   13.1050  -10.6920 C.3   355  MET355      0.0692
    135  N         -8.4460   17.5230  -10.1930 N.am  356  TRP356     -0.1976
    136  CA        -7.2740   17.5710   -9.3400 C.3   356  TRP356      0.1640
    137  C         -7.4190   18.7660   -8.4120 C.2   356  TRP356      0.2290
    138  O         -7.2460   18.6410   -7.2070 O.2   356  TRP356     -0.2864
    139  CB        -6.0310   17.5970  -10.2440 C.3   356  TRP356      0.0576
    140  CG        -4.6050   17.7760   -9.6940 C.ar  356  TRP356      0.0006
    141  CD1       -3.7020   18.6610  -10.1490 C.ar  356  TRP356      0.0946
    142  CD2       -3.9250   17.0100   -8.6850 C.ar  356  TRP356      0.0152
    143  NE1       -2.5220   18.5340   -9.4910 N.ar  356  TRP356     -0.2442
    144  CE2       -2.6320   17.5090   -8.5930 C.ar  356  TRP356      0.0810
    145  CE3       -4.2790   15.9390   -7.8830 C.ar  356  TRP356      0.0012
    146  CZ2       -1.6910   16.9900   -7.6930 C.ar  356  TRP356      0.0191
    147  CZ3       -3.3430   15.4280   -6.9780 C.ar  356  TRP356      0.0001
    148  CH2       -2.0850   15.9660   -6.8750 C.ar  356  TRP356      0.0015
    149  N         -9.7750   18.1870   -5.6050 N.3   359  LEU359     -0.1231
    150  CA        -9.1490   17.3020   -4.6600 C.3   359  LEU359      0.1693
    151  C         -8.2750   18.0950   -3.7060 C.2   359  LEU359      0.2592
    152  O         -8.3290   17.8730   -2.5280 O.2   359  LEU359     -0.2718
    153  CB        -8.3750   16.2330   -5.4010 C.3   359  LEU359      0.0284
    154  CG        -7.7810   15.0100   -4.6900 C.3   359  LEU359      0.0019
    155  CD1       -8.8680   14.1340   -4.1310 C.3   359  LEU359      0.0001
    156  CD2       -6.9990   14.1590   -5.6730 C.3   359  LEU359      0.0001
    157  N         -7.5650   19.1040   -4.1870 N.am  360  TRP360     -0.1976
    158  CA        -6.7690   19.9640   -3.2850 C.3   360  TRP360      0.1640
    159  C         -7.5900   20.7220   -2.2240 C.2   360  TRP360      0.2290
    160  O         -7.1050   21.0080   -1.1530 O.2   360  TRP360     -0.2864
    161  CB        -5.9750   21.0030   -4.0770 C.3   360  TRP360      0.0576
    162  CG        -4.8490   20.4600   -4.8860 C.ar  360  TRP360      0.0006
    163  CD1       -4.5430   19.1550   -5.1100 C.ar  360  TRP360      0.0946
    164  CD2       -3.8770   21.2210   -5.5750 C.ar  360  TRP360      0.0152
    165  NE1       -3.4190   19.0670   -5.8800 N.ar  360  TRP360     -0.2442
    166  CE2       -3.0020   20.3260   -6.1930 C.ar  360  TRP360      0.0810
    167  CE3       -3.6470   22.5870   -5.7100 C.ar  360  TRP360      0.0012
    168  CZ2       -1.9340   20.7400   -6.9810 C.ar  360  TRP360      0.0191
    169  CZ3       -2.5590   23.0070   -6.5110 C.ar  360  TRP360      0.0001
    170  CH2       -1.7250   22.0760   -7.1270 C.ar  360  TRP360      0.0015
    171  N         -5.4080    9.0930    1.8090 N.3   373  LEU373     -0.1231
    172  CA        -5.1000    8.5810    0.4490 C.3   373  LEU373      0.1693
    173  C         -3.6880    8.9410    0.0220 C.2   373  LEU373      0.2592
    174  O         -2.9490    8.1060   -0.4850 O.2   373  LEU373     -0.2718
    175  CB        -6.0700    9.1800   -0.5750 C.3   373  LEU373      0.0284
    176  CG        -5.8410    8.8810   -2.0690 C.3   373  LEU373      0.0019
    177  CD1       -5.8230    7.3820   -2.3610 C.3   373  LEU373      0.0001
    178  CD2       -6.9070    9.5430   -2.9130 C.3   373  LEU373      0.0001
    179  N         -3.3270   10.1990    0.2290 N.am  374  PHE374     -0.1976
    180  CA        -2.0100   10.7050   -0.1290 C.3   374  PHE374      0.1639
    181  C         -0.8850   10.0110    0.6730 C.2   374  PHE374      0.2290
    182  O          0.0970    9.5210    0.0950 O.2   374  PHE374     -0.2864
    183  CB        -1.9570   12.2340    0.0630 C.3   374  PHE374      0.0560
    184  CG        -2.5180   13.0450   -1.0820 C.ar  374  PHE374     -0.0200
    185  CD1       -3.6950   12.7040   -1.7290 C.ar  374  PHE374     -0.0042
    186  CD2       -1.8620   14.1700   -1.5070 C.ar  374  PHE374     -0.0042
    187  CE1       -4.1980   13.4900   -2.7900 C.ar  374  PHE374     -0.0003
    188  CE2       -2.3680   14.9490   -2.5490 C.ar  374  PHE374     -0.0003
    189  CZ        -3.5560   14.6310   -3.1770 C.ar  374  PHE374     -0.0000
    190  N         -0.2390    5.9880   -0.2000 N.3   377  ARG377     -0.1245
    191  CA        -0.1110    5.4890   -1.5850 C.3   377  ARG377      0.1563
    192  C          1.2240    4.7470   -1.7500 C.2   377  ARG377      0.2260
    193  O          2.1570    4.8810   -0.9450 O.2   377  ARG377     -0.2867
    194  CB        -0.2270    6.6530   -2.6170 C.3   377  ARG377      0.0307
    195  CG         1.0780    7.4460   -2.7560 C.3   377  ARG377      0.0489
    196  CD         0.9180    8.8310   -3.3370 C.3   377  ARG377      0.2205
    197  NE         2.2220    9.4570   -3.4850 N.pl3 377  ARG377     -0.0865
    198  CZ         3.0560    9.2890   -4.5130 C.cat 377  ARG377      0.5346
    199  NH1        2.7220    8.4950   -5.5550 N.pl3 377  ARG377      0.1354
    200  NH2        4.2440    9.9430   -4.5140 N.pl3 377  ARG377      0.1354
    201  N          1.3800    5.1970  -11.6670 N.3   383  LYS383     -0.1231
    202  CA         0.0800    5.2340  -12.3420 C.3   383  LYS383      0.1693
    203  C         -0.6180    6.6090  -12.3050 C.2   383  LYS383      0.2592
    204  O         -1.3920    6.9140  -13.2390 O.2   383  LYS383     -0.2718
    205  CB        -0.8700    4.1800  -11.7680 C.3   383  LYS383      0.0285
    206  CG        -1.5770    4.5360  -10.4480 C.3   383  LYS383      0.0035
    207  CD        -2.3620    3.3220   -9.9520 C.3   383  LYS383      0.0206
    208  CE        -3.1300    3.6390   -8.6710 C.3   383  LYS383      0.1093
    209  NZ        -4.5150    3.0790   -8.6750 N.3   383  LYS383     -0.1314
    210  N         -0.4040    7.4180  -11.2590 N.am  384  TYR384     -0.1962
    211  CA        -1.0550    8.7300  -11.2420 C.3   384  TYR384      0.1771
    212  C         -0.4360    9.7850  -12.2130 C.2   384  TYR384      0.2620
    213  O         -1.0470   10.8440  -12.4290 O.2   384  TYR384     -0.2715
    214  CB        -1.1520    9.3220   -9.8350 C.3   384  TYR384      0.0574
    215  CG        -1.9710    8.4880   -8.8600 C.ar  384  TYR384     -0.0198
    216  CD1       -3.2610    8.0110   -9.1790 C.ar  384  TYR384     -0.0009
    217  CD2       -1.4450    8.1530   -7.6150 C.ar  384  TYR384     -0.0009
    218  CE1       -3.9890    7.2070   -8.2730 C.ar  384  TYR384      0.0417
    219  CE2       -2.1430    7.3790   -6.7170 C.ar  384  TYR384      0.0417
    220  CZ        -3.4180    6.9100   -7.0300 C.ar  384  TYR384      0.1957
    221  OH        -4.0520    6.1540   -6.0800 O.3   384  TYR384     -0.2866
    222  N          0.7610    9.5230  -12.7540 N.am  385  THR385     -0.1951
    223  CA         1.4740   10.5190  -13.5360 C.3   385  THR385      0.1897
    224  C          1.9900   10.1260  -14.9260 C.2   385  THR385      0.2313
    225  O          2.3220   11.0270  -15.6940 O.2   385  THR385     -0.2863
    226  CB         2.6700   11.0590  -12.7410 C.3   385  THR385      0.1794
    227  OG1        3.5830   10.0110  -12.4760 O.3   385  THR385     -0.2208
    228  CG2        2.2420   11.6820  -11.4090 C.3   385  THR385      0.0378
    229  N          0.5510    9.2110  -17.6110 N.3   387  TRP387     -0.1227
    230  CA        -0.3050    9.7650  -18.6530 C.3   387  TRP387      0.1737
    231  C          0.0740   11.2640  -18.9400 C.2   387  TRP387      0.2595
    232  O         -0.1450   11.7890  -20.0440 O.2   387  TRP387     -0.2718
    233  CB        -1.7800    9.6660  -18.1870 C.3   387  TRP387      0.0564
    234  CG        -2.1500   10.6340  -17.0330 C.ar  387  TRP387      0.0003
    235  CD1       -2.0480   10.3730  -15.6940 C.ar  387  TRP387      0.0946
    236  CD2       -2.6900   11.9640  -17.1290 C.ar  387  TRP387      0.0152
    237  NE1       -2.4490   11.4510  -14.9610 N.ar  387  TRP387     -0.2442
    238  CE2       -2.8440   12.4520  -15.8080 C.ar  387  TRP387      0.0810
    239  CE3       -3.0610   12.7930  -18.1880 C.ar  387  TRP387      0.0012
    240  CZ2       -3.3260   13.7520  -15.5260 C.ar  387  TRP387      0.0191
    241  CZ3       -3.5740   14.0770  -17.9110 C.ar  387  TRP387      0.0001
    242  CH2       -3.6850   14.5510  -16.5850 C.ar  387  TRP387      0.0015
    243  N          0.6130   11.9290  -17.9110 N.am  388  LEU388     -0.1966
    244  CA         0.9590   13.3210  -17.9780 C.3   388  LEU388      0.1728
    245  C          2.3960   13.4090  -18.4550 C.2   388  LEU388      0.2616
    246  O          2.6390   13.7970  -19.5550 O.2   388  LEU388     -0.2715
    247  CB         0.7120   14.0090  -16.6490 C.3   388  LEU388      0.0311
    248  CG         1.0390   15.4800  -16.6080 C.3   388  LEU388      0.0022
    249  CD1        0.2270   16.3060  -17.6380 C.3   388  LEU388      0.0001
    250  CD2        0.8870   15.9980  -15.1980 C.3   388  LEU388      0.0001
    251  N          3.3170   12.9530  -17.6360 N.am  389  TRP389     -0.1974
    252  CA         4.7510   13.1120  -17.8440 C.3   389  TRP389      0.1640
    253  C          5.3910   12.1340  -18.8300 C.2   389  TRP389      0.2290
    254  O          6.4800   12.3900  -19.3210 O.2   389  TRP389     -0.2864
    255  CB         5.4020   13.0510  -16.4720 C.3   389  TRP389      0.0576
    256  CG         5.0220   14.1960  -15.5950 C.ar  389  TRP389      0.0006
    257  CD1        4.6840   15.4470  -15.9950 C.ar  389  TRP389      0.0946
    258  CD2        5.0170   14.2260  -14.1760 C.ar  389  TRP389      0.0152
    259  NE1        4.4380   16.2410  -14.9270 N.ar  389  TRP389     -0.2442
    260  CE2        4.6670   15.5280  -13.7890 C.ar  389  TRP389      0.0810
    261  CE3        5.2920   13.2860  -13.1830 C.ar  389  TRP389      0.0012
    262  CZ2        4.5370   15.9060  -12.4330 C.ar  389  TRP389      0.0191
    263  CZ3        5.1770   13.6750  -11.8160 C.ar  389  TRP389      0.0001
    264  CH2        4.7970   14.9540  -11.4710 C.ar  389  TRP389      0.0015
@<TRIPOS>BOND
     1   109   110    1
     2   113   110    1
     3   113   114    1
     4   110   111    1
     5   232   231    2
     6   115   114    1
     7   115   116    1
     8   118   117    1
     9   246   245    2
    10   111   112    2
    11   254   253    2
    12   231   230    1
    13   231   243   am
    14   117   116    2
    15   117   119    1
    16   253   252    1
    17   230   233    1
    18   230   229    1
    19   245   244    1
    20   245   251   am
    21   239   241   ar
    22   239   236   ar
    23   233   234    1
    24   244   243    1
    25   244   247    1
    26   241   242   ar
    27   252   251    1
    28   252   255    1
    29   249   248    1
    30   236   234   ar
    31   236   238   ar
    32   234   235   ar
    33   247   248    1
    34   248   250    1
    35   242   240   ar
    36   255   256    1
    37   120   121    1
    38   125   124    1
    39   257   256   ar
    40   257   259   ar
    41   238   240   ar
    42   238   237   ar
    43   107   106    2
    44   235   237   ar
    45   225   224    2
    46     4     3    2
    47   256   258   ar
    48   106   105    1
    49   124   121    1
    50   124   126    1
    51   102   101    1
    52   121   122    1
    53   259   260   ar
    54   224   223    1
    55     3     2    1
    56   100   101    1
    57   100    97    1
    58    99    98    2
    59   258   260   ar
    60   258   261   ar
    61   122   123    2
    62    44    45    1
    63   105   104    1
    64   105   108    1
    65   101   103    1
    66   260   262   ar
    67    98   104   am
    68    98    97    1
    69    45    46    1
    70    45    48    1
    71     1     2    1
    72     2     5    1
    73   223   222    1
    74   223   226    1
    75    75    76    1
    76    76    79    1
    77    76    77    1
    78    79    80    1
    79   204   203    2
    80    97    96    1
    81    46    47    2
    82   261   263   ar
    83    82    81    2
    84    51    53   ar
    85    51    49   ar
    86   222   212   am
    87   226   227    1
    88   226   228    1
    89    96    86   am
    90     5     6    1
    91    53    54   ar
    92    48    49    1
    93    77    78    2
    94    77    84   am
    95   262   264   ar
    96   213   212    2
    97    49    50   ar
    98   202   203    1
    99   202   205    1
   100   202   201    1
   101   203   210   am
   102   212   211    1
   103    84    85    1
   104    54    55    1
   105    54    52   ar
   106    80    81    1
   107    81    83   am
   108   263   264   ar
   109   205   206    1
   110    50    52   ar
   111   127   128    1
   112    86    85    1
   113    86    87    2
   114   131   128    1
   115   131   132    1
   116   210   211    1
   117   211   214    1
   118     6     7    1
   119    85    88    1
   120   134   133    1
   121   128   129    1
   122    91    93   ar
   123    91    89   ar
   124    88    89    1
   125   206   207    1
   126     7     8    2
   127     7     9   am
   128   139   140    1
   129   139   136    1
   130   132   133    1
   131    93    94   ar
   132   135   129   am
   133   135   136    1
   134   141   140   ar
   135   141   143   ar
   136    89    90   ar
   137   207   208    1
   138   214   215    1
   139   140   142   ar
   140   129   130    2
   141   143   144   ar
   142   136   137    1
   143   216   215   ar
   144   216   218   ar
   145    94    95    1
   146    94    92   ar
   147    17    15    1
   148   215   217   ar
   149    90    92   ar
   150   142   144   ar
   151   142   145   ar
   152   209   208    1
   153   144   146   ar
   154   137   138    2
   155   218   220   ar
   156    42    40    1
   157   145   147   ar
   158   146   148   ar
   159    15    14    1
   160    43    41    1
   161   217   219   ar
   162    62    60    1
   163   170   168   ar
   164   170   169   ar
   165   220   219   ar
   166   220   221    1
   167   168   166   ar
   168   147   148   ar
   169    40    41    1
   170    40    37    1
   171    61    60    1
   172   169   167   ar
   173    14    16    1
   174    14    11    1
   175    74    72    1
   176    60    57    1
   177   166   165   ar
   178   166   164   ar
   179   165   163   ar
   180    39    38    2
   181    38    37    1
   182   167   164   ar
   183   156   154    1
   184    73    71    1
   185    28    27   ar
   186    28    26   ar
   187    37    36    1
   188   149   150    1
   189   164   162   ar
   190   199   198    1
   191   153   154    1
   192   153   150    1
   193    10    11    1
   194    11    12    1
   195   163   162   ar
   196    27    25   ar
   197    72    71    1
   198    57    56    1
   199    57    58    1
   200   162   161    1
   201    71    68    1
   202    26    24   ar
   203   154   155    1
   204   150   151    1
   205   200   198    1
   206   198   197    2
   207   157   151   am
   208   157   158    1
   209   161   158    1
   210    12    13    2
   211    58    59    2
   212   151   152    2
   213    25    23   ar
   214    24    23   ar
   215   197   196    1
   216    68    69    1
   217    68    67    1
   218    70    69    2
   219   196   195    1
   220   158   159    1
   221   189   187   ar
   222   189   188   ar
   223   178   176    1
   224    23    22    1
   225   187   185   ar
   226   195   194    1
   227   194   191    1
   228   188   186   ar
   229   177   176    1
   230   159   160    2
   231    64    63    1
   232    64    65    1
   233   176   175    1
   234   192   191    1
   235   192   193    2
   236    35    33    1
   237   185   184   ar
   238   191   190    1
   239   186   184   ar
   240    22    19    1
   241    34    33    1
   242   184   183    1
   243    18    19    1
   244    65    66    2
   245    19    20    1
   246    33    30    1
   247    32    31    2
   248   175   172    1
   249    31    30    1
   250   174   173    2
   251   180   183    1
   252   180   179    1
   253   180   181    1
   254   173   179   am
   255   173   172    1
   256   182   181    2
   257    30    29    1
   258   172   171    1
   259    20    21    2
