@<TRIPOS>MOLECULE
tmp/5hynL00.pdb
 151 146 0 0 0
SMALL
GASTEIGER

@<TRIPOS>ATOM
      1  N         93.5080  -70.4800  -44.2990 N.3    19  PRO19      -0.2116
      2  CA        94.1850  -69.1790  -44.2570 C.3    19  PRO19       0.1372
      3  C         93.2250  -68.0120  -44.1200 C.2    19  PRO19       0.2244
      4  O         92.1130  -68.0380  -44.6440 O.2    19  PRO19      -0.2868
      5  CB        94.8980  -69.1230  -45.5980 C.3    19  PRO19       0.0268
      6  CG        95.0220  -70.5500  -46.0130 C.3    19  PRO19       0.0207
      7  CD        93.8190  -71.2260  -45.5270 C.3    19  PRO19       0.0892
      8  N         92.8480  -64.5480  -45.5250 N.3    21  PHE21      -0.1241
      9  CA        93.3630  -63.8480  -46.7000 C.3    21  PHE21       0.1605
     10  C         93.2150  -62.3370  -46.6370 C.2    21  PHE21       0.2264
     11  O         93.6900  -61.6530  -47.5470 O.2    21  PHE21      -0.2867
     12  CB        92.6680  -64.3310  -47.9640 C.3    21  PHE21       0.0534
     13  CG        93.0710  -65.6980  -48.4010 C.ar   21  PHE21      -0.0203
     14  CD1       94.3800  -65.9740  -48.7740 C.ar   21  PHE21      -0.0042
     15  CD2       92.1270  -66.7030  -48.4790 C.ar   21  PHE21      -0.0042
     16  CE1       94.7420  -67.2410  -49.2100 C.ar   21  PHE21      -0.0003
     17  CE2       92.4690  -67.9600  -48.9080 C.ar   21  PHE21      -0.0003
     18  CZ        93.7800  -68.2370  -49.2750 C.ar   21  PHE21      -0.0000
     19  N         84.6950  -69.0380  -50.4380 N.3    70  ASN70      -0.1240
     20  CA        85.9510  -68.7800  -49.7480 C.3    70  ASN70       0.1653
     21  C         86.1880  -67.2770  -49.8280 C.2    70  ASN70       0.2266
     22  O         86.5290  -66.7600  -50.8900 O.2    70  ASN70      -0.2867
     23  CB        87.0870  -69.5590  -50.3770 C.3    70  ASN70       0.1155
     24  CG        88.3300  -69.4590  -49.5880 C.2    70  ASN70       0.2627
     25  OD1       88.4330  -68.6370  -48.6670 O.2    70  ASN70      -0.2716
     26  ND2       89.3400  -70.2150  -49.9910 N.am   70  ASN70      -0.0877
     27  N         87.9130  -63.7990  -49.6800 N.3    72  TYR72      -0.1241
     28  CA        89.2590  -63.3370  -49.9340 C.3    72  TYR72       0.1605
     29  C         89.5320  -61.9440  -49.4140 C.2    72  TYR72       0.2264
     30  O         90.6620  -61.6590  -49.0090 O.2    72  TYR72      -0.2867
     31  CB        89.5320  -63.3350  -51.4370 C.3    72  TYR72       0.0534
     32  CG        89.5680  -64.6880  -52.1060 C.ar   72  TYR72      -0.0201
     33  CD1       89.7640  -65.8480  -51.3790 C.ar   72  TYR72      -0.0009
     34  CD2       89.4650  -64.7920  -53.4800 C.ar   72  TYR72      -0.0009
     35  CE1       89.8270  -67.0760  -51.9980 C.ar   72  TYR72       0.0417
     36  CE2       89.5280  -66.0120  -54.1090 C.ar   72  TYR72       0.0417
     37  CZ        89.7140  -67.1560  -53.3580 C.ar   72  TYR72       0.1957
     38  OH        89.7910  -68.3940  -53.9570 O.3    72  TYR72      -0.2866
     39  N         89.2360  -60.7380  -56.0950 N.3   118  ASN118     -0.1240
     40  CA        90.4910  -60.6800  -55.3550 C.3   118  ASN118      0.1653
     41  C         90.5690  -59.4970  -54.3890 C.2   118  ASN118      0.2266
     42  O         91.3220  -59.5580  -53.4150 O.2   118  ASN118     -0.2867
     43  CB        91.6570  -60.6760  -56.3430 C.3   118  ASN118      0.1155
     44  CG        91.7320  -61.9420  -57.2190 C.2   118  ASN118      0.2627
     45  OD1       91.3260  -63.0390  -56.8350 O.2   118  ASN118     -0.2716
     46  ND2       92.2330  -61.7580  -58.4400 N.am  118  ASN118     -0.0877
     47  N         93.8260  -62.3070  -64.5180 N.3   162  GLU162     -0.1245
     48  CA        93.1690  -61.9010  -63.2820 C.3   162  GLU162      0.1567
     49  C         93.6080  -60.4940  -62.9180 C.2   162  GLU162      0.2260
     50  O         94.7720  -60.1510  -63.0810 O.2   162  GLU162     -0.2867
     51  CB        93.5200  -62.8450  -62.1180 C.3   162  GLU162      0.0388
     52  CG        93.4010  -64.3480  -62.3680 C.3   162  GLU162      0.1160
     53  CD        93.2920  -65.1660  -61.0730 C.2   162  GLU162      0.3649
     54  OE1       92.8790  -64.5800  -60.0530 O.co2 162  GLU162     -0.2457
     55  OE2       93.5510  -66.3930  -61.0890 O.co2 162  GLU162     -0.2457
     56  N        106.4970  -60.1740  -63.1920 N.3   231  ASN231     -0.1225
     57  CA       105.5870  -61.2820  -62.8690 C.3   231  ASN231      0.1785
     58  C        104.2480  -60.7100  -62.3760 C.2   231  ASN231      0.2597
     59  O        104.0000  -59.5030  -62.4730 O.2   231  ASN231     -0.2718
     60  CB       106.2240  -62.2360  -61.8610 C.3   231  ASN231      0.1169
     61  CG       105.8510  -63.6780  -62.1410 C.2   231  ASN231      0.2627
     62  OD1      104.6710  -64.0560  -62.1190 O.2   231  ASN231     -0.2716
     63  ND2      106.8580  -64.4910  -62.4510 N.am  231  ASN231     -0.0877
     64  N        103.3710  -61.5740  -61.8490 N.am  232  TYR232     -0.1976
     65  CA       102.0740  -61.0840  -61.4040 C.3   232  TYR232      0.1639
     66  C        102.2860  -59.9500  -60.4290 C.2   232  TYR232      0.2290
     67  O        103.0430  -60.0830  -59.4690 O.2   232  TYR232     -0.2864
     68  CB       101.2420  -62.1730  -60.7090 C.3   232  TYR232      0.0560
     69  CG       101.1250  -63.5200  -61.3570 C.ar  232  TYR232     -0.0198
     70  CD1      101.2740  -63.7000  -62.7250 C.ar  232  TYR232     -0.0009
     71  CD2      100.8700  -64.6240  -60.5710 C.ar  232  TYR232     -0.0009
     72  CE1      101.1640  -64.9630  -63.2790 C.ar  232  TYR232      0.0417
     73  CE2      100.7670  -65.8680  -61.1000 C.ar  232  TYR232      0.0417
     74  CZ       100.9170  -66.0500  -62.4380 C.ar  232  TYR232      0.1957
     75  OH       100.7980  -67.3460  -62.8790 O.3   232  TYR232     -0.2866
     76  N        106.6340  -60.6250  -57.4440 N.3   248  CYS248     -0.1235
     77  CA       107.4940  -61.6630  -56.8840 C.3   248  CYS248      0.1677
     78  C        108.9700  -61.4100  -57.2090 C.2   248  CYS248      0.2270
     79  O        109.7240  -62.3320  -57.5110 O.2   248  CYS248     -0.2867
     80  CB       107.0600  -63.0470  -57.3620 C.3   248  CYS248      0.0956
     81  SG       105.2470  -63.3200  -57.2530 S.3   248  CYS248     -0.0801
     82  N        107.8370  -65.0790  -52.2890 N.3   286  ASP286     -0.1225
     83  CA       107.8400  -65.6580  -53.6340 C.3   286  ASP286      0.1805
     84  C        106.4530  -66.0300  -54.1300 C.2   286  ASP286      0.2598
     85  O        106.3120  -66.5150  -55.2550 O.2   286  ASP286     -0.2718
     86  CB       108.7410  -66.8840  -53.6800 C.3   286  ASP286      0.1424
     87  CG       110.0740  -66.5940  -53.0900 C.2   286  ASP286      0.3668
     88  OD1      110.5290  -65.4380  -53.2600 O.co2 286  ASP286     -0.2456
     89  OD2      110.6390  -67.4910  -52.4400 O.co2 286  ASP286     -0.2456
     90  N        105.4580  -65.9170  -53.2980 N.am  287  ILE287     -0.1966
     91  CA       104.1040  -66.2610  -53.6560 C.3   287  ILE287      0.1727
     92  C        103.3190  -64.9790  -53.8560 C.2   287  ILE287      0.2616
     93  O        103.6860  -63.9150  -53.3330 O.2   287  ILE287     -0.2715
     94  CB       103.5020  -67.1680  -52.5760 C.3   287  ILE287      0.0290
     95  CG1      103.5360  -66.4790  -51.2060 C.3   287  ILE287      0.0022
     96  CG2      104.2730  -68.4690  -52.5830 C.3   287  ILE287      0.0023
     97  CD1      102.9320  -67.2940  -50.1010 C.3   287  ILE287      0.0001
     98  N        102.2910  -65.0640  -54.6950 N.am  288  TRP288     -0.1960
     99  CA       101.4310  -63.9250  -54.9510 C.3   288  TRP288      0.1771
    100  C        100.2380  -63.9230  -53.9950 C.2   288  TRP288      0.2619
    101  O         99.9150  -64.9240  -53.3410 O.2   288  TRP288     -0.2715
    102  CB       101.0190  -63.9090  -56.4430 C.3   288  TRP288      0.0590
    103  CG       100.3510  -65.1840  -56.8920 C.ar  288  TRP288      0.0006
    104  CD1      100.9700  -66.3620  -57.2360 C.ar  288  TRP288      0.0946
    105  CD2       98.9450  -65.4110  -57.0290 C.ar  288  TRP288      0.0152
    106  NE1      100.0270  -67.3040  -57.5610 N.ar  288  TRP288     -0.2442
    107  CE2       98.7790  -66.7470  -57.4400 C.ar  288  TRP288      0.0810
    108  CE3       97.8130  -64.6160  -56.8440 C.ar  288  TRP288      0.0012
    109  CZ2       97.5320  -67.3010  -57.6740 C.ar  288  TRP288      0.0191
    110  CZ3       96.5750  -65.1650  -57.0730 C.ar  288  TRP288      0.0001
    111  CH2       96.4420  -66.4950  -57.4830 C.ar  288  TRP288      0.0015
    112  N         99.5260  -62.8000  -54.0040 N.am  289  TYR289     -0.1974
    113  CA        98.4600  -62.5320  -53.0470 C.3   289  TYR289      0.1639
    114  C         99.0280  -62.3080  -51.6440 C.2   289  TYR289      0.2290
    115  O         98.5220  -62.8290  -50.6530 O.2   289  TYR289     -0.2864
    116  CB        97.4110  -63.6460  -53.0500 C.3   289  TYR289      0.0560
    117  CG        96.0370  -63.1410  -52.7420 C.ar  289  TYR289     -0.0198
    118  CD1       95.2480  -62.6060  -53.7400 C.ar  289  TYR289     -0.0009
    119  CD2       95.5420  -63.1560  -51.4420 C.ar  289  TYR289     -0.0009
    120  CE1       93.9930  -62.1130  -53.4630 C.ar  289  TYR289      0.0417
    121  CE2       94.3030  -62.6590  -51.1530 C.ar  289  TYR289      0.0417
    122  CZ        93.5280  -62.1420  -52.1720 C.ar  289  TYR289      0.1957
    123  OH        92.2790  -61.6480  -51.9040 O.3   289  TYR289     -0.2866
    124  N        106.3480  -64.8230  -46.5780 N.3   306  GLN306     -0.1245
    125  CA       105.7510  -66.1450  -46.4690 C.3   306  GLN306      0.1566
    126  C        106.2660  -66.9430  -45.2960 C.2   306  GLN306      0.2260
    127  O        105.7830  -68.0590  -45.0750 O.2   306  GLN306     -0.2867
    128  CB       105.9550  -66.9530  -47.7580 C.3   306  GLN306      0.0367
    129  CG       107.3530  -67.4990  -47.8950 C.3   306  GLN306      0.0905
    130  CD       107.6720  -68.0950  -49.2600 C.2   306  GLN306      0.2608
    131  OE1      106.8230  -68.1730  -50.1200 O.2   306  GLN306     -0.2717
    132  NE2      108.9320  -68.4830  -49.4640 N.am  306  GLN306     -0.0878
    133  N         99.3220  -62.9920  -45.2190 N.3   338  ARG338     -0.1245
    134  CA        98.5870  -62.5190  -46.3810 C.3   338  ARG338      0.1563
    135  C         98.3830  -61.0020  -46.3510 C.2   338  ARG338      0.2260
    136  O         98.5170  -60.3440  -47.3860 O.2   338  ARG338     -0.2867
    137  CB        97.2630  -63.2640  -46.4560 C.3   338  ARG338      0.0307
    138  CG        97.4000  -64.7300  -46.7520 C.3   338  ARG338      0.0489
    139  CD        98.1180  -64.9700  -48.0030 C.3   338  ARG338      0.2205
    140  NE        98.1920  -66.3970  -48.2450 N.pl3 338  ARG338     -0.0865
    141  CZ        98.6630  -66.9070  -49.3790 C.cat 338  ARG338      0.5346
    142  NH1       98.7380  -68.2260  -49.5430 N.pl3 338  ARG338      0.1354
    143  NH2       99.0590  -66.0850  -50.3620 N.pl3 338  ARG338      0.1354
    144  N         98.3970  -67.8310  -43.0190 N.3   354  ASP354     -0.1239
    145  CA        97.8910  -69.0210  -43.7260 C.3   354  ASP354      0.1674
    146  C         97.3860  -70.1120  -42.7990 C.2   354  ASP354      0.2266
    147  O         96.7080  -71.0240  -43.2810 O.2   354  ASP354     -0.2867
    148  CB        98.9580  -69.6980  -44.6130 C.3   354  ASP354      0.1410
    149  CG        98.9010  -69.2780  -46.1110 C.2   354  ASP354      0.3668
    150  OD1       98.0980  -68.4010  -46.5130 O.co2 354  ASP354     -0.2456
    151  OD2       99.7000  -69.8510  -46.8980 O.co2 354  ASP354     -0.2456
@<TRIPOS>BOND
     1    47    48    1
     2    48    49    1
     3    48    51    1
     4    72    70   ar
     5    72    74   ar
     6    56    57    1
     7    50    49    2
     8    75    74    1
     9    57    58    1
    10    57    60    1
    11    70    69   ar
    12    59    58    2
    13    63    61   am
    14    74    73   ar
    15    58    64   am
    16    52    51    1
    17    52    53    1
    18    61    62    2
    19    61    60    1
    20    64    65    1
    21    65    68    1
    22    65    66    1
    23    69    68    1
    24    69    71   ar
    25    73    71   ar
    26    55    53   ar
    27    53    54   ar
    28    66    67    2
    29    46    44   am
    30   109   111   ar
    31   109   107   ar
    32   106   107   ar
    33   106   104   ar
    34    79    78    2
    35   111   110   ar
    36    76    77    1
    37   107   105   ar
    38    80    81    1
    39    80    77    1
    40   104   103   ar
    41    44    45    2
    42    44    43    1
    43    78    77    1
    44   110   108   ar
    45   105   103   ar
    46   105   108   ar
    47   103   102    1
    48   102    99    1
    49    43    40    1
    50    39    40    1
    51    40    41    1
    52    85    84    2
    53    99    98    1
    54    99   100    1
    55    98    92   am
    56    41    42    2
    57    84    83    1
    58    84    90   am
    59    36    34   ar
    60    36    37   ar
    61   112   100   am
    62   112   113    1
    63   100   101    2
    64    38    37    1
    65    92    91    1
    66    92    93    2
    67   118   120   ar
    68   118   117   ar
    69    86    83    1
    70    86    87    1
    71    91    90    1
    72    91    94    1
    73    83    82    1
    74    34    32   ar
    75   120   122   ar
    76    37    35   ar
    77    88    87   ar
    78    87    89   ar
    79   116   113    1
    80   116   117    1
    81   113   114    1
    82   117   119   ar
    83    96    94    1
    84    94    95    1
    85   122   123    1
    86   122   121   ar
    87    32    31    1
    88    32    33   ar
    89    35    33   ar
    90   114   115    2
    91   119   121   ar
    92    31    28    1
    93    95    97    1
    94    22    21    2
    95    19    20    1
    96    23    20    1
    97    23    24    1
    98   143   141    1
    99   131   130    2
   100    26    24   am
   101    28    27    1
   102    28    29    1
   103    21    20    1
   104    24    25    2
   105   142   141    1
   106   132   130   am
   107    29    30    2
   108   141   140    2
   109    18    16   ar
   110    18    17   ar
   111   130   129    1
   112    16    14   ar
   113    17    15   ar
   114    14    13   ar
   115    15    13   ar
   116    13    12    1
   117   140   139    1
   118   139   138    1
   119    12     9    1
   120   129   128    1
   121   128   125    1
   122    11    10    2
   123   136   135    2
   124   151   149   ar
   125   138   137    1
   126     9    10    1
   127     9     8    1
   128   124   125    1
   129   150   149   ar
   130   125   126    1
   131   137   134    1
   132   134   135    1
   133   134   133    1
   134   149   148    1
   135     6     5    1
   136     6     7    1
   137     5     2    1
   138     7     1    1
   139   126   127    2
   140     4     3    2
   141   148   145    1
   142     1     2    1
   143     2     3    1
   144   145   144    1
   145   145   146    1
   146   147   146    2
