@<TRIPOS>MOLECULE
tmp/5hynA00.pdb
 217 210 0 0 0
SMALL
GASTEIGER

@<TRIPOS>ATOM
      1  N         87.4300  -74.1300   -0.1550 N.3   143  ASN143     -0.1240
      2  CA        86.5860  -74.5950   -1.2230 C.3   143  ASN143      0.1653
      3  C         85.3120  -73.7860   -1.3440 C.2   143  ASN143      0.2266
      4  O         84.7520  -73.6890   -2.4450 O.2   143  ASN143     -0.2867
      5  CB        86.2980  -76.0570   -0.9500 C.3   143  ASN143      0.1155
      6  CG        87.5140  -76.8880   -1.1650 C.2   143  ASN143      0.2627
      7  OD1       88.4570  -76.4210   -1.8110 O.2   143  ASN143     -0.2716
      8  ND2       87.5490  -78.0740   -0.5980 N.am  143  ASN143     -0.0877
      9  N         71.4720  -96.8880  -10.3050 N.3   482  TYR482     -0.1241
     10  CA        72.1080  -96.1910   -9.1770 C.3   482  TYR482      0.1605
     11  C         71.6450  -94.7300   -9.1930 C.2   482  TYR482      0.2264
     12  O         72.3240  -93.8490   -9.7080 O.2   482  TYR482     -0.2867
     13  CB        73.6370  -96.3330   -9.2430 C.3   482  TYR482      0.0534
     14  CG        74.3920  -95.8610   -8.0070 C.ar  482  TYR482     -0.0201
     15  CD1       74.6430  -94.5140   -7.8030 C.ar  482  TYR482     -0.0009
     16  CD2       74.8020  -96.7640   -7.0200 C.ar  482  TYR482     -0.0009
     17  CE1       75.3060  -94.0700   -6.6710 C.ar  482  TYR482      0.0417
     18  CE2       75.4570  -96.3280   -5.8730 C.ar  482  TYR482      0.0417
     19  CZ        75.7020  -94.9710   -5.7090 C.ar  482  TYR482      0.1957
     20  OH        76.3490  -94.4800   -4.6020 O.3   482  TYR482     -0.2866
     21  N         81.0310  -81.2910  -11.1440 N.3   489  GLN489     -0.1245
     22  CA        82.2720  -81.8210  -10.6040 C.3   489  GLN489      0.1566
     23  C         82.7960  -80.9680   -9.4500 C.2   489  GLN489      0.2260
     24  O         83.3980  -81.5080   -8.5160 O.2   489  GLN489     -0.2867
     25  CB        83.2800  -81.9380  -11.7260 C.3   489  GLN489      0.0367
     26  CG        82.8610  -82.9030  -12.7900 C.3   489  GLN489      0.0905
     27  CD        82.9720  -84.3490  -12.3530 C.2   489  GLN489      0.2608
     28  OE1       83.6710  -84.6730  -11.4010 O.2   489  GLN489     -0.2717
     29  NE2       82.2830  -85.2330  -13.0640 N.am  489  GLN489     -0.0878
     30  N         80.7380  -81.7300   -6.3480 N.3   492  ALA492     -0.1231
     31  CA        81.0990  -83.0490   -5.8410 C.3   492  ALA492      0.1694
     32  C         82.4150  -83.0100   -5.0750 C.2   492  ALA492      0.2592
     33  O         82.6340  -83.8100   -4.1580 O.2   492  ALA492     -0.2718
     34  CB        81.1700  -84.0530   -6.9880 C.3   492  ALA492      0.0304
     35  N         83.3350  -82.1420   -5.4970 N.am  493  ASP493     -0.1974
     36  CA        84.6010  -81.9850   -4.7880 C.3   493  ASP493      0.1709
     37  C         84.4060  -81.4180   -3.3990 C.2   493  ASP493      0.2293
     38  O         85.0750  -81.8440   -2.4540 O.2   493  ASP493     -0.2864
     39  CB        85.5220  -81.0780   -5.5810 C.3   493  ASP493      0.1436
     40  CG        86.2680  -81.8020   -6.6630 C.2   493  ASP493      0.3671
     41  OD1       86.2820  -83.0570   -6.6270 O.co2 493  ASP493     -0.2456
     42  OD2       86.8020  -81.1160   -7.5660 O.co2 493  ASP493     -0.2456
     43  N         82.8060  -83.9310   -1.4210 N.3   496  GLY496     -0.1210
     44  CA        83.7530  -85.0210   -1.2620 C.3   496  GLY496      0.1956
     45  C         84.7480  -84.8270   -0.1330 C.2   496  GLY496      0.2611
     46  O         85.1550  -85.7950    0.5180 O.2   496  GLY496     -0.2717
     47  N         85.1970  -83.5930    0.0890 N.am  497  LYS497     -0.1979
     48  CA        86.1730  -83.3860    1.1520 C.3   497  LYS497      0.1596
     49  C         85.6120  -83.8690    2.4780 C.2   497  LYS497      0.2287
     50  O         86.2650  -84.6170    3.2140 O.2   497  LYS497     -0.2864
     51  CB        86.5560  -81.9120    1.2380 C.3   497  LYS497      0.0298
     52  CG        87.7480  -81.4990    0.4000 C.3   497  LYS497      0.0038
     53  CD        88.5520  -80.4430    1.1540 C.3   497  LYS497      0.0206
     54  CE        89.3800  -81.0300    2.3090 C.3   497  LYS497      0.1093
     55  NZ        90.4680  -81.9710    1.8940 N.3   497  LYS497     -0.1314
     56  N         85.1280  -87.7680    2.4680 N.3   500  ASP500     -0.1239
     57  CA        86.3870  -88.4820    2.6640 C.3   500  ASP500      0.1674
     58  C         86.8320  -88.4140    4.1330 C.2   500  ASP500      0.2266
     59  O         87.2740  -89.4150    4.7150 O.2   500  ASP500     -0.2867
     60  CB        87.4400  -87.9160    1.6960 C.3   500  ASP500      0.1410
     61  CG        87.1490  -88.2710    0.2140 C.2   500  ASP500      0.3668
     62  OD1       86.2310  -89.0840   -0.0480 O.co2 500  ASP500     -0.2456
     63  OD2       87.8030  -87.7010   -0.6940 O.co2 500  ASP500     -0.2456
     64  N         81.5850  -92.1270    1.2230 N.3   505  SER505     -0.1202
     65  CA        80.9680  -91.3460    0.1410 C.3   505  SER505      0.2020
     66  C         80.1320  -92.2560   -0.7480 C.2   505  SER505      0.2619
     67  O         80.5370  -93.3790   -1.0950 O.2   505  SER505     -0.2717
     68  CB        81.9540  -90.5800   -0.7840 C.3   505  SER505      0.2103
     69  OG        82.3710  -91.2990   -1.9570 O.3   505  SER505     -0.2182
     70  N         78.9710  -91.7160   -1.1300 N.am  506  PHE506     -0.1961
     71  CA        78.0380  -92.2950   -2.0810 C.3   506  PHE506      0.1771
     72  C         78.2200  -91.7010   -3.4680 C.2   506  PHE506      0.2619
     73  O         77.3180  -91.8000   -4.3070 O.2   506  PHE506     -0.2715
     74  CB        76.6080  -92.0670   -1.6090 C.3   506  PHE506      0.0574
     75  CG        76.2390  -92.8590   -0.4190 C.ar  506  PHE506     -0.0200
     76  CD1       75.9230  -94.2160   -0.5050 C.ar  506  PHE506     -0.0042
     77  CD2       76.1810  -92.2360    0.7970 C.ar  506  PHE506     -0.0042
     78  CE1       75.5550  -94.9190    0.6320 C.ar  506  PHE506     -0.0003
     79  CE2       75.8210  -92.9330    1.9270 C.ar  506  PHE506     -0.0003
     80  CZ        75.5140  -94.2780    1.8490 C.ar  506  PHE506     -0.0000
     81  N         79.3670  -91.0650   -3.7150 N.am  507  LEU507     -0.1963
     82  CA        79.6360  -90.4060   -4.9860 C.3   507  LEU507      0.1728
     83  C         79.8920  -91.4240   -6.0930 C.2   507  LEU507      0.2616
     84  O         80.5160  -92.4660   -5.8820 O.2   507  LEU507     -0.2715
     85  CB        80.8300  -89.4610   -4.8440 C.3   507  LEU507      0.0311
     86  CG        80.5570  -88.2050   -4.0090 C.3   507  LEU507      0.0022
     87  CD1       81.7350  -87.2710   -3.9010 C.3   507  LEU507      0.0001
     88  CD2       79.4640  -87.4600   -4.6740 C.3   507  LEU507      0.0001
     89  N         79.3160  -91.1580   -7.2560 N.am  508  PHE508     -0.1960
     90  CA        79.4810  -92.0210   -8.4170 C.3   508  PHE508      0.1771
     91  C         79.6280  -91.1130   -9.6290 C.2   508  PHE508      0.2619
     92  O         78.7770  -90.2450   -9.8570 O.2   508  PHE508     -0.2715
     93  CB        78.2900  -92.9670   -8.5720 C.3   508  PHE508      0.0574
     94  CG        78.6090  -94.2210   -9.3110 C.ar  508  PHE508     -0.0200
     95  CD1       79.2560  -94.1700  -10.5360 C.ar  508  PHE508     -0.0042
     96  CD2       78.2190  -95.4510   -8.8090 C.ar  508  PHE508     -0.0042
     97  CE1       79.5460  -95.3330  -11.2190 C.ar  508  PHE508     -0.0003
     98  CE2       78.4970  -96.6130   -9.5030 C.ar  508  PHE508     -0.0003
     99  CZ        79.1550  -96.5610  -10.6910 C.ar  508  PHE508     -0.0000
    100  N         80.6690  -91.3310  -10.4230 N.am  509  ASN509     -0.1972
    101  CA        80.9250  -90.4570  -11.5560 C.3   509  ASN509      0.1688
    102  C         80.0140  -90.8080  -12.7270 C.2   509  ASN509      0.2292
    103  O         79.8130  -91.9850  -13.0440 O.2   509  ASN509     -0.2864
    104  CB        82.4030  -90.5350  -11.9630 C.3   509  ASN509      0.1181
    105  CG        82.9250  -89.2230  -12.5400 C.2   509  ASN509      0.2629
    106  OD1       82.1820  -88.4760  -13.1650 O.2   509  ASN509     -0.2716
    107  ND2       84.2160  -88.9380  -12.3170 N.am  509  ASN509     -0.0877
    108  N         78.2070  -85.6710  -11.6440 N.3   515  VAL515     -0.1245
    109  CA        78.4340  -86.8020  -10.7580 C.3   515  VAL515      0.1561
    110  C         77.1110  -87.0800  -10.0840 C.2   515  VAL515      0.2260
    111  O         76.3850  -86.1500   -9.7150 O.2   515  VAL515     -0.2867
    112  CB        79.4910  -86.5110   -9.6700 C.3   515  VAL515      0.0252
    113  CG1       80.0140  -87.7890   -9.0600 C.3   515  VAL515      0.0019
    114  CG2       80.5930  -85.5520  -10.1590 C.3   515  VAL515      0.0019
    115  N         72.2130  -98.0680   -3.2680 N.3   526  ARG526     -0.1245
    116  CA        73.3030  -97.2550   -2.7430 C.3   526  ARG526      0.1563
    117  C         74.0680  -97.9730   -1.6380 C.2   526  ARG526      0.2260
    118  O         75.2150  -97.6180   -1.3680 O.2   526  ARG526     -0.2867
    119  CB        72.7700  -95.9050   -2.2490 C.3   526  ARG526      0.0307
    120  CG        72.0290  -95.9640   -0.9270 C.3   526  ARG526      0.0489
    121  CD        71.3640  -94.6200   -0.5210 C.3   526  ARG526      0.2205
    122  NE        71.4420  -94.3790    0.9260 N.pl3 526  ARG526     -0.0865
    123  CZ        72.0700  -93.3580    1.5120 C.cat 526  ARG526      0.5346
    124  NH1       72.0870  -93.2690    2.8350 N.pl3 526  ARG526      0.1354
    125  NH2       72.6090  -92.3880    0.7940 N.pl3 526  ARG526      0.1354
    126  N         78.9810 -102.1170  -13.0560 N.3   538  ALA538     -0.1231
    127  CA        78.3010 -100.8750  -13.3810 C.3   538  ALA538      0.1694
    128  C         78.5780 -100.4740  -14.8200 C.2   538  ALA538      0.2592
    129  O         79.7310 -100.4740  -15.2620 O.2   538  ALA538     -0.2718
    130  CB        78.7440  -99.7480  -12.4580 C.3   538  ALA538      0.0304
    131  N         77.5150 -100.1200  -15.5340 N.am  539  LYS539     -0.1966
    132  CA        77.5800  -99.5120  -16.8550 C.3   539  LYS539      0.1728
    133  C         76.9770  -98.1210  -16.7700 C.2   539  LYS539      0.2616
    134  O         75.8140  -97.9800  -16.3830 O.2   539  LYS539     -0.2715
    135  CB        76.7640 -100.3200  -17.8680 C.3   539  LYS539      0.0311
    136  CG        77.4550 -101.3150  -18.7710 C.3   539  LYS539      0.0038
    137  CD        76.4360 -101.7280  -19.8550 C.3   539  LYS539      0.0206
    138  CE        76.4440 -103.2450  -20.1180 C.3   539  LYS539      0.1093
    139  NZ        75.2560 -103.7180  -20.8990 N.3   539  LYS539     -0.1314
    140  N         77.7050  -97.1070  -17.2220 N.am  540  VAL540     -0.1977
    141  CA        77.0780  -95.8160  -17.4550 C.3   540  VAL540      0.1596
    142  C         76.4740  -95.8720  -18.8510 C.2   540  VAL540      0.2287
    143  O         77.1420  -95.5980  -19.8360 O.2   540  VAL540     -0.2864
    144  CB        78.0590  -94.6760  -17.3090 C.3   540  VAL540      0.0276
    145  CG1       77.3700  -93.4010  -17.6850 C.3   540  VAL540      0.0022
    146  CG2       78.5030  -94.6200  -15.8780 C.3   540  VAL540      0.0022
    147  N         80.2130 -104.3260   -5.8290 N.3   565  PHE565     -0.1227
    148  CA        80.7500 -103.9690   -7.1390 C.3   565  PHE565      0.1736
    149  C         82.0620 -103.2150   -6.9760 C.2   565  PHE565      0.2595
    150  O         82.3530 -102.6610   -5.9200 O.2   565  PHE565     -0.2718
    151  CB        79.7100 -103.2100   -7.9900 C.3   565  PHE565      0.0547
    152  CG        79.3270 -101.8540   -7.4690 C.ar  565  PHE565     -0.0202
    153  CD1       80.0770 -100.7270   -7.7780 C.ar  565  PHE565     -0.0042
    154  CD2       78.1570 -101.7020   -6.7430 C.ar  565  PHE565     -0.0042
    155  CE1       79.7000  -99.4800   -7.3130 C.ar  565  PHE565     -0.0003
    156  CE2       77.7680 -100.4620   -6.2760 C.ar  565  PHE565     -0.0003
    157  CZ        78.5460  -99.3440   -6.5600 C.ar  565  PHE565     -0.0000
    158  N         82.8540 -103.1850   -8.0380 N.am  566  ASP566     -0.1960
    159  CA        84.1940 -102.6160   -7.9690 C.3   566  ASP566      0.1840
    160  C         84.0690 -101.1020   -8.0960 C.2   566  ASP566      0.2622
    161  O         83.7010 -100.5950   -9.1560 O.2   566  ASP566     -0.2715
    162  CB        85.0460 -103.1710   -9.1010 C.3   566  ASP566      0.1450
    163  CG        86.5240 -103.1800   -8.7780 C.2   566  ASP566      0.3671
    164  OD1       86.9610 -102.4050   -7.8910 O.co2 566  ASP566     -0.2456
    165  OD2       87.2540 -103.9510   -9.4500 O.co2 566  ASP566     -0.2456
    166  N         84.4430 -100.3790   -7.0430 N.am  567  TYR567     -0.1960
    167  CA        84.3450  -98.9230   -7.0270 C.3   567  TYR567      0.1771
    168  C         85.2970  -98.2390   -8.0210 C.2   567  TYR567      0.2619
    169  O         85.0480  -97.0790   -8.3680 O.2   567  TYR567     -0.2715
    170  CB        84.5860  -98.3840   -5.6030 C.3   567  TYR567      0.0574
    171  CG        83.4410  -98.6300   -4.6290 C.ar  567  TYR567     -0.0198
    172  CD1       82.3610  -99.4100   -4.9970 C.ar  567  TYR567     -0.0009
    173  CD2       83.4400  -98.0860   -3.3470 C.ar  567  TYR567     -0.0009
    174  CE1       81.3120  -99.6480   -4.1280 C.ar  567  TYR567      0.0417
    175  CE2       82.3780  -98.3220   -2.4610 C.ar  567  TYR567      0.0417
    176  CZ        81.3240  -99.1110   -2.8670 C.ar  567  TYR567      0.1957
    177  OH        80.2640  -99.3740   -2.0360 O.3   567  TYR567     -0.2866
    178  N         86.4230  -98.8600   -8.3980 N.am  568  ARG568     -0.1963
    179  CA        87.4030  -98.2590   -9.3220 C.3   568  ARG568      0.1729
    180  C         88.2850  -97.2010   -8.6600 C.2   568  ARG568      0.2616
    181  O         88.7760  -96.2950   -9.3230 O.2   568  ARG568     -0.2715
    182  CB        86.7350  -97.6430  -10.5590 C.3   568  ARG568      0.0348
    183  CG        85.9600  -98.6280  -11.3880 C.3   568  ARG568      0.0492
    184  CD        86.9040  -99.6130  -12.0270 C.3   568  ARG568      0.2205
    185  NE        86.2240 -100.8280  -12.4480 N.pl3 568  ARG568     -0.0865
    186  CZ        86.8070 -101.8440  -13.0750 C.cat 568  ARG568      0.5346
    187  NH1       88.1010 -101.8070  -13.3740 N.pl3 568  ARG568      0.1354
    188  NH2       86.0860 -102.9020  -13.4090 N.pl3 568  ARG568      0.1354
    189  N         88.4830  -97.2760   -7.3530 N.am  569  TYR569     -0.1974
    190  CA        89.3610  -96.3780   -6.6140 C.3   569  TYR569      0.1639
    191  C         90.8130  -96.8410   -6.8230 C.2   569  TYR569      0.2290
    192  O         91.0580  -97.7960   -7.5630 O.2   569  TYR569     -0.2864
    193  CB        88.9520  -96.3960   -5.1460 C.3   569  TYR569      0.0560
    194  CG        87.6270  -95.7750   -4.7300 C.ar  569  TYR569     -0.0198
    195  CD1       87.0580  -94.7100   -5.4250 C.ar  569  TYR569     -0.0009
    196  CD2       86.9570  -96.2510   -3.6010 C.ar  569  TYR569     -0.0009
    197  CE1       85.8420  -94.1470   -5.0060 C.ar  569  TYR569      0.0417
    198  CE2       85.7550  -95.7020   -3.1820 C.ar  569  TYR569      0.0417
    199  CZ        85.1980  -94.6600   -3.8820 C.ar  569  TYR569      0.1957
    200  OH        84.0040  -94.1540   -3.4250 O.3   569  TYR569     -0.2866
    201  N         93.1410  -98.2860   -4.1770 N.3   571  GLN571     -0.1245
    202  CA        92.7700  -97.3680   -3.0510 C.3   571  GLN571      0.1566
    203  C         92.5930  -98.0830   -1.6870 C.2   571  GLN571      0.2260
    204  O         92.2560  -99.2660   -1.6150 O.2   571  GLN571     -0.2867
    205  CB        91.4600  -96.6540   -3.2960 C.3   571  GLN571      0.0367
    206  CG        91.1290  -95.5140   -2.3580 C.3   571  GLN571      0.0905
    207  CD        92.1280  -94.3900   -2.5080 C.2   571  GLN571      0.2608
    208  OE1       92.2370  -93.7910   -3.5740 O.2   571  GLN571     -0.2717
    209  NE2       92.8530  -94.0890   -1.4450 N.am  571  GLN571     -0.0878
    210  N         90.6650  -96.0070    0.7860 N.3   573  ASP573     -0.1239
    211  CA        89.8390  -94.8820    1.3210 C.3   573  ASP573      0.1674
    212  C         88.3590  -95.2320    1.4360 C.2   573  ASP573      0.2266
    213  O         87.5270  -94.5410    0.8620 O.2   573  ASP573     -0.2867
    214  CB        89.9280  -93.6180    0.4220 C.3   573  ASP573      0.1410
    215  CG        89.3790  -92.3360    1.1170 C.2   573  ASP573      0.3668
    216  OD1       88.8140  -92.4580    2.2250 O.co2 573  ASP573     -0.2456
    217  OD2       89.5200  -91.2150    0.5600 O.co2 573  ASP573     -0.2456
@<TRIPOS>BOND
     1   139   138    1
     2   138   137    1
     3   137   136    1
     4   143   142    2
     5   142   141    1
     6   136   135    1
     7   135   132    1
     8   145   144    1
     9   141   144    1
    10   141   140    1
    11   144   146    1
    12   140   133   am
    13   132   133    1
    14   132   131    1
    15   133   134    2
    16   131   128   am
    17   129   128    2
    18   128   127    1
    19   188   186    1
    20   127   126    1
    21   127   130    1
    22   187   186    1
    23   106   105    2
    24   186   185    2
    25    29    27   am
    26   103   102    2
    27    26    27    1
    28    26    25    1
    29   102   101    1
    30   105   107   am
    31   105   104    1
    32   185   184    1
    33    27    28    2
    34   184   183    1
    35   104   101    1
    36    25    22    1
    37   108   109    1
    38   101   100    1
    39   183   182    1
    40    97    99   ar
    41    97    95   ar
    42    21    22    1
    43   109   110    1
    44   109   112    1
    45    99    98   ar
    46    22    23    1
    47   182   179    1
    48    95    94   ar
    49   100    91   am
    50     9    10    1
    51   114   112    1
    52   110   111    2
    53    92    91    2
    54    12    11    2
    55   112   113    1
    56    91    90    1
    57    98    96   ar
    58   165   163   ar
    59    23    24    2
    60   181   180    2
    61   179   180    1
    62   179   178    1
    63    94    96   ar
    64    94    93    1
    65    13    10    1
    66    13    14    1
    67    11    10    1
    68   161   160    2
    69   162   163    1
    70   162   159    1
    71   163   164   ar
    72   180   189   am
    73    93    90    1
    74    90    89    1
    75   178   168   am
    76   169   168    2
    77   160   159    1
    78   160   166   am
    79   158   159    1
    80   158   149   am
    81   168   167    1
    82    14    15   ar
    83    14    16   ar
    84   151   152    1
    85   151   148    1
    86    15    17   ar
    87   153   152   ar
    88   153   155   ar
    89    42    40   ar
    90   192   191    2
    91   152   154   ar
    92   189   190    1
    93   155   157   ar
    94    89    83   am
    95   148   149    1
    96   148   147    1
    97   166   167    1
    98   167   170    1
    99    16    18   ar
   100    34    31    1
   101   149   150    2
   102   191   190    1
   103   154   156   ar
   104    17    19   ar
   105    40    41   ar
   106    40    39    1
   107   190   193    1
   108   157   156   ar
   109    30    31    1
   110    83    84    2
   111    83    82    1
   112    18    19   ar
   113    31    32    1
   114    19    20    1
   115   170   171    1
   116    39    36    1
   117    35    32   am
   118    35    36    1
   119   195   197   ar
   120   195   194   ar
   121   193   194    1
   122    32    33    2
   123   197   199   ar
   124   172   171   ar
   125   172   174   ar
   126    82    85    1
   127    82    81    1
   128    85    86    1
   129    36    37    1
   130   194   196   ar
   131    88    86    1
   132   171   173   ar
   133    73    72    2
   134   201   202    1
   135   174   176   ar
   136    86    87    1
   137   199   200    1
   138   199   198   ar
   139    81    72   am
   140   196   198   ar
   141   208   207    2
   142    72    71    1
   143    37    38    2
   144   173   175   ar
   145   205   202    1
   146   205   206    1
   147   115   116    1
   148   202   203    1
   149   176   175   ar
   150   176   177    1
   151   116   119    1
   152   116   117    1
   153   207   206    1
   154   207   209   am
   155     4     3    2
   156   119   120    1
   157    71    74    1
   158    71    70    1
   159    69    68    1
   160     7     6    2
   161   203   204    2
   162   117   118    2
   163    74    75    1
   164    43    44    1
   165     3     2    1
   166    44    45    1
   167     2     5    1
   168     2     1    1
   169     6     5    1
   170     6     8   am
   171    70    66   am
   172    67    66    2
   173   120   121    1
   174    68    65    1
   175    66    65    1
   176    63    61   ar
   177   121   122    1
   178    76    75   ar
   179    76    78   ar
   180    75    77   ar
   181    45    47   am
   182    45    46    2
   183    62    61   ar
   184    47    48    1
   185    65    64    1
   186    61    60    1
   187    52    53    1
   188    52    51    1
   189   214   215    1
   190   214   211    1
   191   217   215   ar
   192    78    80   ar
   193   210   211    1
   194   125   123    1
   195    77    79   ar
   196   213   212    2
   197   122   123    2
   198   215   216   ar
   199    48    51    1
   200    48    49    1
   201    53    54    1
   202   211   212    1
   203   123   124    1
   204    60    57    1
   205    80    79   ar
   206    55    54    1
   207    56    57    1
   208    49    50    2
   209    57    58    1
   210    58    59    2
