@<TRIPOS>MOLECULE
tmp/5hynA02.pdb
 178 178 0 0 0
SMALL
GASTEIGER

@<TRIPOS>ATOM
      1  N         75.1500  -97.5140   11.6500 N.3   100  ILE100     -0.1245
      2  CA        74.8980  -96.0810   11.4970 C.3   100  ILE100      0.1561
      3  C         74.3250  -95.7770   10.1140 C.2   100  ILE100      0.2260
      4  O         74.6690  -96.4230    9.1150 O.2   100  ILE100     -0.2867
      5  CB        76.1830  -95.2830   11.7720 C.3   100  ILE100      0.0252
      6  CG1       76.6100  -95.4850   13.2220 C.3   100  ILE100      0.0019
      7  CG2       75.9230  -93.8350   11.5970 C.3   100  ILE100      0.0019
      8  CD1       77.9680  -94.8850   13.5830 C.3   100  ILE100      0.0001
      9  N         80.3640 -107.3300    5.4330 N.3   462  VAL462     -0.1231
     10  CA        81.6030 -106.6180    5.1410 C.3   462  VAL462      0.1692
     11  C         81.6960 -105.2920    5.8940 C.2   462  VAL462      0.2592
     12  O         82.6460 -105.0640    6.6410 O.2   462  VAL462     -0.2718
     13  CB        81.7700 -106.4180    3.6180 C.3   462  VAL462      0.0266
     14  CG1       82.9530 -105.5510    3.3080 C.3   462  VAL462      0.0020
     15  CG2       81.9470 -107.7700    2.9700 C.3   462  VAL462      0.0020
     16  N         80.7120 -104.4070    5.7220 N.am  463  ALA463     -0.1966
     17  CA        80.8550 -103.0810    6.3230 C.3   463  ALA463      0.1728
     18  C         79.5090 -102.3890    6.4900 C.2   463  ALA463      0.2617
     19  O         78.8250 -102.1060    5.5030 O.2   463  ALA463     -0.2715
     20  CB        81.8030 -102.2210    5.4880 C.3   463  ALA463      0.0334
     21  N         79.2030 -102.0200    7.7260 N.am  464  GLY464     -0.1940
     22  CA        77.9860 -101.2910    8.0310 C.3   464  GLY464      0.2014
     23  C         76.8020 -101.9700    7.4180 C.2   464  GLY464      0.2638
     24  O         76.7060 -103.2030    7.4060 O.2   464  GLY464     -0.2714
     25  N         75.9180 -101.1640    6.8420 N.am  465  TRP465     -0.1973
     26  CA        74.7860 -101.7010    6.1170 C.3   465  TRP465      0.1640
     27  C         75.2400 -102.2730    4.7790 C.2   465  TRP465      0.2290
     28  O         76.1700 -101.7710    4.1410 O.2   465  TRP465     -0.2864
     29  CB        73.7610 -100.6090    5.8620 C.3   465  TRP465      0.0576
     30  CG        72.9310 -100.1640    6.9650 C.ar  465  TRP465      0.0006
     31  CD1       72.9690  -98.9430    7.5690 C.ar  465  TRP465      0.0946
     32  CD2       71.8660 -100.8940    7.5860 C.ar  465  TRP465      0.0152
     33  NE1       71.9830  -98.8570    8.5310 N.ar  465  TRP465     -0.2442
     34  CE2       71.2930 -100.0430    8.5640 C.ar  465  TRP465      0.0810
     35  CE3       71.3400 -102.1800    7.4170 C.ar  465  TRP465      0.0012
     36  CZ2       70.2150 -100.4330    9.3560 C.ar  465  TRP465      0.0191
     37  CZ3       70.2730 -102.5720    8.2220 C.ar  465  TRP465      0.0001
     38  CH2       69.7270 -101.6980    9.1840 C.ar  465  TRP465      0.0015
     39  N         84.9220  -90.5740    6.0830 N.3   503  MET503     -0.1230
     40  CA        85.3830  -91.9000    5.6200 C.3   503  MET503      0.1702
     41  C         84.4630  -92.6760    4.6950 C.2   503  MET503      0.2592
     42  O         84.8650  -93.8070    4.2860 O.2   503  MET503     -0.2718
     43  CB        85.7450  -92.8490    6.7570 C.3   503  MET503      0.0401
     44  CG        87.0960  -92.5960    7.3230 C.3   503  MET503      0.0596
     45  SD        88.3410  -93.3430    6.2440 S.3   503  MET503     -0.1393
     46  CE        89.8090  -92.5160    6.8530 C.3   503  MET503      0.0692
     47  N         83.2620  -92.1570    4.3690 N.am  504  CYS504     -0.1956
     48  CA        82.3080  -92.7990    3.4670 C.3   504  CYS504      0.1843
     49  C         81.6760  -91.7610    2.5250 C.2   504  CYS504      0.2626
     50  O         81.3400  -90.6440    2.9490 O.2   504  CYS504     -0.2714
     51  CB        81.2560  -93.5610    4.2960 C.3   504  CYS504      0.0997
     52  SG        79.5550  -93.1000    4.0430 S.3   504  CYS504     -0.0797
     53  N         81.5850  -92.1270    1.2230 N.am  505  SER505     -0.1936
     54  CA        80.9680  -91.3460    0.1410 C.3   505  SER505      0.2055
     55  C         80.1320  -92.2560   -0.7480 C.2   505  SER505      0.2643
     56  O         80.5370  -93.3790   -1.0950 O.2   505  SER505     -0.2714
     57  CB        81.9540  -90.5800   -0.7840 C.3   505  SER505      0.2130
     58  OG        82.3710  -91.2990   -1.9570 O.3   505  SER505     -0.2179
     59  N         78.9710  -91.7160   -1.1300 N.am  506  PHE506     -0.1973
     60  CA        78.0380  -92.2950   -2.0810 C.3   506  PHE506      0.1639
     61  C         78.2200  -91.7010   -3.4680 C.2   506  PHE506      0.2290
     62  O         77.3180  -91.8000   -4.3070 O.2   506  PHE506     -0.2864
     63  CB        76.6080  -92.0670   -1.6090 C.3   506  PHE506      0.0560
     64  CG        76.2390  -92.8590   -0.4190 C.ar  506  PHE506     -0.0200
     65  CD1       75.9230  -94.2160   -0.5050 C.ar  506  PHE506     -0.0042
     66  CD2       76.1810  -92.2360    0.7970 C.ar  506  PHE506     -0.0042
     67  CE1       75.5550  -94.9190    0.6320 C.ar  506  PHE506     -0.0003
     68  CE2       75.8210  -92.9330    1.9270 C.ar  506  PHE506     -0.0003
     69  CZ        75.5140  -94.2780    1.8490 C.ar  506  PHE506     -0.0000
     70  N         72.2130  -98.0680   -3.2680 N.3   526  ARG526     -0.1231
     71  CA        73.3030  -97.2550   -2.7430 C.3   526  ARG526      0.1694
     72  C         74.0680  -97.9730   -1.6380 C.2   526  ARG526      0.2592
     73  O         75.2150  -97.6180   -1.3680 O.2   526  ARG526     -0.2718
     74  CB        72.7700  -95.9050   -2.2490 C.3   526  ARG526      0.0321
     75  CG        72.0290  -95.9640   -0.9270 C.3   526  ARG526      0.0489
     76  CD        71.3640  -94.6200   -0.5210 C.3   526  ARG526      0.2205
     77  NE        71.4420  -94.3790    0.9260 N.pl3 526  ARG526     -0.0865
     78  CZ        72.0700  -93.3580    1.5120 C.cat 526  ARG526      0.5346
     79  NH1       72.0870  -93.2690    2.8350 N.pl3 526  ARG526      0.1354
     80  NH2       72.6090  -92.3880    0.7940 N.pl3 526  ARG526      0.1354
     81  N         73.4290  -98.9210   -0.9540 N.am  527  PHE527     -0.1962
     82  CA        74.0460  -99.6850    0.1180 C.3   527  PHE527      0.1771
     83  C         74.9870 -100.7790   -0.3850 C.2   527  PHE527      0.2619
     84  O         75.6750 -101.3960    0.4390 O.2   527  PHE527     -0.2715
     85  CB        72.9680 -100.2580    1.0620 C.3   527  PHE527      0.0574
     86  CG        72.1900  -99.1810    1.7980 C.ar  527  PHE527     -0.0200
     87  CD1       72.8290  -98.3190    2.6820 C.ar  527  PHE527     -0.0042
     88  CD2       70.8410  -99.0030    1.5760 C.ar  527  PHE527     -0.0042
     89  CE1       72.1290  -97.3120    3.3280 C.ar  527  PHE527     -0.0003
     90  CE2       70.1360  -97.9900    2.2220 C.ar  527  PHE527     -0.0003
     91  CZ        70.7900  -97.1460    3.0960 C.ar  527  PHE527     -0.0000
     92  N         75.0370 -101.0560   -1.6900 N.am  528  ALA528     -0.1963
     93  CA        75.9890 -102.0520   -2.1900 C.3   528  ALA528      0.1728
     94  C         77.4300 -101.6970   -1.8000 C.2   528  ALA528      0.2616
     95  O         77.8730 -100.5540   -1.9490 O.2   528  ALA528     -0.2715
     96  CB        75.8810 -102.1740   -3.7120 C.3   528  ALA528      0.0334
     97  N         78.1750 -102.6850   -1.3090 N.am  529  ASN529     -0.1958
     98  CA        79.5310 -102.4250   -0.8430 C.3   529  ASN529      0.1819
     99  C         80.5410 -102.6500   -1.9620 C.2   529  ASN529      0.2621
    100  O         80.2110 -103.1330   -3.0420 O.2   529  ASN529     -0.2715
    101  CB        79.8890 -103.3050    0.3600 C.3   529  ASN529      0.1195
    102  CG        79.3520 -102.7600    1.6660 C.2   529  ASN529      0.2630
    103  OD1       79.5690 -101.5930    2.0050 O.2   529  ASN529     -0.2716
    104  ND2       78.6380 -103.6030    2.4080 N.am  529  ASN529     -0.0877
    105  N         81.7900 -102.2630   -1.6980 N.am  530  HIS530     -0.1973
    106  CA        82.8850 -102.5400   -2.6210 C.3   530  HIS530      0.1656
    107  C         83.4650 -103.9340   -2.3860 C.2   530  HIS530      0.2291
    108  O         83.4180 -104.4750   -1.2760 O.2   530  HIS530     -0.2864
    109  CB        83.9940 -101.5020   -2.4970 C.3   530  HIS530      0.0771
    110  CG        85.2610 -101.9120   -3.1790 C.ar  530  HIS530      0.0820
    111  ND1       86.3650 -102.3570   -2.4870 N.ar  530  HIS530     -0.2267
    112  CD2       85.5870 -101.9850   -4.4910 C.ar  530  HIS530      0.1154
    113  CE1       87.3210 -102.6750   -3.3410 C.ar  530  HIS530      0.1986
    114  NE2       86.8760 -102.4550   -4.5640 N.ar  530  HIS530     -0.2212
    115  N         84.4430 -100.3790   -7.0430 N.3   567  TYR567     -0.1241
    116  CA        84.3450  -98.9230   -7.0270 C.3   567  TYR567      0.1605
    117  C         85.2970  -98.2390   -8.0210 C.2   567  TYR567      0.2264
    118  O         85.0480  -97.0790   -8.3680 O.2   567  TYR567     -0.2867
    119  CB        84.5860  -98.3840   -5.6030 C.3   567  TYR567      0.0534
    120  CG        83.4410  -98.6300   -4.6290 C.ar  567  TYR567     -0.0201
    121  CD1       82.3610  -99.4100   -4.9970 C.ar  567  TYR567     -0.0009
    122  CD2       83.4400  -98.0860   -3.3470 C.ar  567  TYR567     -0.0009
    123  CE1       81.3120  -99.6480   -4.1280 C.ar  567  TYR567      0.0417
    124  CE2       82.3780  -98.3220   -2.4610 C.ar  567  TYR567      0.0417
    125  CZ        81.3240  -99.1110   -2.8670 C.ar  567  TYR567      0.1957
    126  OH        80.2640  -99.3740   -2.0360 O.3   567  TYR567     -0.2866
    127  N         88.4830  -97.2760   -7.3530 N.3   569  TYR569     -0.1241
    128  CA        89.3610  -96.3780   -6.6140 C.3   569  TYR569      0.1605
    129  C         90.8130  -96.8410   -6.8230 C.2   569  TYR569      0.2264
    130  O         91.0580  -97.7960   -7.5630 O.2   569  TYR569     -0.2867
    131  CB        88.9520  -96.3960   -5.1460 C.3   569  TYR569      0.0534
    132  CG        87.6270  -95.7750   -4.7300 C.ar  569  TYR569     -0.0201
    133  CD1       87.0580  -94.7100   -5.4250 C.ar  569  TYR569     -0.0009
    134  CD2       86.9570  -96.2510   -3.6010 C.ar  569  TYR569     -0.0009
    135  CE1       85.8420  -94.1470   -5.0060 C.ar  569  TYR569      0.0417
    136  CE2       85.7550  -95.7020   -3.1820 C.ar  569  TYR569      0.0417
    137  CZ        85.1980  -94.6600   -3.8820 C.ar  569  TYR569      0.1957
    138  OH        84.0040  -94.1540   -3.4250 O.3   569  TYR569     -0.2866
    139  N         90.6650  -96.0070    0.7860 N.3   573  ASP573     -0.1225
    140  CA        89.8390  -94.8820    1.3210 C.3   573  ASP573      0.1805
    141  C         88.3590  -95.2320    1.4360 C.2   573  ASP573      0.2598
    142  O         87.5270  -94.5410    0.8620 O.2   573  ASP573     -0.2718
    143  CB        89.9280  -93.6180    0.4220 C.3   573  ASP573      0.1424
    144  CG        89.3790  -92.3360    1.1170 C.2   573  ASP573      0.3668
    145  OD1       88.8140  -92.4580    2.2250 O.co2 573  ASP573     -0.2456
    146  OD2       89.5200  -91.2150    0.5600 O.co2 573  ASP573     -0.2456
    147  N         88.0130  -96.2560    2.2090 N.am  574  ALA574     -0.1966
    148  CA        88.9730  -96.9430    3.0610 C.3   574  ALA574      0.1728
    149  C         88.7500  -98.4550    3.0920 C.2   574  ALA574      0.2616
    150  O         88.5990  -99.0350    4.1730 O.2   574  ALA574     -0.2715
    151  CB        88.9430  -96.3710    4.4720 C.3   574  ALA574      0.0334
    152  N         88.7520  -99.0940    1.9160 N.am  575  LEU575     -0.1977
    153  CA        88.4870 -100.5380    1.8210 C.3   575  LEU575      0.1596
    154  C         89.5270 -101.2810    0.9880 C.2   575  LEU575      0.2287
    155  O         89.5590 -101.0580   -0.2280 O.2   575  LEU575     -0.2864
    156  CB        87.1160 -100.8120    1.2210 C.3   575  LEU575      0.0297
    157  CG        86.3110  -99.7430    0.4710 C.3   575  LEU575      0.0022
    158  CD1       85.8660  -98.5910    1.3650 C.3   575  LEU575      0.0001
    159  CD2       87.0450  -99.2090   -0.7490 C.3   575  LEU575      0.0001
    160  N         88.8360 -104.0920    2.8680 N.3   577  TYR577     -0.1227
    161  CA        88.0350 -105.1220    3.5250 C.3   577  TYR577      0.1736
    162  C         87.4670 -106.1380    2.5500 C.2   577  TYR577      0.2595
    163  O         86.4090 -106.7220    2.8050 O.2   577  TYR577     -0.2718
    164  CB        86.9180 -104.4830    4.3360 C.3   577  TYR577      0.0548
    165  CG        86.4350 -105.3050    5.5080 C.ar  577  TYR577     -0.0200
    166  CD1       85.4270 -106.2410    5.3560 C.ar  577  TYR577     -0.0009
    167  CD2       86.9640 -105.1260    6.7830 C.ar  577  TYR577     -0.0009
    168  CE1       84.9610 -107.0020    6.4240 C.ar  577  TYR577      0.0417
    169  CE2       86.5020 -105.8870    7.8830 C.ar  577  TYR577      0.0417
    170  CZ        85.4950 -106.8250    7.6860 C.ar  577  TYR577      0.1957
    171  OH        85.0120 -107.5900    8.7280 O.3   577  TYR577     -0.2866
    172  N         88.1480 -106.3950    1.4610 N.am  578  VAL578     -0.1980
    173  CA        87.6320 -107.3840    0.5440 C.3   578  VAL578      0.1595
    174  C         88.5930 -108.5620    0.4040 C.2   578  VAL578      0.2287
    175  O         89.7870 -108.3800    0.1620 O.2   578  VAL578     -0.2864
    176  CB        87.3590 -106.7470   -0.8030 C.3   578  VAL578      0.0276
    177  CG1       88.5140 -105.7960   -1.1410 C.3   578  VAL578      0.0022
    178  CG2       87.2220 -107.8170   -1.8540 C.3   578  VAL578      0.0022
@<TRIPOS>BOND
     1   118   117    2
     2   117   116    1
     3   130   129    2
     4   127   128    1
     5   115   116    1
     6   116   119    1
     7   129   128    1
     8   128   131    1
     9   119   120    1
    10   133   135   ar
    11   133   132   ar
    12   131   132    1
    13   135   137   ar
    14   121   120   ar
    15   121   123   ar
    16   132   134   ar
    17   120   122   ar
    18   114   112   ar
    19   114   113   ar
    20   112   110   ar
    21    62    61    2
    22   123   125   ar
    23   137   138    1
    24   137   136   ar
    25    96    93    1
    26   134   136   ar
    27    61    60    1
    28   122   124   ar
    29   113   111   ar
    30    70    71    1
    31   110   109    1
    32   110   111   ar
    33   100    99    2
    34   125   124   ar
    35   125   126    1
    36    71    74    1
    37    71    72    1
    38   106   109    1
    39   106   107    1
    40   106   105    1
    41   107   108    2
    42    74    75    1
    43    93    94    1
    44    93    92    1
    45    60    63    1
    46    60    59    1
    47    99   105   am
    48    99    98    1
    49    58    57    1
    50    95    94    2
    51   178   176    1
    52    94    97   am
    53    92    83   am
    54    72    73    2
    55    72    81   am
    56    63    64    1
    57    97    98    1
    58   177   176    1
    59    59    55   am
    60    56    55    2
    61    81    82    1
    62    75    76    1
    63    98   101    1
    64   176   173    1
    65    57    54    1
    66   159   157    1
    67    55    54    1
    68    76    77    1
    69    65    64   ar
    70    65    67   ar
    71    64    66   ar
    72    83    82    1
    73    83    84    2
    74   155   154    2
    75    82    85    1
    76    54    53    1
    77   175   174    2
    78   101   102    1
    79   174   173    1
    80   143   144    1
    81   143   140    1
    82   157   156    1
    83   157   158    1
    84   173   172    1
    85   146   144   ar
    86    67    69   ar
    87   139   140    1
    88    80    78    1
    89    66    68   ar
    90   142   141    2
    91    77    78    2
    92   154   153    1
    93    85    86    1
    94   144   145   ar
    95   156   153    1
    96    53    49   am
    97   140   141    1
    98   141   147   am
    99   172   162   am
   100    78    79    1
   101    88    86   ar
   102    88    90   ar
   103   102   103    2
   104   102   104   am
   105    86    87   ar
   106   153   152    1
   107    69    68   ar
   108   152   149   am
   109   147   148    1
   110    90    91   ar
   111    49    50    2
   112    49    48    1
   113   162   163    2
   114   162   161    1
   115    87    89   ar
   116   160   161    1
   117    15    13    1
   118   148   149    1
   119   148   151    1
   120   149   150    2
   121    91    89   ar
   122    14    13    1
   123    48    51    1
   124    48    47    1
   125   161   164    1
   126    13    10    1
   127    52    51    1
   128    28    27    2
   129    42    41    2
   130   164   165    1
   131    47    41   am
   132    41    40    1
   133    27    26    1
   134    10     9    1
   135    10    11    1
   136   166   165   ar
   137   166   168   ar
   138    20    17    1
   139    19    18    2
   140   165   167   ar
   141    40    39    1
   142    40    43    1
   143    16    11   am
   144    16    17    1
   145    29    26    1
   146    29    30    1
   147    11    12    2
   148    26    25    1
   149    45    46    1
   150    45    44    1
   151    17    18    1
   152   168   170   ar
   153    18    21   am
   154    43    44    1
   155   167   169   ar
   156    25    23   am
   157    30    31   ar
   158    30    32   ar
   159    24    23    2
   160    35    32   ar
   161    35    37   ar
   162    23    22    1
   163    31    33   ar
   164    32    34   ar
   165   170   169   ar
   166   170   171    1
   167    21    22    1
   168    37    38   ar
   169    33    34   ar
   170    34    36   ar
   171     4     3    2
   172    38    36   ar
   173     3     2    1
   174     2     1    1
   175     2     5    1
   176     7     5    1
   177     5     6    1
   178     6     8    1
