@<TRIPOS>MOLECULE
tmp/5hynB00.pdb
 162 157 0 0 0
SMALL
GASTEIGER

@<TRIPOS>ATOM
      1  N         80.7030  -86.8520   32.2620 N.3    19  PRO19      -0.2116
      2  CA        79.7450  -85.7400   32.3270 C.3    19  PRO19       0.1372
      3  C         78.3130  -86.2580   32.4070 C.2    19  PRO19       0.2244
      4  O         77.9570  -87.2500   31.7570 O.2    19  PRO19      -0.2868
      5  CB        80.0010  -84.9620   31.0220 C.3    19  PRO19       0.0268
      6  CG        81.3320  -85.3620   30.5730 C.3    19  PRO19       0.0207
      7  CD        81.4700  -86.8110   31.0040 C.3    19  PRO19       0.0892
      8  N         74.8520  -85.3830   31.2340 N.3    21  PHE21      -0.1241
      9  CA        74.3250  -84.6380   30.1090 C.3    21  PHE21       0.1605
     10  C         72.8430  -84.3230   30.2460 C.2    21  PHE21       0.2264
     11  O         72.2990  -83.5810   29.4130 O.2    21  PHE21      -0.2867
     12  CB        74.5770  -85.4110   28.8110 C.3    21  PHE21       0.0534
     13  CG        76.0130  -85.4480   28.3910 C.ar   21  PHE21      -0.0203
     14  CD1       76.7260  -84.2720   28.1770 C.ar   21  PHE21      -0.0042
     15  CD2       76.6190  -86.6610   28.1150 C.ar   21  PHE21      -0.0042
     16  CE1       78.0510  -84.3110   27.7420 C.ar   21  PHE21      -0.0003
     17  CE2       77.9350  -86.7090   27.6740 C.ar   21  PHE21      -0.0003
     18  CZ        78.6540  -85.5300   27.4890 C.ar   21  PHE21      -0.0000
     19  N         76.4440  -94.5000   25.8980 N.3    70  ASN70      -0.1240
     20  CA        76.5610  -93.2420   26.6210 C.3    70  ASN70       0.1653
     21  C         75.2420  -92.4900   26.5240 C.2    70  ASN70       0.2266
     22  O         74.8560  -92.0800   25.4290 O.2    70  ASN70      -0.2867
     23  CB        77.6910  -92.3730   26.0620 C.3    70  ASN70       0.1155
     24  CG        77.9180  -91.1030   26.8870 C.2    70  ASN70       0.2627
     25  OD1       77.0980  -90.7310   27.7330 O.2    70  ASN70      -0.2716
     26  ND2       78.9870  -90.3850   26.5720 N.am   70  ASN70      -0.0877
     27  N         72.6100  -89.4890   26.7340 N.3    72  TYR72      -0.1241
     28  CA        72.6580  -88.0550   26.5460 C.3    72  TYR72       0.1605
     29  C         71.4670  -87.3430   27.1740 C.2    72  TYR72       0.2264
     30  O         71.6120  -86.2010   27.6420 O.2    72  TYR72      -0.2867
     31  CB        72.7480  -87.7560   25.0380 C.3    72  TYR72       0.0534
     32  CG        74.0620  -88.1740   24.3890 C.ar   72  TYR72      -0.0201
     33  CD1       75.2150  -88.3190   25.1420 C.ar   72  TYR72      -0.0009
     34  CD2       74.1370  -88.4600   23.0350 C.ar   72  TYR72      -0.0009
     35  CE1       76.4240  -88.6800   24.5480 C.ar   72  TYR72       0.0417
     36  CE2       75.3490  -88.8400   22.4290 C.ar   72  TYR72       0.0417
     37  CZ        76.4810  -88.9450   23.1890 C.ar   72  TYR72       0.1957
     38  OH        77.6660  -89.3190   22.5940 O.3    72  TYR72      -0.2866
     39  N         70.0040  -87.0840   20.4540 N.3   118  ASN118     -0.1240
     40  CA        70.3940  -85.9330   21.2590 C.3   118  ASN118      0.1653
     41  C         69.4000  -85.5340   22.3430 C.2   118  ASN118      0.2266
     42  O         69.8310  -85.0660   23.4020 O.2   118  ASN118     -0.2867
     43  CB        70.6650  -84.7460   20.3650 C.3   118  ASN118      0.1155
     44  CG        71.8030  -85.0130   19.4770 C.2   118  ASN118      0.2627
     45  OD1       72.6280  -85.8720   19.7980 O.2   118  ASN118     -0.2716
     46  ND2       71.9140  -84.2730   18.3920 N.am  118  ASN118     -0.0877
     47  N         72.9140  -82.8920   12.2280 N.3   162  GLU162     -0.1245
     48  CA        72.3810  -83.4080   13.4870 C.3   162  GLU162      0.1567
     49  C         71.2360  -82.5520   13.9920 C.2   162  GLU162      0.2260
     50  O         71.3210  -81.3200   14.0000 O.2   162  GLU162     -0.2867
     51  CB        73.4680  -83.4280   14.5600 C.3   162  GLU162      0.0388
     52  CG        74.7530  -84.1070   14.1380 C.3   162  GLU162      0.1160
     53  CD        75.6790  -84.4760   15.3230 C.2   162  GLU162      0.3649
     54  OE1       75.1890  -84.6360   16.4570 O.co2 162  GLU162     -0.2457
     55  OE2       76.8950  -84.6430   15.1170 O.co2 162  GLU162     -0.2457
     56  N         73.5880  -68.0400   14.1030 N.3   230  ARG230     -0.1231
     57  CA        74.7410  -68.0880   13.2040 C.3   230  ARG230      0.1694
     58  C         75.6490  -69.2820   13.4580 C.2   230  ARG230      0.2592
     59  O         76.8200  -69.2400   13.0780 O.2   230  ARG230     -0.2718
     60  CB        75.5670  -66.8060   13.3050 C.3   230  ARG230      0.0321
     61  CG        74.8000  -65.5480   13.0810 C.3   230  ARG230      0.0489
     62  CD        75.7670  -64.4590   12.7080 C.3   230  ARG230      0.2205
     63  NE        76.5730  -64.0210   13.8390 N.pl3 230  ARG230     -0.0865
     64  CZ        77.8080  -63.5380   13.7400 C.cat 230  ARG230      0.5346
     65  NH1       78.4020  -63.4530   12.5590 N.pl3 230  ARG230      0.1354
     66  NH2       78.4530  -63.1430   14.8300 N.pl3 230  ARG230      0.1354
     67  N         75.1680  -70.3140   14.1400 N.am  231  ASN231     -0.1960
     68  CA        75.9650  -71.5140   14.4110 C.3   231  ASN231      0.1819
     69  C         75.0000  -72.6300   14.8000 C.2   231  ASN231      0.2621
     70  O         73.7840  -72.4980   14.6280 O.2   231  ASN231     -0.2715
     71  CB        77.0050  -71.2470   15.5100 C.3   231  ASN231      0.1195
     72  CG        78.2640  -72.0820   15.3500 C.2   231  ASN231      0.2630
     73  OD1       78.2310  -73.3140   15.4550 O.2   231  ASN231     -0.2716
     74  ND2       79.3880  -71.4120   15.1050 N.am  231  ASN231     -0.0877
     75  N         75.5370  -73.7370   15.3270 N.am  232  TYR232     -0.1974
     76  CA        74.6730  -74.8120   15.8020 C.3   232  TYR232      0.1639
     77  C         73.6690  -74.2590   16.8120 C.2   232  TYR232      0.2290
     78  O         73.9890  -73.3790   17.6160 O.2   232  TYR232     -0.2864
     79  CB        75.4410  -75.9520   16.4710 C.3   232  TYR232      0.0560
     80  CG        76.6560  -76.4910   15.7780 C.ar  232  TYR232     -0.0198
     81  CD1       76.8810  -76.2950   14.4150 C.ar  232  TYR232     -0.0009
     82  CD2       77.5330  -77.3020   16.4690 C.ar  232  TYR232     -0.0009
     83  CE1       78.0140  -76.8320   13.7930 C.ar  232  TYR232      0.0417
     84  CE2       78.6360  -77.8390   15.8590 C.ar  232  TYR232      0.0417
     85  CZ        78.8800  -77.6110   14.5440 C.ar  232  TYR232      0.1957
     86  OH        80.0110  -78.1990   14.0420 O.3   232  TYR232     -0.2866
     87  N         75.7000  -70.5140   20.0800 N.3   248  CYS248     -0.1235
     88  CA        76.9920  -70.1910   20.6690 C.3   248  CYS248      0.1677
     89  C         77.2600  -68.6940   20.5170 C.2   248  CYS248      0.2270
     90  O         78.4080  -68.2730   20.3580 O.2   248  CYS248     -0.2867
     91  CB        78.0970  -71.0280   20.0060 C.3   248  CYS248      0.0956
     92  SG        77.7140  -72.8040   19.6840 S.3   248  CYS248     -0.0801
     93  N         80.3120  -70.9610   25.0090 N.3   286  ASP286     -0.1225
     94  CA        80.7120  -71.1000   23.6190 C.3   286  ASP286      0.1805
     95  C         80.6340  -72.5320   23.1370 C.2   286  ASP286      0.2598
     96  O         80.6740  -72.7670   21.9290 O.2   286  ASP286     -0.2718
     97  CB        82.1510  -70.6020   23.4180 C.3   286  ASP286      0.1424
     98  CG        82.3600  -69.2220   23.9720 C.2   286  ASP286      0.3668
     99  OD1       81.4450  -68.3810   23.8300 O.co2 286  ASP286     -0.2456
    100  OD2       83.4190  -69.0020   24.5990 O.co2 286  ASP286     -0.2456
    101  N         80.4430  -73.4770   24.0180 N.am  287  ILE287     -0.1966
    102  CA        80.4190  -74.8540   23.5600 C.3   287  ILE287      0.1727
    103  C         78.9790  -75.2080   23.2320 C.2   287  ILE287      0.2616
    104  O         78.0230  -74.6480   23.7880 O.2   287  ILE287     -0.2715
    105  CB        81.0040  -75.8260   24.6090 C.3   287  ILE287      0.0290
    106  CG1       80.2240  -75.7250   25.9220 C.3   287  ILE287      0.0022
    107  CG2       82.5150  -75.6690   24.7950 C.3   287  ILE287      0.0023
    108  CD1       80.7310  -76.6430   26.9900 C.3   287  ILE287      0.0001
    109  N         78.8020  -76.1130   22.2920 N.am  288  TRP288     -0.1960
    110  CA        77.4270  -76.4880   22.0250 C.3   288  TRP288      0.1771
    111  C         77.0170  -77.6170   22.9540 C.2   288  TRP288      0.2619
    112  O         77.8530  -78.2270   23.6190 O.2   288  TRP288     -0.2715
    113  CB        77.2260  -76.8830   20.5570 C.3   288  TRP288      0.0590
    114  CG        78.0450  -78.0590   20.0710 C.ar  288  TRP288      0.0006
    115  CD1       79.3380  -78.0310   19.6470 C.ar  288  TRP288      0.0946
    116  CD2       77.6140  -79.4210   19.9440 C.ar  288  TRP288      0.0152
    117  NE1       79.7340  -79.2840   19.2630 N.ar  288  TRP288     -0.2442
    118  CE2       78.6950  -80.1560   19.4380 C.ar  288  TRP288      0.0810
    119  CE3       76.4210  -80.0860   20.2060 C.ar  288  TRP288      0.0012
    120  CZ2       78.6240  -81.5190   19.1870 C.ar  288  TRP288      0.0191
    121  CZ3       76.3530  -81.4530   19.9640 C.ar  288  TRP288      0.0001
    122  CH2       77.4510  -82.1520   19.4670 C.ar  288  TRP288      0.0015
    123  N         75.7140  -77.9360   22.9330 N.am  289  TYR289     -0.1974
    124  CA        75.0850  -78.9160   23.8340 C.3   289  TYR289      0.1639
    125  C         74.9500  -78.3970   25.2730 C.2   289  TYR289      0.2290
    126  O         75.0880  -79.1480   26.2470 O.2   289  TYR289     -0.2864
    127  CB        75.8330  -80.2500   23.8090 C.3   289  TYR289      0.0560
    128  CG        74.9360  -81.4060   24.1070 C.ar  289  TYR289     -0.0198
    129  CD1       74.2120  -82.0200   23.1060 C.ar  289  TYR289     -0.0009
    130  CD2       74.7730  -81.8570   25.3980 C.ar  289  TYR289     -0.0009
    131  CE1       73.3540  -83.0740   23.3840 C.ar  289  TYR289      0.0417
    132  CE2       73.9190  -82.9020   25.6900 C.ar  289  TYR289      0.0417
    133  CZ        73.2070  -83.5110   24.6800 C.ar  289  TYR289      0.1957
    134  OH        72.3610  -84.5600   24.9750 O.3   289  TYR289     -0.2866
    135  N         79.5750  -72.7760   30.6790 N.3   306  GLN306     -0.1245
    136  CA        80.6420  -73.7640   30.7410 C.3   306  GLN306      0.1566
    137  C         81.6240  -73.5620   31.8910 C.2   306  GLN306      0.2260
    138  O         82.4150  -74.4700   32.1760 O.2   306  GLN306     -0.2867
    139  CB        81.4130  -73.7690   29.4240 C.3   306  GLN306      0.0367
    140  CG        82.4200  -72.6440   29.2820 C.3   306  GLN306      0.0905
    141  CD        82.9560  -72.5140   27.8740 C.2   306  GLN306      0.2608
    142  OE1       82.5770  -73.2700   26.9850 O.2   306  GLN306     -0.2717
    143  NE2       83.8500  -71.5560   27.6660 N.am  306  GLN306     -0.0878
    144  N         75.6810  -78.8970   31.9700 N.3   338  ARG338     -0.1245
    145  CA        74.9730  -79.3650   30.7840 C.3   338  ARG338      0.1563
    146  C         73.4860  -78.9970   30.8240 C.2   338  ARG338      0.2260
    147  O         72.9430  -78.4630   29.8480 O.2   338  ARG338     -0.2867
    148  CB        75.1590  -80.8710   30.6430 C.3   338  ARG338      0.0307
    149  CG        76.5570  -81.2700   30.2900 C.3   338  ARG338      0.0489
    150  CD        77.0330  -80.4370   29.1420 C.3   338  ARG338      0.2205
    151  NE        78.2240  -80.9910   28.5160 N.pl3 338  ARG338     -0.0865
    152  CZ        78.8120  -80.4430   27.4580 C.cat 338  ARG338      0.5346
    153  NH1       79.8890  -80.9990   26.9290 N.pl3 338  ARG338      0.1354
    154  NH2       78.3890  -79.2690   27.0060 N.pl3 338  ARG338      0.1354
    155  N         79.8840  -81.2720   33.8050 N.3   354  ASP354     -0.1239
    156  CA        80.8670  -82.0640   33.0690 C.3   354  ASP354      0.1674
    157  C         81.6980  -82.9600   33.9710 C.2   354  ASP354      0.2266
    158  O         82.2170  -83.9810   33.5020 O.2   354  ASP354     -0.2867
    159  CB        81.8000  -81.1210   32.3050 C.3   354  ASP354      0.1410
    160  CG        81.4630  -81.0230   30.8570 C.2   354  ASP354      0.3668
    161  OD1       80.5190  -81.7200   30.4420 O.co2 354  ASP354     -0.2456
    162  OD2       82.1190  -80.2270   30.1440 O.co2 354  ASP354     -0.2456
@<TRIPOS>BOND
     1    47    48    1
     2    65    64    1
     3    62    61    1
     4    62    63    1
     5    59    58    2
     6    61    60    1
     7    57    60    1
     8    57    58    1
     9    57    56    1
    10    58    67   am
    11    48    49    1
    12    48    51    1
    13    64    63    2
    14    64    66    1
    15    83    81   ar
    16    83    85   ar
    17    49    50    2
    18    86    85    1
    19    52    51    1
    20    52    53    1
    21    67    68    1
    22    68    69    1
    23    68    71    1
    24    81    80   ar
    25    85    84   ar
    26    70    69    2
    27    69    75   am
    28    74    72   am
    29    55    53   ar
    30    53    54   ar
    31    75    76    1
    32    72    73    2
    33    72    71    1
    34    80    82   ar
    35    80    79    1
    36    76    79    1
    37    76    77    1
    38    84    82   ar
    39    77    78    2
    40    46    44   am
    41   120   118   ar
    42   120   122   ar
    43   117   118   ar
    44   117   115   ar
    45   118   116   ar
    46   122   121   ar
    47    44    45    2
    48    44    43    1
    49   115   114   ar
    50    92    91    1
    51   116   114   ar
    52   116   119   ar
    53   121   119   ar
    54    91    88    1
    55   114   113    1
    56    87    88    1
    57    90    89    2
    58    43    40    1
    59    39    40    1
    60    89    88    1
    61   113   110    1
    62    40    41    1
    63    96    95    2
    64   110   109    1
    65   110   111    1
    66   109   103   am
    67    41    42    2
    68    36    34   ar
    69    36    37   ar
    70    38    37    1
    71   123   111   am
    72   123   124    1
    73   111   112    2
    74    34    32   ar
    75   129   131   ar
    76   129   128   ar
    77    95    94    1
    78    95   101   am
    79    37    35   ar
    80   103   102    1
    81   103   104    2
    82   131   133   ar
    83    97    94    1
    84    97    98    1
    85   102   101    1
    86   102   105    1
    87    94    93    1
    88   127   124    1
    89   127   128    1
    90    99    98   ar
    91   124   125    1
    92    98   100   ar
    93   128   130   ar
    94    32    31    1
    95    32    33   ar
    96    35    33   ar
    97   105   107    1
    98   105   106    1
    99   133   134    1
   100   133   132   ar
   101    31    28    1
   102   125   126    2
   103   130   132   ar
   104    22    21    2
   105    19    20    1
   106   106   108    1
   107    23    20    1
   108    23    24    1
   109    21    20    1
   110    28    27    1
   111    28    29    1
   112    26    24   am
   113    24    25    2
   114   153   152    1
   115   142   141    2
   116   154   152    1
   117    29    30    2
   118   152   151    2
   119    18    17   ar
   120    18    16   ar
   121   143   141   am
   122    17    15   ar
   123    16    14   ar
   124   141   140    1
   125    15    13   ar
   126    14    13   ar
   127    13    12    1
   128   151   150    1
   129    12     9    1
   130   150   149    1
   131   140   139    1
   132    11    10    2
   133   139   136    1
   134   147   146    2
   135     9    10    1
   136     9     8    1
   137   162   160   ar
   138   149   148    1
   139   161   160   ar
   140     6     7    1
   141     6     5    1
   142   148   145    1
   143   135   136    1
   144   136   137    1
   145   145   146    1
   146   145   144    1
   147   160   159    1
   148     7     1    1
   149     5     2    1
   150     4     3    2
   151   137   138    2
   152     1     2    1
   153   159   156    1
   154     2     3    1
   155   156   155    1
   156   156   157    1
   157   158   157    2
