@<TRIPOS>MOLECULE
tmp/5hynA01.pdb
 99 95 0 0 0
SMALL
GASTEIGER

@<TRIPOS>ATOM
      1  N         79.4830  -76.4710    9.6740 N.3   122  ILE122     -0.1231
      2  CA        80.8380  -76.9700    9.8420 C.3   122  ILE122      0.1678
      3  C         80.7180  -78.3760   10.4180 C.2   122  ILE122      0.2434
      4  O         80.1120  -78.5380   11.4870 O.2   122  ILE122     -0.2733
      5  CB        81.6400  -76.0540   10.7600 C.3   122  ILE122      0.0265
      6  CG1       81.6200  -74.6500   10.1570 C.3   122  ILE122      0.0019
      7  CG2       83.0390  -76.5780   10.8410 C.3   122  ILE122      0.0020
      8  CD1       82.4270  -73.6650   10.8990 C.3   122  ILE122      0.0001
      9  N         81.2050  -79.4070    9.7390 N.am  123  PRO123     -0.2718
     10  CA        81.0100  -80.7570   10.2800 C.3   123  PRO123      0.1535
     11  C         81.6860  -80.8520   11.6370 C.2   123  PRO123      0.2598
     12  O         82.8310  -80.4340   11.8160 O.2   123  PRO123     -0.2715
     13  CB        81.6700  -81.6640    9.2340 C.3   123  PRO123      0.0310
     14  CG        81.7800  -80.8310    8.0460 C.3   123  PRO123      0.0237
     15  CD        81.9850  -79.4310    8.5000 C.3   123  PRO123      0.0939
     16  N         80.9720  -81.3880   12.6030 N.am  124  TYR124     -0.1974
     17  CA        81.5750  -81.6240   13.9030 C.3   124  TYR124      0.1639
     18  C         82.1360  -83.0350   13.8980 C.2   124  TYR124      0.2290
     19  O         81.3840  -84.0170   13.8800 O.2   124  TYR124     -0.2864
     20  CB        80.5820  -81.4010   15.0410 C.3   124  TYR124      0.0560
     21  CG        81.0820  -81.9200   16.3810 C.ar  124  TYR124     -0.0198
     22  CD1       81.9260  -81.1700   17.2150 C.ar  124  TYR124     -0.0009
     23  CD2       80.7050  -83.1830   16.8030 C.ar  124  TYR124     -0.0009
     24  CE1       82.3640  -81.6910   18.4190 C.ar  124  TYR124      0.0417
     25  CE2       81.1370  -83.7020   17.9820 C.ar  124  TYR124      0.0417
     26  CZ        81.9610  -82.9660   18.7910 C.ar  124  TYR124      0.1957
     27  OH        82.3480  -83.5540   19.9710 O.3   124  TYR124     -0.2866
     28  N         86.0850  -82.8200   18.2750 N.3   127  ASP127     -0.1225
     29  CA        86.3330  -82.6610   19.6930 C.3   127  ASP127      0.1805
     30  C         87.1570  -83.8160   20.2280 C.2   127  ASP127      0.2597
     31  O         88.1420  -83.6100   20.9440 O.2   127  ASP127     -0.2718
     32  CB        85.0200  -82.5590   20.4230 C.3   127  ASP127      0.1424
     33  CG        85.0400  -81.4970   21.4230 C.2   127  ASP127      0.3668
     34  OD1       86.1440  -81.1870   21.9220 O.co2 127  ASP127     -0.2456
     35  OD2       83.9560  -80.9330   21.6590 O.co2 127  ASP127     -0.2456
     36  N         86.7580  -85.0450   19.8920 N.am  128  GLU128     -0.1979
     37  CA        87.6160  -86.2020   20.1290 C.3   128  GLU128      0.1602
     38  C         88.8980  -86.1120   19.3050 C.2   128  GLU128      0.2287
     39  O         89.9700  -86.5210   19.7710 O.2   128  GLU128     -0.2864
     40  CB        86.8570  -87.4940   19.8100 C.3   128  GLU128      0.0415
     41  CG        85.8280  -87.9440   20.8550 C.3   128  GLU128      0.1163
     42  CD        84.6970  -86.9440   21.0840 C.2   128  GLU128      0.3649
     43  OE1       84.9750  -85.7850   21.4640 O.co2 128  GLU128     -0.2457
     44  OE2       83.5200  -87.3200   20.8940 O.co2 128  GLU128     -0.2457
     45  N         90.4010  -83.3920   18.6330 N.3   130  LEU130     -0.1231
     46  CA        91.1940  -82.3070   19.2380 C.3   130  LEU130      0.1693
     47  C         91.8930  -81.4730   18.1630 C.2   130  LEU130      0.2592
     48  O         93.0790  -81.1260   18.2710 O.2   130  LEU130     -0.2718
     49  CB        92.2020  -82.8330   20.2720 C.3   130  LEU130      0.0284
     50  CG        91.6970  -83.4630   21.5740 C.3   130  LEU130      0.0019
     51  CD1       92.8580  -84.0370   22.3700 C.3   130  LEU130      0.0001
     52  CD2       90.9470  -82.4330   22.3930 C.3   130  LEU130      0.0001
     53  N         91.1350  -81.1590   17.1100 N.am  131  ASP131     -0.1974
     54  CA        91.4810  -80.1930   16.0680 C.3   131  ASP131      0.1709
     55  C         92.5700  -80.6990   15.1190 C.2   131  ASP131      0.2293
     56  O         93.0960  -79.8970   14.3400 O.2   131  ASP131     -0.2864
     57  CB        91.9340  -78.8410   16.6620 C.3   131  ASP131      0.1436
     58  CG        90.9620  -78.2550   17.7180 C.2   131  ASP131      0.3671
     59  OD1       90.7500  -78.8870   18.7710 O.co2 131  ASP131     -0.2456
     60  OD2       90.4460  -77.1300   17.5300 O.co2 131  ASP131     -0.2456
     61  N         89.9650  -78.3050    8.2710 N.3   137  ILE137     -0.1245
     62  CA        88.9010  -77.3180    8.3470 C.3   137  ILE137      0.1561
     63  C         89.2830  -76.0560    7.5900 C.2   137  ILE137      0.2260
     64  O         88.4460  -75.4410    6.9290 O.2   137  ILE137     -0.2867
     65  CB        88.5740  -77.0090    9.8080 C.3   137  ILE137      0.0252
     66  CG1       88.1950  -78.2910   10.5420 C.3   137  ILE137      0.0019
     67  CG2       87.5070  -75.9380    9.8770 C.3   137  ILE137      0.0019
     68  CD1       86.9740  -78.9660    9.9940 C.3   137  ILE137      0.0001
     69  N         87.1570  -74.7060    4.2960 N.3   141  ILE141     -0.1245
     70  CA        86.5640  -73.3960    4.0560 C.3   141  ILE141      0.1561
     71  C         87.0980  -72.7840    2.7460 C.2   141  ILE141      0.2260
     72  O         86.4250  -71.9470    2.1350 O.2   141  ILE141     -0.2867
     73  CB        86.7990  -72.4860    5.2760 C.3   141  ILE141      0.0252
     74  CG1       86.1350  -73.0730    6.5020 C.3   141  ILE141      0.0019
     75  CG2       86.1510  -71.1320    5.0910 C.3   141  ILE141      0.0019
     76  CD1       86.4160  -72.2720    7.7470 C.3   141  ILE141      0.0001
     77  N         76.7180  -68.4740    9.3750 N.3   150  GLY150     -0.1210
     78  CA        76.9340  -67.1330    8.8960 C.3   150  GLY150      0.1956
     79  C         78.1920  -66.5340    9.4830 C.2   150  GLY150      0.2612
     80  O         78.2560  -66.3650   10.6910 O.2   150  GLY150     -0.2717
     81  N         79.1680  -66.1900    8.6510 N.am  151  ASP151     -0.1959
     82  CA        80.4060  -65.5700    9.0850 C.3   151  ASP151      0.1840
     83  C         80.3250  -64.1070    8.6790 C.2   151  ASP151      0.2621
     84  O         80.4240  -63.8060    7.4980 O.2   151  ASP151     -0.2715
     85  CB        81.6030  -66.2190    8.3900 C.3   151  ASP151      0.1450
     86  CG        82.9200  -65.4720    8.6460 C.2   151  ASP151      0.3671
     87  OD1       83.0340  -64.6530    9.5960 O.co2 151  ASP151     -0.2456
     88  OD2       83.8230  -65.6080    7.7930 O.co2 151  ASP151     -0.2456
     89  N         80.2010  -63.1870    9.6280 N.am  152  ARG152     -0.1977
     90  CA        80.2500  -61.7640    9.2760 C.3   152  ARG152      0.1597
     91  C         80.5500  -60.9220   10.5050 C.2   152  ARG152      0.2287
     92  O         80.3730  -61.3750   11.6400 O.2   152  ARG152     -0.2864
     93  CB        78.9730  -61.2180    8.6360 C.3   152  ARG152      0.0334
     94  CG        77.7150  -61.7720    9.3320 C.3   152  ARG152      0.0492
     95  CD        76.4490  -61.0770    8.9220 C.3   152  ARG152      0.2205
     96  NE        75.8150  -60.4320   10.0790 N.pl3 152  ARG152     -0.0865
     97  CZ        74.7600  -59.6660   10.0050 C.cat 152  ARG152      0.5346
     98  NH1       74.2440  -59.0900   11.0500 N.pl3 152  ARG152      0.1354
     99  NH2       74.2690  -59.4600    8.8580 N.pl3 152  ARG152      0.1354
@<TRIPOS>BOND
     1    72    71    2
     2    71    70    1
     3    70    69    1
     4    70    73    1
     5    75    73    1
     6    73    74    1
     7    74    76    1
     8    64    63    2
     9    84    83    2
    10    63    62    1
    11    88    86   ar
    12    14    15    1
    13    14    13    1
    14    61    62    1
    15    62    65    1
    16    85    86    1
    17    85    82    1
    18    15     9    1
    19    93    90    1
    20    93    94    1
    21    86    87   ar
    22    81    82    1
    23    81    79   am
    24    83    82    1
    25    83    89   am
    26    99    97    1
    27    78    77    1
    28    78    79    1
    29    95    94    1
    30    95    96    1
    31    13    10    1
    32    90    89    1
    33    90    91    1
    34    79    80    2
    35     1     2    1
    36     9    10    1
    37     9     3   am
    38    65    67    1
    39    65    66    1
    40     2     3    1
    41     2     5    1
    42    68    66    1
    43    97    96    2
    44    97    98    1
    45     6     5    1
    46     6     8    1
    47    10    11    1
    48     3     4    2
    49    91    92    2
    50     5     7    1
    51    11    12    2
    52    11    16   am
    53    16    17    1
    54    19    18    2
    55    18    17    1
    56    17    20    1
    57    56    55    2
    58    20    21    1
    59    55    54    1
    60    54    57    1
    61    54    53    1
    62    21    23   ar
    63    21    22   ar
    64    57    58    1
    65    23    25   ar
    66    53    47   am
    67    22    24   ar
    68    60    58   ar
    69    58    59   ar
    70    25    26   ar
    71    47    48    2
    72    47    46    1
    73    28    29    1
    74    24    26   ar
    75    45    46    1
    76    26    27    1
    77    46    49    1
    78    38    39    2
    79    38    37    1
    80    29    30    1
    81    29    32    1
    82    40    37    1
    83    40    41    1
    84    36    37    1
    85    36    30   am
    86    30    31    2
    87    49    50    1
    88    32    33    1
    89    41    42    1
    90    44    42   ar
    91    42    43   ar
    92    33    35   ar
    93    33    34   ar
    94    50    51    1
    95    50    52    1
