@<TRIPOS>MOLECULE
tmp/5hyoA00.pdb
 97 92 0 0 0
SMALL
GASTEIGER

@<TRIPOS>ATOM
      1  N         28.7700   -2.9430  -16.7860 N.3     5  LYS5       -0.1231
      2  CA        29.1870   -1.7230  -16.1410 C.3     5  LYS5        0.1693
      3  C         28.4520   -1.6940  -14.8150 C.2     5  LYS5        0.2592
      4  O         27.2510   -1.4020  -14.7630 O.2     5  LYS5       -0.2718
      5  CB        28.8440   -0.4940  -16.9870 C.3     5  LYS5        0.0285
      6  CG        29.4250    0.7870  -16.4370 C.3     5  LYS5        0.0035
      7  CD        30.9530    0.7410  -16.5960 C.3     5  LYS5        0.0206
      8  CE        31.6400    1.9680  -16.0280 C.3     5  LYS5        0.1093
      9  NZ        33.1080    1.7720  -15.9020 N.3     5  LYS5       -0.1314
     10  N         29.1400   -2.0560  -13.7520 N.am    6  MET6       -0.1965
     11  CA        28.4640   -2.1470  -12.4630 C.3     6  MET6        0.1736
     12  C         29.0390   -1.1490  -11.4850 C.2     6  MET6        0.2616
     13  O         29.9940   -0.4300  -11.7770 O.2     6  MET6       -0.2715
     14  CB        28.5730   -3.5700  -11.8790 C.3     6  MET6        0.0427
     15  CG        29.9930   -4.0760  -11.8520 C.3     6  MET6        0.0599
     16  SD        30.0900   -5.7200  -11.1140 S.3     6  MET6       -0.1393
     17  CE        29.4820   -6.7450  -12.4550 C.3     6  MET6        0.0692
     18  N         28.4600   -1.1460  -10.2990 N.am    7  ALA7       -0.1963
     19  CA        28.9370   -0.3080   -9.2260 C.3     7  ALA7        0.1728
     20  C         29.3200   -1.2070   -8.0760 C.2     7  ALA7        0.2616
     21  O         28.7370   -2.2840   -7.9020 O.2     7  ALA7       -0.2715
     22  CB        27.8640    0.6920   -8.8030 C.3     7  ALA7        0.0334
     23  N         30.3060   -0.7830   -7.2910 N.am    8  GLN8       -0.1977
     24  CA        30.5310   -1.4410   -6.0160 C.3     8  GLN8        0.1601
     25  C         29.3180   -1.2120   -5.0900 C.2     8  GLN8        0.2287
     26  O         28.4670   -0.4030   -5.3790 O.2     8  GLN8       -0.2864
     27  CB        31.8350   -0.9680   -5.4000 C.3     8  GLN8        0.0394
     28  CG        33.0530   -1.3380   -6.2250 C.3     8  GLN8        0.0908
     29  CD        34.3260   -0.7390   -5.6400 C.2     8  GLN8        0.2608
     30  OE1       34.5200    0.4780   -5.6840 O.2     8  GLN8       -0.2717
     31  NE2       35.1830   -1.5880   -5.0490 N.am    8  GLN8       -0.0878
     32  N         37.7500    4.6150  -14.0390 N.3   110  SER110     -0.1202
     33  CA        36.3700    4.3540  -13.6410 C.3   110  SER110      0.2020
     34  C         36.1560    4.6170  -12.1600 C.2   110  SER110      0.2619
     35  O         37.0860    4.5240  -11.3680 O.2   110  SER110     -0.2717
     36  CB        35.9870    2.8990  -13.9610 C.3   110  SER110      0.2103
     37  OG        36.0590    2.6510  -15.3620 O.3   110  SER110     -0.2182
     38  N         34.9200    4.9150  -11.7830 N.am  111  PHE111     -0.1961
     39  CA        34.5670    5.0070  -10.3750 C.3   111  PHE111      0.1771
     40  C         33.0560    4.8780  -10.2510 C.2   111  PHE111      0.2619
     41  O         32.3580    4.7160  -11.2510 O.2   111  PHE111     -0.2715
     42  CB        35.0940    6.3040   -9.7320 C.3   111  PHE111      0.0574
     43  CG        34.5940    7.5920  -10.3850 C.ar  111  PHE111     -0.0200
     44  CD1       33.5270    8.2960   -9.8370 C.ar  111  PHE111     -0.0042
     45  CD2       35.2300    8.1250  -11.5160 C.ar  111  PHE111     -0.0042
     46  CE1       33.0940    9.5110  -10.4070 C.ar  111  PHE111     -0.0003
     47  CE2       34.7850    9.3400  -12.0890 C.ar  111  PHE111     -0.0003
     48  CZ        33.7220   10.0160  -11.5390 C.ar  111  PHE111     -0.0000
     49  N         32.5770    4.8540   -9.0190 N.am  112  ASN112     -0.1972
     50  CA        31.1630    4.7800   -8.7210 C.3   112  ASN112      0.1688
     51  C         30.5710    6.1730   -8.4890 C.2   112  ASN112      0.2292
     52  O         31.2330    7.0420   -7.9360 O.2   112  ASN112     -0.2864
     53  CB        30.9430    3.9010   -7.4890 C.3   112  ASN112      0.1181
     54  CG        31.5990    2.5270   -7.6390 C.2   112  ASN112      0.2629
     55  OD1       31.1250    1.7130   -8.4130 O.2   112  ASN112     -0.2716
     56  ND2       32.7140    2.2950   -6.9390 N.am  112  ASN112     -0.0877
     57  N         28.1920    2.8520  -12.3500 N.3   126  GLY126     -0.1225
     58  CA        29.6090    3.0040  -12.6100 C.3   126  GLY126      0.1811
     59  C         29.7670    4.0120  -13.7400 C.2   126  GLY126      0.2280
     60  O         28.9040    4.1100  -14.6190 O.2   126  GLY126     -0.2866
     61  N         35.5630    5.0900   -5.0370 N.3   150  ASN150     -0.1240
     62  CA        35.9890    3.7160   -5.2500 C.3   150  ASN150      0.1653
     63  C         36.2170    3.0620   -3.9020 C.2   150  ASN150      0.2266
     64  O         36.7660    3.6890   -2.9930 O.2   150  ASN150     -0.2867
     65  CB        37.2490    3.6610   -6.0880 C.3   150  ASN150      0.1155
     66  CG        36.9370    3.5840   -7.5530 C.2   150  ASN150      0.2627
     67  OD1       36.0530    2.8300   -7.9540 O.2   150  ASN150     -0.2716
     68  ND2       37.6260    4.3790   -8.3620 N.am  150  ASN150     -0.0877
     69  N         39.0630   -3.1720  -14.6710 N.3   291  GLU291     -0.1245
     70  CA        37.6570   -3.5580  -14.5560 C.3   291  GLU291      0.1567
     71  C         37.3920   -4.9070  -15.2000 C.2   291  GLU291      0.2260
     72  O         36.6920   -5.7450  -14.6310 O.2   291  GLU291     -0.2867
     73  CB        36.7380   -2.5360  -15.2040 C.3   291  GLU291      0.0388
     74  CG        36.0350   -1.6110  -14.2500 C.3   291  GLU291      0.1160
     75  CD        35.3330   -0.4710  -14.9760 C.2   291  GLU291      0.3649
     76  OE1       36.0210    0.1930  -15.7870 O.co2 291  GLU291     -0.2457
     77  OE2       34.1190   -0.2490  -14.7350 O.co2 291  GLU291     -0.2457
     78  N         38.8580   -7.8560  -13.4700 N.3   294  ARG294     -0.1231
     79  CA        38.1260   -8.0550  -12.2410 C.3   294  ARG294      0.1694
     80  C         36.8550   -8.8430  -12.4710 C.2   294  ARG294      0.2591
     81  O         36.5470   -9.7320  -11.6670 O.2   294  ARG294     -0.2718
     82  CB        37.7690   -6.7330  -11.5690 C.3   294  ARG294      0.0321
     83  CG        38.3600   -6.6010  -10.1810 C.3   294  ARG294      0.0489
     84  CD        37.5850   -5.6250   -9.3050 C.3   294  ARG294      0.2205
     85  NE        37.2070   -4.4110  -10.0230 N.pl3 294  ARG294     -0.0865
     86  CZ        37.8470   -3.2480   -9.9310 C.cat 294  ARG294      0.5346
     87  NH1       38.9100   -3.1230   -9.1420 N.pl3 294  ARG294      0.1354
     88  NH2       37.4190   -2.2050  -10.6320 N.pl3 294  ARG294      0.1354
     89  N         36.0970   -8.5480  -13.5320 N.am  295  GLN295     -0.1979
     90  CA        34.8040   -9.2210  -13.6290 C.3   295  GLN295      0.1601
     91  C         34.9990  -10.5520  -14.3260 C.2   295  GLN295      0.2287
     92  O         34.0850  -11.3510  -14.3610 O.2   295  GLN295     -0.2864
     93  CB        33.7290   -8.4990  -14.4330 C.3   295  GLN295      0.0394
     94  CG        33.7040   -7.0410  -14.4710 C.3   295  GLN295      0.0908
     95  CD        32.3310   -6.4420  -14.6520 C.2   295  GLN295      0.2608
     96  OE1       31.6130   -6.7890  -15.5730 O.2   295  GLN295     -0.2717
     97  NE2       32.1120   -5.3050  -13.9650 N.am  295  GLN295     -0.0878
@<TRIPOS>BOND
     1     5     6    1
     2     5     2    1
     3     1     2    1
     4     7     6    1
     5     7     8    1
     6     2     3    1
     7     8     9    1
     8    76    75   ar
     9    96    95    2
    10    37    36    1
    11    73    70    1
    12    73    74    1
    13    71    72    2
    14    71    70    1
    15    75    77   ar
    16    75    74    1
    17     3     4    2
    18     3    10   am
    19    69    70    1
    20    95    94    1
    21    95    97   am
    22    60    59    2
    23    94    93    1
    24    93    90    1
    25    92    91    2
    26    91    90    1
    27    32    33    1
    28    36    33    1
    29    10    11    1
    30    59    58    1
    31    33    34    1
    32    90    89    1
    33    89    80   am
    34    78    79    1
    35    58    57    1
    36    80    79    1
    37    80    81    2
    38    11    14    1
    39    11    12    1
    40    17    16    1
    41    79    82    1
    42    34    38   am
    43    34    35    2
    44    47    48   ar
    45    47    45   ar
    46    14    15    1
    47    15    16    1
    48    38    39    1
    49    13    12    2
    50    82    83    1
    51    48    46   ar
    52    45    43   ar
    53    12    18   am
    54    41    40    2
    55    88    86    1
    56    46    44   ar
    57    43    44   ar
    58    43    42    1
    59    39    40    1
    60    39    42    1
    61    18    19    1
    62    40    49   am
    63    83    84    1
    64    85    86    2
    65    85    84    1
    66    86    87    1
    67    19    22    1
    68    19    20    1
    69    49    50    1
    70    50    51    1
    71    50    53    1
    72    51    52    2
    73    55    54    2
    74    68    66   am
    75    20    21    2
    76    20    23   am
    77    67    66    2
    78    54    53    1
    79    54    56   am
    80    66    65    1
    81    23    24    1
    82    28    29    1
    83    28    27    1
    84    65    62    1
    85    24    27    1
    86    24    25    1
    87    30    29    2
    88    29    31   am
    89    26    25    2
    90    62    61    1
    91    62    63    1
    92    63    64    2
