@<TRIPOS>MOLECULE
tmp/5hyoB00.pdb
 88 88 0 0 0
SMALL
GASTEIGER

@<TRIPOS>ATOM
      1  N         28.8790  -12.5400  -13.7900 N.3   139  PHE139     -0.1227
      2  CA        29.0060  -13.4490  -12.6600 C.3   139  PHE139      0.1736
      3  C         30.2310  -14.3300  -12.8460 C.2   139  PHE139      0.2595
      4  O         30.5280  -14.7460  -13.9620 O.2   139  PHE139     -0.2718
      5  CB        27.7760  -14.3450  -12.5560 C.3   139  PHE139      0.0547
      6  CG        26.5430  -13.6820  -12.0040 C.ar  139  PHE139     -0.0202
      7  CD1       26.5630  -13.0180  -10.7830 C.ar  139  PHE139     -0.0042
      8  CD2       25.3390  -13.7850  -12.6940 C.ar  139  PHE139     -0.0042
      9  CE1       25.3900  -12.4770  -10.2470 C.ar  139  PHE139     -0.0003
     10  CE2       24.1730  -13.2350  -12.1750 C.ar  139  PHE139     -0.0003
     11  CZ        24.2040  -12.5650  -10.9460 C.ar  139  PHE139     -0.0000
     12  N         30.9560  -14.6190  -11.7810 N.am  140  ILE140     -0.1966
     13  CA        31.9680  -15.6670  -11.9040 C.3   140  ILE140      0.1727
     14  C         31.6550  -16.7440  -10.8610 C.2   140  ILE140      0.2616
     15  O         30.7040  -16.6000  -10.0870 O.2   140  ILE140     -0.2715
     16  CB        33.4050  -15.1370  -11.7350 C.3   140  ILE140      0.0290
     17  CG1       33.5730  -14.4740  -10.3690 C.3   140  ILE140      0.0022
     18  CG2       33.7580  -14.2040  -12.8870 C.3   140  ILE140      0.0023
     19  CD1       34.9540  -14.6540   -9.7710 C.3   140  ILE140      0.0001
     20  N         32.4310  -17.8230  -10.8460 N.am  141  ASN141     -0.1958
     21  CA        32.1480  -18.9220   -9.9320 C.3   141  ASN141      0.1819
     22  C         32.0720  -18.4460   -8.4890 C.2   141  ASN141      0.2622
     23  O         32.8910  -17.6260   -8.0520 O.2   141  ASN141     -0.2715
     24  CB        33.1900  -20.0250  -10.0900 C.3   141  ASN141      0.1195
     25  CG        32.8480  -20.9890  -11.2400 C.2   141  ASN141      0.2630
     26  OD1       33.2120  -20.7510  -12.3930 O.2   141  ASN141     -0.2716
     27  ND2       32.1430  -22.0770  -10.9210 N.am  141  ASN141     -0.0877
     28  N         31.0510  -18.9410   -7.7810 N.am  142  GLY142     -0.1940
     29  CA        30.8050  -18.6280   -6.3780 C.3   142  GLY142      0.2014
     30  C         29.6470  -17.6480   -6.2130 C.2   142  GLY142      0.2639
     31  O         29.2740  -17.3050   -5.0970 O.2   142  GLY142     -0.2714
     32  N         29.0980  -17.1910   -7.3390 N.am  143  ALA143     -0.1963
     33  CA        28.0710  -16.1580   -7.3510 C.3   143  ALA143      0.1728
     34  C         26.6940  -16.6950   -7.0060 C.2   143  ALA143      0.2616
     35  O         25.7840  -15.9170   -6.7400 O.2   143  ALA143     -0.2715
     36  CB        28.0240  -15.4820   -8.7150 C.3   143  ALA143      0.0334
     37  N         26.5160  -18.0190   -7.0560 N.am  144  CYS144     -0.1968
     38  CA        25.1920  -18.5740   -6.7850 C.3   144  CYS144      0.1712
     39  C         24.6190  -18.0880   -5.4570 C.2   144  CYS144      0.2296
     40  O         25.3360  -17.9690   -4.4550 O.2   144  CYS144     -0.2864
     41  CB        25.2320  -20.1110   -6.8140 C.3   144  CYS144      0.0983
     42  SG        25.4870  -20.7160   -8.4910 S.3   144  CYS144     -0.0798
     43  N         20.3490  -16.3550   -7.6520 N.3   162  HIS162     -0.1226
     44  CA        21.1000  -16.7620   -8.8200 C.3   162  HIS162      0.1752
     45  C         21.4800  -18.2400   -8.8190 C.2   162  HIS162      0.2596
     46  O         22.0500  -18.7490   -7.8370 O.2   162  HIS162     -0.2718
     47  CB        22.3550  -15.9170   -9.0060 C.3   162  HIS162      0.0759
     48  CG        23.0990  -16.3010  -10.2440 C.ar  162  HIS162      0.0818
     49  ND1       22.4770  -16.3900  -11.4690 N.ar  162  HIS162     -0.2268
     50  CD2       24.3630  -16.7420  -10.4310 C.ar  162  HIS162      0.1154
     51  CE1       23.3400  -16.8260  -12.3690 C.ar  162  HIS162      0.1986
     52  NE2       24.4970  -17.0210  -11.7650 N.ar  162  HIS162     -0.2212
     53  N         21.1720  -18.9180   -9.9290 N.am  163  GLN163     -0.1965
     54  CA        21.2750  -20.3970   -9.9720 C.3   163  GLN163      0.1733
     55  C         22.2700  -20.9120  -10.9950 C.2   163  GLN163      0.2616
     56  O         23.0790  -21.7710  -10.6750 O.2   163  GLN163     -0.2715
     57  CB        19.9220  -21.0600  -10.2660 C.3   163  GLN163      0.0408
     58  CG        18.8470  -20.8450   -9.2300 C.3   163  GLN163      0.0908
     59  CD        18.8530  -21.8860   -8.1100 C.2   163  GLN163      0.2608
     60  OE1       19.6380  -22.8560   -8.1280 O.2   163  GLN163     -0.2717
     61  NE2       17.9600  -21.6920   -7.1230 N.am  163  GLN163     -0.0878
     62  N         22.2080  -20.4310  -12.2370 N.am  164  LEU164     -0.1963
     63  CA        23.1240  -21.0020  -13.2210 C.3   164  LEU164      0.1728
     64  C         23.4240  -20.1720  -14.4500 C.2   164  LEU164      0.2616
     65  O         22.8290  -19.0840  -14.6990 O.2   164  LEU164     -0.2715
     66  CB        22.6040  -22.3740  -13.6650 C.3   164  LEU164      0.0311
     67  CG        21.1530  -22.4200  -14.1160 C.3   164  LEU164      0.0022
     68  CD1       21.0350  -22.1740  -15.5960 C.3   164  LEU164      0.0001
     69  CD2       20.6140  -23.7790  -13.7630 C.3   164  LEU164      0.0001
     70  N         24.3890  -20.6960  -15.2050 N.am  165  GLU165     -0.1977
     71  CA        24.8700  -20.0650  -16.4180 C.3   165  GLU165      0.1602
     72  C         24.6770  -20.9600  -17.6250 C.2   165  GLU165      0.2287
     73  O         25.0870  -22.1060  -17.6090 O.2   165  GLU165     -0.2864
     74  CB        26.3320  -19.7310  -16.3000 C.3   165  GLU165      0.0415
     75  CG        26.8470  -19.0390  -17.5220 C.3   165  GLU165      0.1163
     76  CD        28.1800  -18.4220  -17.2680 C.2   165  GLU165      0.3649
     77  OE1       29.1170  -18.7090  -18.0400 O.co2 165  GLU165     -0.2457
     78  OE2       28.2920  -17.6650  -16.2760 O.co2 165  GLU165     -0.2457
     79  N         22.3890  -15.6440  -18.0260 N.3   171  HIS171     -0.1245
     80  CA        22.1120  -16.4390  -16.8540 C.3   171  HIS171      0.1576
     81  C         20.6670  -16.5750  -16.4450 C.2   171  HIS171      0.2261
     82  O         19.7960  -15.8730  -16.9270 O.2   171  HIS171     -0.2867
     83  CB        22.8930  -16.0190  -15.5810 C.3   171  HIS171      0.0459
     84  CG        24.1990  -15.3220  -15.7760 C.3   171  HIS171      0.0936
     85  ND1       24.4230  -14.3310  -16.7200 N.3   171  HIS171     -0.1997
     86  CD2       25.4370  -15.7560  -15.4310 C.3   171  HIS171      0.1077
     87  CE1       25.6960  -13.9960  -16.6990 C.3   171  HIS171      0.1782
     88  NE2       26.3480  -14.8820  -15.9600 N.3   171  HIS171     -0.1983
@<TRIPOS>BOND
     1    77    76   ar
     2    79    80    1
     3    72    73    2
     4    72    71    1
     5    75    76    1
     6    75    74    1
     7    76    78   ar
     8    82    81    2
     9    80    81    1
    10    80    83    1
    11    85    87    1
    12    85    84    1
    13    87    88    1
    14    71    74    1
    15    71    70    1
    16    88    86    1
    17    84    83    1
    18    84    86    1
    19    68    67    1
    20    70    64   am
    21    65    64    2
    22    64    63    1
    23    67    69    1
    24    67    66    1
    25     4     3    2
    26     1     2    1
    27    66    63    1
    28    63    62    1
    29    18    16    1
    30     3     2    1
    31     3    12   am
    32     8    10   ar
    33     8     6   ar
    34     2     5    1
    35     5     6    1
    36    26    25    2
    37    51    52   ar
    38    51    49   ar
    39    62    55   am
    40    10    11   ar
    41     6     7   ar
    42    13    12    1
    43    13    16    1
    44    13    14    1
    45    52    50   ar
    46    16    17    1
    47    49    48   ar
    48    25    27   am
    49    25    24    1
    50    55    56    2
    51    55    54    1
    52    11     9   ar
    53    14    20   am
    54    14    15    2
    55    20    21    1
    56     7     9   ar
    57    50    48   ar
    58    17    19    1
    59    57    54    1
    60    57    58    1
    61    48    47    1
    62    24    21    1
    63    54    53    1
    64    21    22    1
    65    53    45   am
    66    58    59    1
    67    47    44    1
    68    44    45    1
    69    44    43    1
    70    45    46    2
    71    36    33    1
    72    42    41    1
    73    22    23    2
    74    22    28   am
    75    60    59    2
    76    59    61   am
    77    28    29    1
    78    33    32    1
    79    33    34    1
    80    32    30   am
    81    37    34   am
    82    37    38    1
    83    34    35    2
    84    41    38    1
    85    38    39    1
    86    29    30    1
    87    30    31    2
    88    39    40    2
