@<TRIPOS>MOLECULE
tmp/5hyvA02.pdb
 90 87 0 0 0
SMALL
GASTEIGER

@<TRIPOS>ATOM
      1  N         18.9280  -17.8310  -21.4600 N.3   469  GLY469     -0.1225
      2  CA        19.9710  -18.0570  -20.4750 C.3   469  GLY469      0.1811
      3  C         20.3940  -19.5050  -20.3120 C.2   469  GLY469      0.2280
      4  O         21.4670  -19.7570  -19.7560 O.2   469  GLY469     -0.2866
      5  N         18.6750  -21.3590  -15.2400 N.3   524  ARG524     -0.1231
      6  CA        19.8690  -22.1840  -15.2470 C.3   524  ARG524      0.1694
      7  C         21.0590  -21.4320  -14.6700 C.2   524  ARG524      0.2592
      8  O         21.8360  -21.9950  -13.8900 O.2   524  ARG524     -0.2718
      9  CB        20.2050  -22.6440  -16.6680 C.3   524  ARG524      0.0321
     10  CG        21.3740  -23.5910  -16.6930 C.3   524  ARG524      0.0489
     11  CD        21.8560  -23.9010  -18.0950 C.3   524  ARG524      0.2205
     12  NE        22.7960  -24.9990  -18.0530 N.pl3 524  ARG524     -0.0865
     13  CZ        23.7740  -25.1850  -18.9220 C.cat 524  ARG524      0.5346
     14  NH1       23.9510  -24.3590  -19.9530 N.pl3 524  ARG524      0.1354
     15  NH2       24.5590  -26.2330  -18.7750 N.pl3 524  ARG524      0.1354
     16  N         21.2080  -20.1630  -15.0470 N.am  525  GLN525     -0.1966
     17  CA        22.4080  -19.3800  -14.8050 C.3   525  GLN525      0.1733
     18  C         22.3520  -18.6250  -13.4800 C.2   525  GLN525      0.2616
     19  O         21.2880  -18.2960  -12.9610 O.2   525  GLN525     -0.2715
     20  CB        22.6320  -18.3980  -15.9570 C.3   525  GLN525      0.0408
     21  CG        21.7360  -17.1560  -16.0120 C.3   525  GLN525      0.0908
     22  CD        20.3940  -17.3570  -16.7060 C.2   525  GLN525      0.2608
     23  OE1       19.8890  -18.4640  -16.8390 O.2   525  GLN525     -0.2717
     24  NE2       19.7970  -16.2590  -17.1140 N.am  525  GLN525     -0.0878
     25  N         23.5360  -18.3040  -12.9530 N.am  526  ASN526     -0.1972
     26  CA        23.6390  -17.5860  -11.6800 C.3   526  ASN526      0.1688
     27  C         23.1910  -16.1360  -11.8120 C.2   526  ASN526      0.2292
     28  O         23.4720  -15.4790  -12.8160 O.2   526  ASN526     -0.2864
     29  CB        25.0890  -17.5840  -11.1850 C.3   526  ASN526      0.1181
     30  CG        25.5650  -18.9480  -10.7550 C.2   526  ASN526      0.2629
     31  OD1       24.7910  -19.8760  -10.5780 O.2   526  ASN526     -0.2716
     32  ND2       26.8650  -19.0760  -10.5950 N.am  526  ASN526     -0.0877
     33  N         22.2750   -2.8490  -13.8160 N.3   567  ASP567     -0.1239
     34  CA        23.5020   -2.4930  -14.5180 C.3   567  ASP567      0.1674
     35  C         23.2560   -1.4060  -15.5650 C.2   567  ASP567      0.2266
     36  O         24.1100   -0.5270  -15.7750 O.2   567  ASP567     -0.2867
     37  CB        24.1160   -3.7370  -15.1490 C.3   567  ASP567      0.1410
     38  CG        24.7410   -4.6640  -14.1250 C.2   567  ASP567      0.3668
     39  OD1       25.0960   -4.1920  -13.0250 O.co2 567  ASP567     -0.2456
     40  OD2       24.8960   -5.8700  -14.4260 O.co2 567  ASP567     -0.2456
     41  N         25.2720  -18.9590  -23.4160 N.3   638  ALA638     -0.1231
     42  CA        24.2390  -17.9840  -23.0920 C.3   638  ALA638      0.1679
     43  C         24.7090  -16.5370  -23.1380 C.2   638  ALA638      0.2434
     44  O         23.9740  -15.7010  -23.6920 O.2   638  ALA638     -0.2733
     45  CB        23.6020  -18.3210  -21.7450 C.3   638  ALA638      0.0304
     46  N         25.8740  -16.1660  -22.6060 N.am  639  PRO639     -0.2729
     47  CA        26.2650  -14.7490  -22.6800 C.3   639  PRO639      0.1401
     48  C         26.3660  -14.2420  -24.0950 C.2   639  PRO639      0.2269
     49  O         26.0890  -13.0630  -24.3460 O.2   639  PRO639     -0.2865
     50  CB        27.6200  -14.7150  -21.9600 C.3   639  PRO639      0.0296
     51  CG        27.6280  -15.9030  -21.1050 C.3   639  PRO639      0.0237
     52  CD        26.8480  -16.9570  -21.8260 C.3   639  PRO639      0.0939
     53  N         22.7690  -13.4230  -25.2800 N.3   642  PHE642     -0.1227
     54  CA        22.3360  -12.1320  -24.7530 C.3   642  PHE642      0.1736
     55  C         22.9850  -10.9910  -25.5200 C.2   642  PHE642      0.2595
     56  O         22.3310   -9.9960  -25.8420 O.2   642  PHE642     -0.2718
     57  CB        22.6520  -12.0180  -23.2520 C.3   642  PHE642      0.0547
     58  CG        21.6180  -12.6670  -22.3760 C.ar  642  PHE642     -0.0202
     59  CD1       21.5360  -14.0310  -22.2680 C.ar  642  PHE642     -0.0042
     60  CD2       20.7050  -11.8950  -21.6950 C.ar  642  PHE642     -0.0042
     61  CE1       20.5690  -14.6190  -21.4750 C.ar  642  PHE642     -0.0003
     62  CE2       19.7410  -12.4860  -20.9100 C.ar  642  PHE642     -0.0003
     63  CZ        19.6820  -13.8470  -20.8100 C.ar  642  PHE642     -0.0000
     64  N         24.2800  -11.1140  -25.8210 N.am  643  LYS643     -0.1980
     65  CA        24.9470  -10.0750  -26.5930 C.3   643  LYS643      0.1596
     66  C         24.3440   -9.9450  -27.9890 C.2   643  LYS643      0.2287
     67  O         24.1250   -8.8300  -28.4760 O.2   643  LYS643     -0.2864
     68  CB        26.4470  -10.3450  -26.6580 C.3   643  LYS643      0.0298
     69  CG        27.1790  -10.0890  -25.3550 C.3   643  LYS643      0.0038
     70  CD        28.6320  -10.5530  -25.4670 C.3   643  LYS643      0.0206
     71  CE        29.2600  -10.8710  -24.1210 C.3   643  LYS643      0.1093
     72  NZ        29.4490   -9.6730  -23.2810 N.3   643  LYS643     -0.1314
     73  N         20.6170   -7.7260  -25.1560 N.3   647  PHE647     -0.1241
     74  CA        20.2110   -7.7360  -23.7510 C.3   647  PHE647      0.1605
     75  C         21.4720   -7.6070  -22.9050 C.2   647  PHE647      0.2264
     76  O         21.9370   -8.5460  -22.2620 O.2   647  PHE647     -0.2867
     77  CB        19.3720   -8.9560  -23.4110 C.3   647  PHE647      0.0534
     78  CG        17.9370   -8.8230  -23.8730 C.ar  647  PHE647     -0.0203
     79  CD1       17.5710   -9.1510  -25.1480 C.ar  647  PHE647     -0.0042
     80  CD2       16.9670   -8.3030  -23.0330 C.ar  647  PHE647     -0.0042
     81  CE1       16.2630   -8.9840  -25.5680 C.ar  647  PHE647     -0.0003
     82  CE2       15.6650   -8.1500  -23.4590 C.ar  647  PHE647     -0.0003
     83  CZ        15.3300   -8.4720  -24.7180 C.ar  647  PHE647     -0.0000
     84  N         23.8340   -4.2900  -20.6610 N.3   649  PRO649     -0.2116
     85  CA        23.6050   -2.9860  -20.0240 C.3   649  PRO649      0.1372
     86  C         23.5430   -1.8560  -21.0350 C.2   649  PRO649      0.2244
     87  O         22.6910   -0.9660  -20.9240 O.2   649  PRO649     -0.2868
     88  CB        24.7700   -2.8790  -19.0430 C.3   649  PRO649      0.0268
     89  CG        25.0800   -4.3150  -18.6830 C.3   649  PRO649      0.0207
     90  CD        24.8820   -5.0650  -19.9820 C.3   649  PRO649      0.0892
@<TRIPOS>BOND
     1    67    66    2
     2    66    65    1
     3    68    65    1
     4    68    69    1
     5    65    64    1
     6    56    55    2
     7    64    55   am
     8    81    79   ar
     9    81    83   ar
    10    55    54    1
    11    70    69    1
    12    70    71    1
    13    53    54    1
    14    73    74    1
    15    79    78   ar
    16    54    57    1
    17    83    82   ar
    18    49    48    2
    19    71    72    1
    20    48    47    1
    21    78    77    1
    22    78    80   ar
    23    74    77    1
    24    74    75    1
    25    44    43    2
    26    82    80   ar
    27    41    42    1
    28    57    58    1
    29    43    42    1
    30    43    46   am
    31    42    45    1
    32    75    76    2
    33    47    46    1
    34    47    50    1
    35    46    52    1
    36    58    59   ar
    37    58    60   ar
    38    59    61   ar
    39    50    51    1
    40    52    51    1
    41    60    62   ar
    42    61    63   ar
    43     1     2    1
    44    86    87    2
    45    86    85    1
    46    62    63   ar
    47    84    85    1
    48    84    90    1
    49     2     3    1
    50     3     4    2
    51    85    88    1
    52    90    89    1
    53    14    13    1
    54    88    89    1
    55    13    15    1
    56    13    12    2
    57    11    12    1
    58    11    10    1
    59    24    22   am
    60    23    22    2
    61    22    21    1
    62    10     9    1
    63     9     6    1
    64    21    20    1
    65    20    17    1
    66    36    35    2
    67    35    34    1
    68     6     5    1
    69     6     7    1
    70    37    34    1
    71    37    38    1
    72    16    17    1
    73    16     7   am
    74    17    18    1
    75     7     8    2
    76    34    33    1
    77    40    38   ar
    78    38    39   ar
    79    18    19    2
    80    18    25   am
    81    25    26    1
    82    28    27    2
    83    27    26    1
    84    26    29    1
    85    29    30    1
    86    30    32   am
    87    30    31    2
