@<TRIPOS>MOLECULE
tmp/5hyxA01.pdb
 90 80 0 0 0
SMALL
GASTEIGER

@<TRIPOS>ATOM
      1  N         36.1110  134.5500  -60.0510 N.3   494  ALA494     -0.1231
      2  CA        35.4360  134.8240  -61.3300 C.3   494  ALA494      0.1694
      3  C         33.9420  135.1680  -61.2410 C.2   494  ALA494      0.2591
      4  O         33.2760  134.8240  -60.2700 O.2   494  ALA494     -0.2718
      5  CB        35.6600  133.6670  -62.3030 C.3   494  ALA494      0.0304
      6  N         33.4280  135.8290  -62.2800 N.am  495  LYS495     -0.1980
      7  CA        32.0470  136.3090  -62.3110 C.3   495  LYS495      0.1596
      8  C         31.7190  137.1210  -61.0660 C.2   495  LYS495      0.2287
      9  O         30.7990  136.7920  -60.3160 O.2   495  LYS495     -0.2864
     10  CB        31.0310  135.1760  -62.5050 C.3   495  LYS495      0.0298
     11  CG        31.3710  134.2230  -63.6200 C.3   495  LYS495      0.0038
     12  CD        30.2740  133.1790  -63.8350 C.3   495  LYS495      0.0206
     13  CE        30.6720  132.1870  -64.9420 C.3   495  LYS495      0.1093
     14  NZ        29.5820  131.2350  -65.2950 N.3   495  LYS495     -0.1314
     15  N         41.9810  132.4380  -61.1900 N.3   516  ASN516     -0.1240
     16  CA        40.9160  132.8150  -62.0810 C.3   516  ASN516      0.1653
     17  C         40.3190  134.1540  -61.6930 C.2   516  ASN516      0.2266
     18  O         39.5760  134.2580  -60.7280 O.2   516  ASN516     -0.2867
     19  CB        39.8340  131.7550  -62.0650 C.3   516  ASN516      0.1155
     20  CG        38.8440  131.9360  -63.1840 C.2   516  ASN516      0.2627
     21  OD1       38.8560  132.9500  -63.8810 O.2   516  ASN516     -0.2716
     22  ND2       37.9750  130.9590  -63.3640 N.am  516  ASN516     -0.0877
     23  N         38.5720  135.7880  -64.1340 N.3   518  GLY518     -0.1210
     24  CA        37.6390  135.9510  -65.2380 C.3   518  GLY518      0.1956
     25  C         36.2850  136.6000  -64.9690 C.2   518  GLY518      0.2611
     26  O         35.7880  136.5590  -63.8500 O.2   518  GLY518     -0.2717
     27  N         35.7030  137.2160  -66.0050 N.am  519  GLU519     -0.1979
     28  CA        34.4100  137.8890  -65.9150 C.3   519  GLU519      0.1602
     29  C         34.3440  138.8380  -64.7170 C.2   519  GLU519      0.2287
     30  O         33.5670  138.6410  -63.7830 O.2   519  GLU519     -0.2864
     31  CB        33.2650  136.8770  -65.8350 C.3   519  GLU519      0.0415
     32  CG        32.8240  136.2850  -67.1460 C.3   519  GLU519      0.1163
     33  CD        31.5450  135.4690  -67.0150 C.2   519  GLU519      0.3649
     34  OE1       30.4870  136.0660  -66.7280 O.co2 519  GLU519     -0.2457
     35  OE2       31.5950  134.2340  -67.1940 O.co2 519  GLU519     -0.2457
     36  N         46.1820  126.7760  -64.1380 N.3   539  SER539     -0.1217
     37  CA        45.5620  127.7700  -65.0180 C.3   539  SER539      0.1889
     38  C         45.6740  129.2410  -64.5770 C.2   539  SER539      0.2288
     39  O         45.6830  129.5690  -63.3820 O.2   539  SER539     -0.2866
     40  CB        44.0980  127.4010  -65.3300 C.3   539  SER539      0.2089
     41  OG        43.1850  128.2970  -64.7130 O.3   539  SER539     -0.2183
     42  N         43.4600  132.5060  -65.6940 N.3   541  ASN541     -0.1240
     43  CA        42.3200  133.0190  -66.4450 C.3   541  ASN541      0.1653
     44  C         42.1310  134.5060  -66.1430 C.2   541  ASN541      0.2266
     45  O         41.7540  134.8780  -65.0360 O.2   541  ASN541     -0.2867
     46  CB        41.0580  132.2120  -66.1100 C.3   541  ASN541      0.1155
     47  CG        39.9410  132.4110  -67.1210 C.2   541  ASN541      0.2627
     48  OD1       39.9020  133.4280  -67.8180 O.2   541  ASN541     -0.2716
     49  ND2       39.0090  131.4360  -67.1890 N.am  541  ASN541     -0.0877
     50  N         40.3580  136.3700  -68.5570 N.3   543  SER543     -0.1202
     51  CA        39.4000  136.7270  -69.6090 C.3   543  SER543      0.2020
     52  C         38.1970  137.5550  -69.1520 C.2   543  SER543      0.2619
     53  O         37.8990  137.6340  -67.9660 O.2   543  SER543     -0.2717
     54  CB        38.8910  135.4740  -70.3240 C.3   543  SER543      0.2103
     55  OG        37.9650  134.7840  -69.5010 O.3   543  SER543     -0.2182
     56  N         37.5320  138.1840  -70.1210 N.am  544  CYS544     -0.1969
     57  CA        36.3180  138.9730  -69.8960 C.3   544  CYS544      0.1712
     58  C         36.4880  140.0810  -68.8610 C.2   544  CYS544      0.2296
     59  O         35.6480  140.3070  -67.9770 O.2   544  CYS544     -0.2864
     60  CB        35.1350  138.0730  -69.5750 C.3   544  CYS544      0.0983
     61  SG        34.9390  136.7320  -70.7690 S.3   544  CYS544     -0.0798
     62  N         47.5880  126.2340  -69.0010 N.3   563  VAL563     -0.1245
     63  CA        46.3870  126.8340  -69.5730 C.3   563  VAL563      0.1561
     64  C         46.3800  128.3410  -69.3270 C.2   563  VAL563      0.2260
     65  O         46.5270  128.7950  -68.1820 O.2   563  VAL563     -0.2867
     66  CB        45.1060  126.2140  -68.9650 C.3   563  VAL563      0.0252
     67  CG1       43.8650  126.9370  -69.4730 C.3   563  VAL563      0.0019
     68  CG2       45.0250  124.7250  -69.2700 C.3   563  VAL563      0.0019
     69  N         44.1780  131.9270  -70.4350 N.3   565  ASP565     -0.1239
     70  CA        43.0570  132.5880  -71.1040 C.3   565  ASP565      0.1674
     71  C         43.0360  134.0830  -70.7890 C.2   565  ASP565      0.2266
     72  O         42.6910  134.4970  -69.6830 O.2   565  ASP565     -0.2867
     73  CB        41.7320  131.9430  -70.6610 C.3   565  ASP565      0.1410
     74  CG        40.5270  132.4080  -71.4880 C.2   565  ASP565      0.3668
     75  OD1       40.6140  133.4610  -72.1550 O.co2 565  ASP565     -0.2456
     76  OD2       39.4780  131.7210  -71.4560 O.co2 565  ASP565     -0.2456
     77  N         46.9030  125.0100  -73.6620 N.3   586  SER586     -0.1217
     78  CA        45.6920  125.7130  -74.0380 C.3   586  SER586      0.1889
     79  C         45.9130  127.2210  -73.9830 C.2   586  SER586      0.2288
     80  O         46.3800  127.7690  -72.9750 O.2   586  SER586     -0.2866
     81  CB        44.5460  125.2820  -73.1170 C.3   586  SER586      0.2089
     82  OG        43.2900  125.6940  -73.6220 O.3   586  SER586     -0.2183
     83  N         43.8660  130.7700  -75.0590 N.3   588  ASN588     -0.1240
     84  CA        42.7590  131.5090  -75.6430 C.3   588  ASN588      0.1653
     85  C         43.1260  132.9980  -75.6700 C.2   588  ASN588      0.2266
     86  O         43.1800  133.6600  -74.6200 O.2   588  ASN588     -0.2867
     87  CB        41.4630  131.2350  -74.8620 C.3   588  ASN588      0.1155
     88  CG        40.2130  131.5940  -75.6500 C.2   588  ASN588      0.2627
     89  OD1       40.2790  132.4550  -76.5200 O.2   588  ASN588     -0.2716
     90  ND2       39.0550  130.9530  -75.3430 N.am  588  ASN588     -0.0877
@<TRIPOS>BOND
     1    89    88    2
     2    85    84    1
     3    85    86    2
     4    88    90   am
     5    88    87    1
     6    84    83    1
     7    84    87    1
     8    78    79    1
     9    78    77    1
    10    78    81    1
    11    79    80    2
    12    82    81    1
    13    75    74   ar
    14    74    76   ar
    15    74    73    1
    16    70    71    1
    17    70    73    1
    18    70    69    1
    19    71    72    2
    20    61    60    1
    21    54    51    1
    22    54    55    1
    23    56    57    1
    24    56    52   am
    25    57    60    1
    26    57    58    1
    27    51    52    1
    28    51    50    1
    29    63    64    1
    30    63    62    1
    31    63    66    1
    32    67    66    1
    33    64    65    2
    34    68    66    1
    35    52    53    2
    36    58    59    2
    37    48    47    2
    38    35    33   ar
    39    49    47   am
    40    32    33    1
    41    32    31    1
    42    47    46    1
    43    33    34   ar
    44    43    44    1
    45    43    46    1
    46    43    42    1
    47    44    45    2
    48    27    28    1
    49    27    25   am
    50    28    31    1
    51    28    29    1
    52    40    37    1
    53    40    41    1
    54    14    13    1
    55    24    25    1
    56    24    23    1
    57    37    38    1
    58    37    36    1
    59    25    26    2
    60    13    12    1
    61    29    30    2
    62    38    39    2
    63    21    20    2
    64    12    11    1
    65    11    10    1
    66    22    20   am
    67    20    19    1
    68    10     7    1
    69     7     6    1
    70     7     8    1
    71     5     2    1
    72     6     3   am
    73    16    19    1
    74    16    17    1
    75    16    15    1
    76    17    18    2
    77     2     3    1
    78     2     1    1
    79     3     4    2
    80     8     9    2
