@<TRIPOS>MOLECULE
tmp/5hz5A00.pdb
 210 191 0 0 0
SMALL
GASTEIGER

@<TRIPOS>ATOM
      1  N         -9.2950    0.9860   -3.1160 N.3    18  PHE18      -0.1241
      2  CA        -9.9440    1.4160   -4.3490 C.3    18  PHE18       0.1605
      3  C         -9.7300    0.4250   -5.4860 C.2    18  PHE18       0.2264
      4  O        -10.6640    0.1440   -6.2440 O.2    18  PHE18      -0.2867
      5  CB        -9.5160    2.8370   -4.7170 C.3    18  PHE18       0.0534
      6  CG       -10.3100    3.4360   -5.8450 C.ar   18  PHE18      -0.0203
      7  CD1      -11.6920    3.5450   -5.7680 C.ar   18  PHE18      -0.0042
      8  CD2       -9.6700    3.8990   -6.9730 C.ar   18  PHE18      -0.0042
      9  CE1      -12.4160    4.1030   -6.8220 C.ar   18  PHE18      -0.0003
     10  CE2      -10.3890    4.4590   -8.0180 C.ar   18  PHE18      -0.0003
     11  CZ       -11.7520    4.5540   -7.9370 C.ar   18  PHE18      -0.0000
     12  N        -12.0870   -2.4060   -4.9600 N.3    21  TYR21      -0.1227
     13  CA       -13.4550   -2.0020   -5.2670 C.3    21  TYR21       0.1736
     14  C        -13.6820   -1.9550   -6.7730 C.2    21  TYR21       0.2595
     15  O        -14.7000   -2.4460   -7.2780 O.2    21  TYR21      -0.2718
     16  CB       -13.7230   -0.6420   -4.6220 C.3    21  TYR21       0.0548
     17  CG       -15.0570   -0.0380   -4.9690 C.ar   21  TYR21      -0.0200
     18  CD1      -16.2270   -0.5490   -4.4240 C.ar   21  TYR21      -0.0009
     19  CD2      -15.1420    1.0670   -5.8170 C.ar   21  TYR21      -0.0009
     20  CE1      -17.4550    0.0180   -4.7210 C.ar   21  TYR21       0.0417
     21  CE2      -16.3600    1.6370   -6.1150 C.ar   21  TYR21       0.0417
     22  CZ       -17.5170    1.1120   -5.5750 C.ar   21  TYR21       0.1957
     23  OH       -18.7430    1.6860   -5.8920 O.3    21  TYR21      -0.2866
     24  N        -12.7140   -1.4280   -7.5160 N.am   22  MET22      -0.1979
     25  CA       -12.8530   -1.4090   -8.9680 C.3    22  MET22       0.1605
     26  C        -12.9040   -2.8180   -9.5440 C.2    22  MET22       0.2287
     27  O        -13.6340   -3.0720  -10.5090 O.2    22  MET22      -0.2864
     28  CB       -11.7200   -0.6040   -9.6060 C.3    22  MET22       0.0413
     29  CG       -11.8680    0.9070   -9.4030 C.3    22  MET22       0.0598
     30  SD       -10.7990    1.8920  -10.4640 S.3    22  MET22      -0.1393
     31  CE        -9.2180    1.4550   -9.7600 C.3    22  MET22       0.0692
     32  N        -16.3230   -4.1120   -9.1230 N.3    25  LEU25      -0.1245
     33  CA       -17.2420   -3.4910  -10.0770 C.3    25  LEU25       0.1561
     34  C        -17.1430   -4.0810  -11.4710 C.2    25  LEU25       0.2260
     35  O        -18.0010   -3.7740  -12.3080 O.2    25  LEU25      -0.2867
     36  CB       -16.9500   -2.0010  -10.2300 C.3    25  LEU25       0.0270
     37  CG       -17.3690   -1.0620   -9.1100 C.3    25  LEU25       0.0019
     38  CD1      -16.9290    0.3690   -9.4170 C.3    25  LEU25       0.0001
     39  CD2      -18.8690   -1.1450   -8.8470 C.3    25  LEU25       0.0001
     40  N        -14.3230   -3.5270  -13.4630 N.3    27  VAL27      -0.1245
     41  CA       -13.6500   -2.5240  -14.2910 C.3    27  VAL27       0.1561
     42  C        -12.4110   -3.1310  -14.9420 C.2    27  VAL27       0.2260
     43  O        -11.6090   -3.7990  -14.2800 O.2    27  VAL27      -0.2867
     44  CB       -13.2910   -1.2830  -13.4520 C.3    27  VAL27       0.0252
     45  CG1      -12.6020   -0.2450  -14.3100 C.3    27  VAL27       0.0019
     46  CG2      -14.5390   -0.6710  -12.8260 C.3    27  VAL27       0.0019
     47  N         -9.0390    1.1940  -17.3090 N.3    31  LEU31      -0.1245
     48  CA        -9.6630    2.0990  -16.3510 C.3    31  LEU31       0.1561
     49  C         -9.1070    1.9220  -14.9400 C.2    31  LEU31       0.2260
     50  O         -9.0080    2.9040  -14.1920 O.2    31  LEU31      -0.2867
     51  CB       -11.1830    1.9460  -16.3880 C.3    31  LEU31       0.0270
     52  CG       -11.9160    2.5430  -17.5940 C.3    31  LEU31       0.0019
     53  CD1      -13.2900    1.8980  -17.7860 C.3    31  LEU31       0.0001
     54  CD2      -12.0670    4.0450  -17.4110 C.3    31  LEU31       0.0001
     55  N         -5.8710    3.8260  -14.6880 N.3    34  MET34      -0.1230
     56  CA        -6.2120    5.2460  -14.5950 C.3    34  MET34       0.1702
     57  C         -6.6300    5.6060  -13.1780 C.2    34  MET34       0.2592
     58  O         -6.1640    6.5920  -12.5990 O.2    34  MET34      -0.2718
     59  CB        -7.3550    5.5580  -15.5660 C.3    34  MET34       0.0401
     60  CG        -7.7570    7.0370  -15.6800 C.3    34  MET34       0.0596
     61  SD        -8.5310    7.7930  -14.2250 S.3    34  MET34      -0.1393
     62  CE        -9.9690    6.7570  -13.9810 C.3    34  MET34       0.0692
     63  N         -7.5350    4.8080  -12.6050 N.am   35  GLY35      -0.1957
     64  CA        -8.0440    5.1150  -11.2810 C.3    35  GLY35       0.1869
     65  C         -7.0140    4.9420  -10.1880 C.2    35  GLY35       0.2309
     66  O         -7.0900    5.6090   -9.1500 O.2    35  GLY35      -0.2863
     67  N         -4.7450    8.3080  -10.9170 N.3    38  ALA38      -0.1245
     68  CA        -5.3180    9.6410  -10.9590 C.3    38  ALA38       0.1562
     69  C         -5.3540   10.2330   -9.5540 C.2    38  ALA38       0.2260
     70  O         -5.4930    9.5260   -8.5520 O.2    38  ALA38      -0.2867
     71  CB        -6.7170    9.6270  -11.5820 C.3    38  ALA38       0.0290
     72  N         -7.5990   12.8900   -8.2280 N.3    40  PRO40      -0.2116
     73  CA        -8.7110   13.7700   -8.5990 C.3    40  PRO40       0.1372
     74  C         -9.0100   14.8350   -7.5630 C.2    40  PRO40       0.2244
     75  O         -8.7320   14.6920   -6.3680 O.2    40  PRO40      -0.2868
     76  CB        -9.8900   12.8000   -8.7290 C.3    40  PRO40       0.0268
     77  CG        -9.5650   11.7300   -7.7320 C.3    40  PRO40       0.0207
     78  CD        -8.0700   11.5500   -7.8260 C.3    40  PRO40       0.0892
     79  N        -12.5390   16.5960   -6.2830 N.3    42  CYS42      -0.1235
     80  CA       -13.9920   16.4480   -6.2690 C.3    42  CYS42       0.1677
     81  C        -14.5900   17.8110   -5.9350 C.2    42  CYS42       0.2270
     82  O        -14.1930   18.4100   -4.9300 O.2    42  CYS42      -0.2867
     83  CB       -14.3600   15.4560   -5.1550 C.3    42  CYS42       0.0956
     84  SG       -16.1010   15.0630   -4.8450 S.3    42  CYS42      -0.0801
     85  N        -15.8700   15.4440  -10.7390 N.3    55  THR55      -0.1218
     86  CA       -14.5740   14.8730  -10.4010 C.3    55  THR55       0.1862
     87  C        -13.6170   15.2550  -11.5130 C.2    55  THR55       0.2287
     88  O        -13.8920   14.9840  -12.6810 O.2    55  THR55      -0.2866
     89  CB       -14.7150   13.3580  -10.3090 C.3    55  THR55       0.1770
     90  OG1      -15.6850   13.0540   -9.3030 O.3    55  THR55      -0.2211
     91  CG2      -13.3860   12.7060   -9.9590 C.3    55  THR55       0.0375
     92  N         -9.6170   15.3270  -12.9970 N.3    57  SER57      -0.1217
     93  CA        -8.2130   14.9640  -12.9660 C.3    57  SER57       0.1889
     94  C         -7.6850   15.0430  -14.3830 C.2    57  SER57       0.2288
     95  O         -8.4500   15.0180  -15.3480 O.2    57  SER57      -0.2866
     96  CB        -8.0010   13.5540  -12.4090 C.3    57  SER57       0.2089
     97  OG        -8.4460   12.5730  -13.3240 O.3    57  SER57      -0.2183
     98  N         -9.0170   11.8730  -16.0560 N.3    60  LYS60      -0.1245
     99  CA       -10.4390   11.6730  -16.3000 C.3    60  LYS60       0.1561
    100  C        -11.2640   12.6590  -15.4860 C.2    60  LYS60       0.2260
    101  O        -10.9520   12.9310  -14.3240 O.2    60  LYS60      -0.2867
    102  CB       -10.8850   10.2400  -15.9830 C.3    60  LYS60       0.0271
    103  CG       -12.3160    9.9520  -16.4140 C.3    60  LYS60       0.0035
    104  CD       -12.7320    8.5390  -16.0800 C.3    60  LYS60       0.0206
    105  CE       -13.5360    7.9370  -17.2150 C.3    60  LYS60       0.1093
    106  NZ       -14.6840    8.8010  -17.6170 N.3    60  LYS60      -0.1314
    107  N        -15.5010   13.5720  -14.6830 N.3    62  THR62      -0.1218
    108  CA       -16.8860   13.1320  -14.7310 C.3    62  THR62       0.1862
    109  C        -17.7180   14.1410  -13.9510 C.2    62  THR62       0.2287
    110  O        -17.1870   14.9110  -13.1500 O.2    62  THR62      -0.2866
    111  CB       -17.0610   11.7610  -14.0590 C.3    62  THR62       0.1770
    112  OG1      -16.8960   11.9010  -12.6390 O.3    62  THR62      -0.2211
    113  CG2      -16.0410   10.7670  -14.5680 C.3    62  THR62       0.0375
    114  N        -18.0340    6.7150  -13.7810 N.3    77  ALA77      -0.1231
    115  CA       -16.7270    6.9230  -14.4050 C.3    77  ALA77       0.1694
    116  C        -16.3180    5.7330  -15.2590 C.2    77  ALA77       0.2592
    117  O        -15.6930    5.8970  -16.3110 O.2    77  ALA77      -0.2718
    118  CB       -15.6720    7.1890  -13.3350 C.3    77  ALA77       0.0304
    119  N        -16.6660    4.5300  -14.8270 N.am   78  ASP78      -0.1974
    120  CA       -16.3370    3.3180  -15.5570 C.3    78  ASP78       0.1709
    121  C        -17.3710    2.9550  -16.6110 C.2    78  ASP78       0.2293
    122  O        -17.2030    1.9380  -17.2910 O.2    78  ASP78      -0.2864
    123  CB       -16.1400    2.1490  -14.5880 C.3    78  ASP78       0.1436
    124  CG       -17.3290    1.9490  -13.6640 C.2    78  ASP78       0.3671
    125  OD1      -17.7240    2.9050  -12.9680 O.co2  78  ASP78      -0.2456
    126  OD2      -17.8650    0.8230  -13.6410 O.co2  78  ASP78      -0.2456
    127  N        -20.8600    2.4270  -16.3440 N.3    80  ARG80      -0.1245
    128  CA       -22.1390    1.8430  -15.9900 C.3    80  ARG80       0.1563
    129  C        -23.2270    2.9040  -16.1020 C.2    80  ARG80       0.2260
    130  O        -22.9900    4.0980  -15.9000 O.2    80  ARG80      -0.2867
    131  CB       -22.0970    1.3130  -14.5580 C.3    80  ARG80       0.0307
    132  CG       -21.3050    0.0160  -14.3880 C.3    80  ARG80       0.0489
    133  CD       -21.1040   -0.3020  -12.9020 C.3    80  ARG80       0.2205
    134  NE       -20.2330    0.6950  -12.2890 N.pl3  80  ARG80      -0.0865
    135  CZ       -20.4590    1.3380  -11.1530 C.cat  80  ARG80       0.5346
    136  NH1      -21.5270    1.0600  -10.4030 N.pl3  80  ARG80       0.1354
    137  NH2      -19.5800    2.2520  -10.7440 N.pl3  80  ARG80       0.1354
    138  N        -25.1480    7.8530   -1.4400 N.3    95  GLN95      -0.1245
    139  CA       -25.4270    7.6390   -2.8530 C.3    95  GLN95       0.1566
    140  C        -25.5710    6.1400   -3.0890 C.2    95  GLN95       0.2260
    141  O        -24.6220    5.3780   -2.8860 O.2    95  GLN95      -0.2867
    142  CB       -24.3010    8.2460   -3.6950 C.3    95  GLN95       0.0367
    143  CG       -24.4060    8.0220   -5.1860 C.3    95  GLN95       0.0905
    144  CD       -23.2210    8.6060   -5.9470 C.2    95  GLN95       0.2608
    145  OE1      -22.3550    9.2720   -5.3690 O.2    95  GLN95      -0.2717
    146  NE2      -23.1750    8.3540   -7.2490 N.am   95  GLN95      -0.0878
    147  N        -26.4180    3.1470   -5.7430 N.3    97  GLN97      -0.1245
    148  CA       -26.4260    2.8220   -7.1720 C.3    97  GLN97       0.1566
    149  C        -26.9460    1.4060   -7.3760 C.2    97  GLN97       0.2260
    150  O        -26.4910    0.4760   -6.7020 O.2    97  GLN97      -0.2867
    151  CB       -25.0180    2.8960   -7.7780 C.3    97  GLN97       0.0367
    152  CG       -24.3530    4.2430   -7.6630 C.3    97  GLN97       0.0905
    153  CD       -22.9230    4.2160   -8.1690 C.2    97  GLN97       0.2608
    154  OE1      -22.2390    3.1860   -8.1010 O.2    97  GLN97      -0.2717
    155  NE2      -22.4560    5.3470   -8.6680 N.am   97  GLN97      -0.0878
    156  N        -22.1090    4.6230   -1.8130 N.3   106  ILE106     -0.1245
    157  CA       -21.0180    5.5700   -1.6120 C.3   106  ILE106      0.1561
    158  C        -21.4820    6.6060   -0.6010 C.2   106  ILE106      0.2260
    159  O        -22.5190    7.2470   -0.8130 O.2   106  ILE106     -0.2867
    160  CB       -20.6730    6.2860   -2.9260 C.3   106  ILE106      0.0252
    161  CG1      -20.1780    5.2940   -3.9710 C.3   106  ILE106      0.0019
    162  CG2      -19.6520    7.4090   -2.6620 C.3   106  ILE106      0.0019
    163  CD1      -20.3600    5.7950   -5.3900 C.3   106  ILE106      0.0001
    164  N        -20.3620   10.1260    1.7200 N.3   108  ARG108     -0.1245
    165  CA       -19.4360   11.2390    1.8540 C.3   108  ARG108      0.1563
    166  C        -19.7660   11.9990    3.1260 C.2   108  ARG108      0.2260
    167  O        -20.9200   12.3910    3.3380 O.2   108  ARG108     -0.2867
    168  CB       -19.5030   12.1740    0.6370 C.3   108  ARG108      0.0307
    169  CG       -19.1760   11.4810   -0.6830 C.3   108  ARG108      0.0489
    170  CD       -19.3250   12.4350   -1.8550 C.3   108  ARG108      0.2205
    171  NE       -18.9380   11.8440   -3.1410 N.pl3 108  ARG108     -0.0865
    172  CZ       -19.7200   11.0810   -3.8970 C.cat 108  ARG108      0.5346
    173  NH1      -20.9450   10.7740   -3.5040 N.pl3 108  ARG108      0.1354
    174  NH2      -19.2690   10.6230   -5.0560 N.pl3 108  ARG108      0.1354
    175  N        -14.7170    9.7880    1.9630 N.3   117  VAL117     -0.1245
    176  CA       -15.5660    9.1160    0.9890 C.3   117  VAL117      0.1561
    177  C        -15.3880    7.6090    1.1410 C.2   117  VAL117      0.2260
    178  O        -14.2680    7.0990    1.0470 O.2   117  VAL117     -0.2867
    179  CB       -15.2140    9.5590   -0.4400 C.3   117  VAL117      0.0252
    180  CG1      -16.1320    8.8910   -1.4180 C.3   117  VAL117      0.0019
    181  CG2      -15.3290   11.0820   -0.5590 C.3   117  VAL117      0.0019
    182  N        -16.8400    3.6640   -0.0260 N.3   119  CYS119     -0.1235
    183  CA       -17.6050    2.9390   -1.0270 C.3   119  CYS119      0.1677
    184  C        -17.6640    1.4700   -0.6450 C.2   119  CYS119      0.2270
    185  O        -16.7730    0.9560    0.0350 O.2   119  CYS119     -0.2867
    186  CB       -16.9780    3.0530   -2.4240 C.3   119  CYS119      0.0956
    187  SG       -16.6120    4.7310   -2.9830 S.3   119  CYS119     -0.0801
    188  N        -11.5230    6.8540    0.9020 N.3   128  ARG128     -0.1245
    189  CA       -10.7210    7.8780    0.2390 C.3   128  ARG128      0.1563
    190  C        -10.8880    9.1790    0.9910 C.2   128  ARG128      0.2260
    191  O        -12.0090    9.5770    1.3060 O.2   128  ARG128     -0.2867
    192  CB       -11.1140    8.0200   -1.2290 C.3   128  ARG128      0.0307
    193  CG       -10.6420    6.8180   -2.0200 C.3   128  ARG128      0.0489
    194  CD       -11.3690    6.6410   -3.3130 C.3   128  ARG128      0.2205
    195  NE       -11.0620    7.6140   -4.3660 N.pl3 128  ARG128     -0.0865
    196  CZ       -10.0080    7.5380   -5.1800 C.cat 128  ARG128      0.5346
    197  NH1       -9.0770    6.6090   -5.0000 N.pl3 128  ARG128      0.1354
    198  NH2       -9.8690    8.4140   -6.1650 N.pl3 128  ARG128      0.1354
    199  N        -10.1090   13.3050    1.2740 N.3   130  TYR130     -0.1241
    200  CA        -9.8690   14.5040    0.4840 C.3   130  TYR130      0.1605
    201  C         -9.7330   15.7130    1.4050 C.2   130  TYR130      0.2264
    202  O        -10.4610   15.8370    2.3920 O.2   130  TYR130     -0.2867
    203  CB       -11.0320   14.7600   -0.5180 C.3   130  TYR130      0.0534
    204  CG       -11.3300   13.6370   -1.5080 C.ar  130  TYR130     -0.0201
    205  CD1      -11.8830   12.4320   -1.0800 C.ar  130  TYR130     -0.0009
    206  CD2      -11.1090   13.7980   -2.8780 C.ar  130  TYR130     -0.0009
    207  CE1      -12.1680   11.4030   -1.9670 C.ar  130  TYR130      0.0417
    208  CE2      -11.4100   12.7620   -3.7830 C.ar  130  TYR130      0.0417
    209  CZ       -11.9320   11.5780   -3.3080 C.ar  130  TYR130      0.1957
    210  OH       -12.2220   10.5330   -4.1620 O.3   130  TYR130     -0.2866
@<TRIPOS>BOND
     1    53    52    1
     2   106   105    1
     3    52    54    1
     4    52    51    1
     5    47    48    1
     6   122   121    2
     7   105   104    1
     8   121   120    1
     9   103   104    1
    10   103   102    1
    11    51    48    1
    12    48    49    1
    13   127   128    1
    14   117   116    2
    15    99    98    1
    16    99   102    1
    17    99   100    1
    18   129   128    1
    19   129   130    2
    20   128   131    1
    21    60    59    1
    22    60    61    1
    23    59    56    1
    24   120   119    1
    25   120   123    1
    26   100   101    2
    27    95    94    2
    28   116   119   am
    29   116   115    1
    30    42    41    1
    31    42    43    2
    32    49    50    2
    33   108   107    1
    34   108   111    1
    35   108   109    1
    36    55    56    1
    37    56    57    1
    38   123   124    1
    39   113   111    1
    40   131   132    1
    41   115   114    1
    42   115   118    1
    43   132   133    1
    44    94    93    1
    45    45    44    1
    46    41    40    1
    47    41    44    1
    48    61    62    1
    49   111   112    1
    50   109   110    2
    51   124   126   ar
    52   124   125   ar
    53    44    46    1
    54    97    96    1
    55    57    63   am
    56    57    58    2
    57    92    93    1
    58    93    96    1
    59   133   134    1
    60    88    87    2
    61    63    64    1
    62    35    34    2
    63   134   135    2
    64    71    68    1
    65    87    86    1
    66    34    33    1
    67    64    65    1
    68   135   137    1
    69   135   136    1
    70    68    67    1
    71    68    69    1
    72    85    86    1
    73    27    26    2
    74    30    31    1
    75    30    29    1
    76    86    89    1
    77    89    91    1
    78    89    90    1
    79    36    33    1
    80    36    37    1
    81    65    66    2
    82    33    32    1
    83    28    29    1
    84    28    25    1
    85    69    70    2
    86    26    25    1
    87    38    37    1
    88    37    39    1
    89    25    24    1
    90    76    73    1
    91    76    77    1
    92   155   153   am
    93    73    72    1
    94    73    74    1
    95    72    78    1
    96   153   154    2
    97   153   152    1
    98    10    11   ar
    99    10     8   ar
   100    11     9   ar
   101    78    77    1
   102   151   152    1
   103   151   148    1
   104    74    75    2
   105    24    14   am
   106   149   148    1
   107   149   150    2
   108    15    14    2
   109   146   144   am
   110   148   147    1
   111     8     6   ar
   112     9     7   ar
   113    14    13    1
   114    79    80    1
   115    80    81    1
   116    80    83    1
   117     4     3    2
   118   198   196    1
   119    21    19   ar
   120    21    22   ar
   121   144   145    2
   122   144   143    1
   123    81    82    2
   124    23    22    1
   125     6     7   ar
   126     6     5    1
   127    19    17   ar
   128    22    20   ar
   129     3     2    1
   130   163   161    1
   131    13    12    1
   132    13    16    1
   133   143   142    1
   134   196   197    1
   135   196   195    2
   136    83    84    1
   137   174   172    1
   138    17    16    1
   139    17    18   ar
   140    20    18   ar
   141     5     2    1
   142   195   194    1
   143     2     1    1
   144   210   209    1
   145   161   160    1
   146   172   173    1
   147   172   171    2
   148   208   209   ar
   149   208   206   ar
   150   142   139    1
   151   194   193    1
   152   209   207   ar
   153   171   170    1
   154   140   141    2
   155   140   139    1
   156   187   186    1
   157   160   162    1
   158   160   157    1
   159   206   204   ar
   160   139   138    1
   161   186   183    1
   162   193   192    1
   163   207   205   ar
   164   170   169    1
   165   156   157    1
   166   157   158    1
   167   204   205   ar
   168   204   203    1
   169   180   179    1
   170   192   189    1
   171   183   184    1
   172   183   182    1
   173   159   158    2
   174   169   168    1
   175   184   185    2
   176   181   179    1
   177   203   200    1
   178   179   176    1
   179   189   188    1
   180   189   190    1
   181   200   199    1
   182   200   201    1
   183   168   165    1
   184   176   177    1
   185   176   175    1
   186   190   191    2
   187   178   177    2
   188   201   202    2
   189   164   165    1
   190   165   166    1
   191   166   167    2
