@<TRIPOS>MOLECULE
tmp/5hz6A00.pdb
 230 212 0 0 0
SMALL
GASTEIGER

@<TRIPOS>ATOM
      1  N         13.3960  -14.1060  -23.7110 N.3    16  PHE16      -0.1241
      2  CA        13.5260  -12.6620  -23.9400 C.3    16  PHE16       0.1605
      3  C         13.8960  -12.3320  -25.3470 C.2    16  PHE16       0.2264
      4  O         13.4820  -11.3270  -25.8840 O.2    16  PHE16      -0.2867
      5  CB        14.4270  -12.0080  -22.8930 C.3    16  PHE16       0.0534
      6  CG        14.2940  -10.5080  -22.8630 C.ar   16  PHE16      -0.0203
      7  CD1       13.1390   -9.9480  -22.5040 C.ar   16  PHE16      -0.0042
      8  CD2       15.3740   -9.7130  -23.1810 C.ar   16  PHE16      -0.0042
      9  CE1       12.9890   -8.5720  -22.4260 C.ar   16  PHE16      -0.0003
     10  CE2       15.2550   -8.3360  -23.1200 C.ar   16  PHE16      -0.0003
     11  CZ        14.0650   -7.7950  -22.7860 C.ar   16  PHE16      -0.0000
     12  N         10.7450  -12.3870  -27.2340 N.3    19  TYR19      -0.1227
     13  CA         9.9600  -11.2220  -26.8790 C.3    19  TYR19       0.1736
     14  C         10.4370  -10.0090  -27.6500 C.2    19  TYR19       0.2595
     15  O          9.6310   -9.2720  -28.2460 O.2    19  TYR19      -0.2718
     16  CB        10.0250  -10.9980  -25.3540 C.3    19  TYR19       0.0548
     17  CG         9.4250   -9.7060  -24.9160 C.ar   19  TYR19      -0.0200
     18  CD1        8.0560   -9.5480  -24.7980 C.ar   19  TYR19      -0.0009
     19  CD2       10.2080   -8.5970  -24.6970 C.ar   19  TYR19      -0.0009
     20  CE1        7.4740   -8.3550  -24.4430 C.ar   19  TYR19       0.0417
     21  CE2        9.6330   -7.3910  -24.3190 C.ar   19  TYR19       0.0417
     22  CZ         8.2630   -7.2780  -24.1970 C.ar   19  TYR19       0.1957
     23  OH         7.7040   -6.0610  -23.8700 O.3    19  TYR19      -0.2866
     24  N         11.7480   -9.7550  -27.6120 N.am   20  MET20      -0.1979
     25  CA        12.2990   -8.6010  -28.3080 C.3    20  MET20       0.1605
     26  C         12.0040   -8.6820  -29.8060 C.2    20  MET20       0.2287
     27  O         11.6550   -7.6660  -30.4400 O.2    20  MET20      -0.2864
     28  CB        13.7940   -8.4640  -28.0570 C.3    20  MET20       0.0413
     29  CG        14.1750   -7.9960  -26.6850 C.3    20  MET20       0.0598
     30  SD        15.9460   -7.7110  -26.5360 S.3    20  MET20      -0.1393
     31  CE        16.5670   -9.4110  -26.6610 C.3    20  MET20       0.0692
     32  N          8.4590   -7.6840  -30.4500 N.3    23  VAL23      -0.1245
     33  CA         8.3050   -6.2700  -30.2670 C.3    23  VAL23       0.1561
     34  C          8.7970   -5.4770  -31.4670 C.2    23  VAL23       0.2260
     35  O          8.2930   -4.3890  -31.6610 O.2    23  VAL23      -0.2867
     36  CB         8.9790   -5.8410  -28.9670 C.3    23  VAL23       0.0252
     37  CG1        9.1750   -4.3530  -28.8960 C.3    23  VAL23       0.0019
     38  CG2        8.1940   -6.3690  -27.7580 C.3    23  VAL23       0.0019
     39  N         12.4600   -5.4130  -32.2150 N.3    25  VAL25      -0.1245
     40  CA        13.8140   -5.0090  -31.9890 C.3    25  VAL25       0.1561
     41  C         14.7350   -5.6590  -33.0170 C.2    25  VAL25       0.2260
     42  O         14.6140   -6.8590  -33.2950 O.2    25  VAL25      -0.2867
     43  CB        14.2550   -5.4520  -30.5830 C.3    25  VAL25       0.0252
     44  CG1       15.6890   -4.9890  -30.3010 C.3    25  VAL25       0.0019
     45  CG2       13.3560   -4.8830  -29.5060 C.3    25  VAL25       0.0019
     46  N         20.6390   -4.9870  -31.6500 N.3    29  THR29      -0.1218
     47  CA        20.2260   -4.6120  -30.3280 C.3    29  THR29       0.1862
     48  C         19.8260   -5.8670  -29.5240 C.2    29  THR29       0.2287
     49  O         20.1120   -5.9450  -28.3190 O.2    29  THR29      -0.2866
     50  CB        19.0990   -3.5720  -30.3910 C.3    29  THR29       0.1770
     51  OG1       19.6030   -2.4030  -31.0680 O.3    29  THR29      -0.2211
     52  CG2       18.6080   -3.1780  -28.9890 C.3    29  THR29       0.0375
     53  N         21.2810   -6.6670  -25.7890 N.3    33  ALA33      -0.1245
     54  CA        20.2580   -6.5710  -24.7240 C.3    33  ALA33       0.1562
     55  C         20.0090   -7.9610  -24.1540 C.2    33  ALA33       0.2260
     56  O         19.7820   -8.1130  -22.9410 O.2    33  ALA33      -0.2867
     57  CB        18.9620   -5.9280  -25.2130 C.3    33  ALA33       0.0290
     58  N         22.4360   -8.9760  -21.4970 N.3    36  ALA36      -0.1245
     59  CA        22.5770   -8.0910  -20.3450 C.3    36  ALA36       0.1562
     60  C         21.9640   -8.7690  -19.1170 C.2    36  ALA36       0.2260
     61  O         20.9440   -9.4560  -19.1780 O.2    36  ALA36      -0.2867
     62  CB        21.9370   -6.7240  -20.6290 C.3    36  ALA36       0.0290
     63  N         20.7450   -6.8400  -16.0880 N.3    38  PRO38      -0.2116
     64  CA        20.6580   -5.5200  -15.4510 C.3    38  PRO38       0.1372
     65  C         20.4550   -5.5100  -13.9700 C.2    38  PRO38       0.2244
     66  O         19.9880   -6.4610  -13.3520 O.2    38  PRO38      -0.2868
     67  CB        19.4610   -4.8840  -16.1170 C.3    38  PRO38       0.0268
     68  CG        19.2670   -5.6690  -17.3740 C.3    38  PRO38       0.0207
     69  CD        19.6360   -7.0620  -17.0110 C.3    38  PRO38       0.0892
     70  N         18.0700   -3.2880  -11.4320 N.3    40  MET40      -0.1245
     71  CA        16.8730   -2.4990  -11.4380 C.3    40  MET40       0.1570
     72  C         16.7670   -1.8630  -10.0480 C.2    40  MET40       0.2261
     73  O         16.7150   -2.5730   -9.0580 O.2    40  MET40      -0.2867
     74  CB        15.6780   -3.4040  -11.7310 C.3    40  MET40       0.0387
     75  CG        14.3810   -2.6290  -11.8740 C.3    40  MET40       0.0595
     76  SD        12.8520   -3.5520  -11.9890 S.3    40  MET40      -0.1393
     77  CE        13.3450   -4.9760  -12.9610 C.3    40  MET40       0.0692
     78  N         17.0650    1.3080  -14.5650 N.3    53  SER53      -0.1217
     79  CA        17.6300    0.0500  -15.0520 C.3    53  SER53       0.1889
     80  C         19.0150    0.3140  -15.5870 C.2    53  SER53       0.2288
     81  O         19.1920    1.1810  -16.4320 O.2    53  SER53      -0.2866
     82  CB        16.7030   -0.5420  -16.1120 C.3    53  SER53       0.2089
     83  OG        15.4060   -0.6420  -15.5700 O.3    53  SER53      -0.2183
     84  N         22.8980   -1.1820  -17.0070 N.3    55  SER55      -0.1217
     85  CA        23.7260   -2.2520  -17.5840 C.3    55  SER55       0.1889
     86  C         24.8400   -1.5800  -18.4150 C.2    55  SER55       0.2288
     87  O         24.7370   -0.4630  -18.7830 O.2    55  SER55      -0.2866
     88  CB        22.8820   -3.2120  -18.4450 C.3    55  SER55       0.2089
     89  OG        22.4840   -2.6040  -19.6590 O.3    55  SER55      -0.2183
     90  N         25.2450   -2.3040  -21.5110 N.3    57  PHE57      -0.1227
     91  CA        24.5690   -2.0250  -22.7660 C.3    57  PHE57       0.1736
     92  C         23.9850   -0.6030  -22.7880 C.2    57  PHE57       0.2595
     93  O         24.2770    0.1810  -23.7020 O.2    57  PHE57      -0.2718
     94  CB        23.4790   -3.0840  -22.9840 C.3    57  PHE57       0.0547
     95  CG        22.3230   -2.6820  -23.8510 C.ar   57  PHE57      -0.0202
     96  CD1       22.4950   -2.2210  -25.1590 C.ar   57  PHE57      -0.0042
     97  CD2       21.0630   -2.8710  -23.4230 C.ar   57  PHE57      -0.0042
     98  CE1       21.3950   -1.8540  -25.9440 C.ar   57  PHE57      -0.0003
     99  CE2       19.9410   -2.5030  -24.2000 C.ar   57  PHE57      -0.0003
    100  CZ        20.1010   -2.0060  -25.4460 C.ar   57  PHE57      -0.0000
    101  N         23.2090   -0.2640  -21.7930 N.am   58  LYS58      -0.1980
    102  CA        22.4620    0.9370  -21.6960 C.3    58  LYS58       0.1596
    103  C         21.8710    1.0720  -20.3170 C.2    58  LYS58       0.2287
    104  O         21.6520    0.0830  -19.6250 O.2    58  LYS58      -0.2864
    105  CB        21.2710    0.8690  -22.7700 C.3    58  LYS58       0.0298
    106  CG        20.5020    2.1350  -23.0000 C.3    58  LYS58       0.0038
    107  CD        19.7010    1.9880  -24.2750 C.3    58  LYS58       0.0206
    108  CE        19.3500    3.3360  -24.8640 C.3    58  LYS58       0.1093
    109  NZ        18.7820    3.1160  -26.2180 N.3    58  LYS58      -0.1314
    110  N         18.3530    3.0230  -18.4750 N.3    60  THR60      -0.1218
    111  CA        17.0720    3.7200  -18.6780 C.3    60  THR60       0.1862
    112  C         16.5520    4.1610  -17.2880 C.2    60  THR60       0.2287
    113  O         16.9070    3.5860  -16.2700 O.2    60  THR60      -0.2866
    114  CB        16.0110    2.8170  -19.3650 C.3    60  THR60       0.1770
    115  OG1       15.7470    1.6390  -18.5790 O.3    60  THR60      -0.2211
    116  CG2       16.3500    2.4820  -20.7930 C.3    60  THR60       0.0375
    117  N          7.2860    7.5070  -22.8900 N.3    72  GLU72      -0.1196
    118  CA         8.4720    6.7350  -22.5410 C.3    72  GLU72       0.1783
    119  C          9.2380    6.4530  -23.8150 C.2    72  GLU72       0.2306
    120  O          8.6940    6.0680  -24.8330 O.2    72  GLU72      -0.2863
    121  CB         8.0710    5.4190  -21.8430 C.2    72  GLU72       0.0071
    122  CG         9.2140    4.4800  -21.5230 C.2    72  GLU72       0.0834
    123  CD         8.8310    3.1270  -20.9410 C.2    72  GLU72       0.3877
    124  OE1        7.6310    2.8270  -20.8280 O.co2  72  GLU72      -0.2406
    125  OE2        9.7570    2.3690  -20.5910 O.co2  72  GLU72      -0.2406
    126  N         11.8420    3.7350  -24.9110 N.3    74  THR74      -0.1203
    127  CA        12.2710    2.4300  -24.4770 C.3    74  THR74       0.1994
    128  C         13.7440    2.2020  -24.7540 C.2    74  THR74       0.2618
    129  O         14.3830    2.9570  -25.5260 O.2    74  THR74      -0.2717
    130  CB        11.4140    1.3470  -25.0680 C.3    74  THR74       0.1784
    131  OG1       11.6160    1.2900  -26.4760 O.3    74  THR74      -0.2211
    132  CG2        9.9110    1.5990  -24.7680 C.3    74  THR74       0.0376
    133  N         14.2940    1.1310  -24.2080 N.am   75  ALA75      -0.1965
    134  CA        15.6790    0.8240  -24.4500 C.3    75  ALA75       0.1728
    135  C         16.0130    0.6430  -25.9430 C.2    75  ALA75       0.2616
    136  O         17.1570    0.9450  -26.3460 O.2    75  ALA75      -0.2715
    137  CB        16.0920   -0.4160  -23.6630 C.3    75  ALA75       0.0334
    138  N         15.0730    0.1290  -26.7130 N.am   76  ASP76      -0.1971
    139  CA        15.1680   -0.0430  -28.1630 C.3    76  ASP76       0.1709
    140  C         14.6880    1.1760  -28.9610 C.2    76  ASP76       0.2293
    141  O         14.5140    1.1400  -30.1880 O.2    76  ASP76      -0.2864
    142  CB        14.4880   -1.3100  -28.6360 C.3    76  ASP76       0.1436
    143  CG        12.9990   -1.3430  -28.2530 C.2    76  ASP76       0.3671
    144  OD1       12.6890   -1.0780  -27.0730 O.co2  76  ASP76      -0.2456
    145  OD2       12.1750   -1.6890  -29.1230 O.co2  76  ASP76      -0.2456
    146  N         11.8020    2.7820  -29.0370 N.3    78  ARG78      -0.1245
    147  CA        10.3850    3.0350  -29.3250 C.3    78  ARG78       0.1563
    148  C          9.9070    4.2310  -28.5340 C.2    78  ARG78       0.2260
    149  O         10.2950    4.4370  -27.3930 O.2    78  ARG78      -0.2867
    150  CB         9.4950    1.8380  -28.9850 C.3    78  ARG78       0.0307
    151  CG         9.6310    0.6580  -29.9080 C.3    78  ARG78       0.0489
    152  CD         8.8400   -0.5100  -29.3620 C.3    78  ARG78       0.2205
    153  NE         9.5900   -1.1160  -28.2560 N.pl3  78  ARG78      -0.0865
    154  CZ         9.1110   -1.4300  -27.0550 C.cat  78  ARG78       0.5346
    155  NH1        7.8310   -1.3330  -26.7470 N.pl3  78  ARG78       0.1354
    156  NH2        9.9850   -1.8870  -26.1530 N.pl3  78  ARG78       0.1354
    157  N          2.2690   -2.5810  -16.3030 N.3    93  HIS93      -0.1241
    158  CA         2.7530   -1.5460  -17.1960 C.3    93  HIS93       0.1621
    159  C          2.3890   -1.8980  -18.6350 C.2    93  HIS93       0.2264
    160  O          2.8520   -2.9020  -19.1590 O.2    93  HIS93      -0.2867
    161  CB         4.2790   -1.4920  -17.0270 C.3    93  HIS93       0.0745
    162  CG         5.0110   -0.4830  -17.8630 C.ar   93  HIS93       0.0817
    163  ND1        6.3770   -0.3550  -17.7660 N.ar   93  HIS93      -0.2268
    164  CD2        4.6010    0.4420  -18.7850 C.ar   93  HIS93       0.1154
    165  CE1        6.7860    0.5900  -18.6140 C.ar   93  HIS93       0.1986
    166  NE2        5.7180    1.1030  -19.2360 N.ar   93  HIS93      -0.2212
    167  N          2.6010   -0.5820  -22.5510 N.3    95  GLN95      -0.1245
    168  CA         3.2190    0.3210  -23.5310 C.3    95  GLN95       0.1566
    169  C          2.4120    0.2140  -24.8400 C.2    95  GLN95       0.2260
    170  O          2.2000   -0.8860  -25.3130 O.2    95  GLN95      -0.2867
    171  CB         4.6480   -0.0640  -23.7950 C.3    95  GLN95       0.0367
    172  CG         5.5860    0.0340  -22.5960 C.3    95  GLN95       0.0905
    173  CD         6.9810   -0.4290  -22.8840 C.2    95  GLN95       0.2608
    174  OE1        7.1780   -1.2640  -23.7770 O.2    95  GLN95      -0.2717
    175  NE2        7.9570    0.0940  -22.1220 N.am   95  GLN95      -0.0878
    176  N          3.9390   -5.4470  -19.2970 N.3   104  ILE104     -0.1245
    177  CA         5.0570   -5.8280  -18.4280 C.3   104  ILE104      0.1561
    178  C          4.5110   -5.8390  -17.0000 C.2   104  ILE104      0.2260
    179  O          4.0820   -4.7930  -16.5180 O.2   104  ILE104     -0.2867
    180  CB         6.2550   -4.8560  -18.5520 C.3   104  ILE104      0.0252
    181  CG1        6.7060   -4.7310  -20.0170 C.3   104  ILE104      0.0019
    182  CG2        7.3620   -5.2960  -17.6270 C.3   104  ILE104      0.0019
    183  CD1        6.7120   -3.2730  -20.4710 C.3   104  ILE104      0.0001
    184  N          5.2580   -6.6300  -13.0520 N.3   106  ARG106     -0.1245
    185  CA         6.3330   -6.7190  -12.0710 C.3   106  ARG106      0.1563
    186  C          5.7050   -7.1010  -10.7570 C.2   106  ARG106      0.2260
    187  O          4.8120   -6.3760  -10.2780 O.2   106  ARG106     -0.2867
    188  CB         7.1450   -5.4200  -11.9700 C.3   106  ARG106      0.0307
    189  CG         7.8140   -5.0080  -13.3280 C.3   106  ARG106      0.0489
    190  CD         8.4780   -3.6380  -13.2640 C.3   106  ARG106      0.2205
    191  NE         9.2080   -3.2230  -14.5250 N.pl3 106  ARG106     -0.0865
    192  CZ         8.6990   -2.4230  -15.4570 C.cat 106  ARG106      0.5346
    193  NH1        7.4950   -1.9240  -15.4300 N.pl3 106  ARG106      0.1354
    194  NH2        9.4920   -2.0870  -16.4820 N.pl3 106  ARG106      0.1354
    195  N          9.3710  -10.4960  -13.3990 N.3   115  VAL115     -0.1245
    196  CA         8.9020   -9.6270  -14.4570 C.3   115  VAL115      0.1561
    197  C          8.3860  -10.4870  -15.5660 C.2   115  VAL115      0.2260
    198  O          9.1520  -11.3210  -16.0940 O.2   115  VAL115     -0.2867
    199  CB        10.0190   -8.6800  -14.9450 C.3   115  VAL115      0.0252
    200  CG1        9.5180   -7.7670  -16.0310 C.3   115  VAL115      0.0019
    201  CG2       10.5500   -7.8840  -13.7540 C.3   115  VAL115      0.0019
    202  N          6.7200  -10.3730  -19.3530 N.3   117  CYS117     -0.1235
    203  CA         6.6710   -9.4760  -20.5170 C.3   117  CYS117      0.1677
    204  C          5.8730  -10.2270  -21.5760 C.2   117  CYS117      0.2270
    205  O          6.3060  -11.2840  -21.9880 O.2   117  CYS117     -0.2867
    206  CB         8.1190   -9.2450  -21.0510 C.3   117  CYS117      0.0956
    207  SG         9.2380   -8.7090  -19.6950 S.3   117  CYS117     -0.0801
    208  N         11.4600  -12.9230  -16.3890 N.3   126  ARG126     -0.1245
    209  CA        12.7590  -12.4960  -15.9010 C.3   126  ARG126      0.1563
    210  C         12.6910  -12.4050  -14.3900 C.2   126  ARG126      0.2260
    211  O         11.7470  -11.8420  -13.8560 O.2   126  ARG126     -0.2867
    212  CB        13.1420  -11.1500  -16.5370 C.3   126  ARG126      0.0307
    213  CG        13.3700  -11.3410  -18.0330 C.3   126  ARG126      0.0489
    214  CD        13.2230  -10.1180  -18.8590 C.3   126  ARG126      0.2205
    215  NE        14.2010   -9.0880  -18.6850 N.pl3 126  ARG126     -0.0865
    216  CZ        15.4470   -9.0830  -19.1890 C.cat 126  ARG126      0.5346
    217  NH1       15.9430  -10.1260  -19.8040 N.pl3 126  ARG126      0.1354
    218  NH2       16.2410   -8.0070  -19.0780 N.pl3 126  ARG126      0.1354
    219  N         14.6220  -11.5120  -10.7060 N.3   128  TYR128     -0.1241
    220  CA        15.6510  -10.7040  -10.0670 C.3   128  TYR128      0.1605
    221  C         15.6870  -11.0750   -8.5950 C.2   128  TYR128      0.2264
    222  O         14.6440  -11.3550   -7.9640 O.2   128  TYR128     -0.2867
    223  CB        15.2910   -9.2120  -10.1800 C.3   128  TYR128      0.0534
    224  CG        15.1980   -8.6530  -11.5510 C.ar  128  TYR128     -0.0201
    225  CD1       14.1570   -9.0020  -12.3970 C.ar  128  TYR128     -0.0009
    226  CD2       16.1760   -7.7950  -12.0330 C.ar  128  TYR128     -0.0009
    227  CE1       14.1070   -8.4880  -13.6880 C.ar  128  TYR128      0.0417
    228  CE2       16.1180   -7.2780  -13.3230 C.ar  128  TYR128      0.0417
    229  CZ        15.0570   -7.6450  -14.1370 C.ar  128  TYR128      0.1957
    230  OH        14.9430   -7.2130  -15.4400 O.3   128  TYR128     -0.2866
@<TRIPOS>BOND
     1    42    41    2
     2    41    40    1
     3    39    40    1
     4    40    43    1
     5    35    34    2
     6    46    47    1
     7    34    33    1
     8    51    50    1
     9    43    44    1
    10    43    45    1
    11    32    33    1
    12    27    26    2
    13    50    47    1
    14    50    52    1
    15    47    48    1
    16    33    36    1
    17   141   140    2
    18   151   152    1
    19   151   150    1
    20    26    25    1
    21    48    49    2
    22   152   153    1
    23   147   146    1
    24   147   150    1
    25   147   148    1
    26   145   143   ar
    27    36    37    1
    28    36    38    1
    29   140   139    1
    30   142   143    1
    31   142   139    1
    32   148   149    2
    33    25    28    1
    34    25    24    1
    35   153   154    2
    36   143   144   ar
    37    15    14    2
    38   139   138    1
    39    28    29    1
    40    14    24   am
    41    14    13    1
    42    12    13    1
    43   154   155    1
    44   154   156    1
    45    13    16    1
    46   138   135   am
    47    29    30    1
    48    31    30    1
    49   131   130    1
    50   136   135    2
    51   109   108    1
    52    98   100   ar
    53    98    96   ar
    54   135   134    1
    55     4     3    2
    56    53    54    1
    57   129   128    2
    58   100    99   ar
    59    16    17    1
    60     3     2    1
    61   170   169    2
    62    57    54    1
    63    96    95   ar
    64   130   132    1
    65   130   127    1
    66    17    18   ar
    67    17    19   ar
    68   126   127    1
    69   108   107    1
    70   169   168    1
    71   120   119    2
    72    18    20   ar
    73   128   127    1
    74   128   133   am
    75    54    55    1
    76    19    21   ar
    77   134   133    1
    78   134   137    1
    79    20    22   ar
    80    21    22   ar
    81   107   106    1
    82    99    97   ar
    83    22    23    1
    84    55    56    2
    85     2     1    1
    86     2     5    1
    87    95    97   ar
    88    95    94    1
    89   119   118    1
    90   171   168    1
    91   171   172    1
    92   174   173    2
    93    93    92    2
    94   168   167    1
    95     8    10   ar
    96     8     6   ar
    97    10    11   ar
    98   106   105    1
    99    94    91    1
   100     5     6    1
   101   117   118    1
   102   173   172    1
   103   173   175   am
   104     6     7   ar
   105    92    91    1
   106    92   101   am
   107    11     9   ar
   108   105   102    1
   109    91    90    1
   110   118   121    1
   111     7     9   ar
   112   205   204    2
   113   121   122    2
   114   101   102    1
   115   102   103    1
   116   204   203    1
   117   122   123    1
   118    58    59    1
   119   206   203    1
   120   206   207    1
   121   123   124   ar
   122   123   125   ar
   123   116   114    1
   124    62    59    1
   125   203   202    1
   126   183   181    1
   127    59    60    1
   128   103   104    2
   129   181   180    1
   130   217   216    1
   131    89    88    1
   132   114   111    1
   133   114   115    1
   134   176   177    1
   135   166   164   ar
   136   166   165   ar
   137   216   218    1
   138   216   215    2
   139    61    60    2
   140   160   159    2
   141   214   215    1
   142   214   213    1
   143   164   162   ar
   144    87    86    2
   145   111   110    1
   146   111   112    1
   147   159   158    1
   148   165   163   ar
   149   180   177    1
   150   180   182    1
   151    88    85    1
   152   177   178    1
   153    86    85    1
   154   213   212    1
   155   162   163   ar
   156   162   161    1
   157    85    84    1
   158    68    69    1
   159    68    67    1
   160   112   113    2
   161   158   161    1
   162   158   157    1
   163    69    63    1
   164   178   179    2
   165   212   209    1
   166   194   192    1
   167    81    80    2
   168   208   209    1
   169    67    64    1
   170    82    83    1
   171    82    79    1
   172   198   197    2
   173    63    64    1
   174   200   199    1
   175   209   210    1
   176    80    79    1
   177   197   196    1
   178   192   193    1
   179   192   191    2
   180    64    65    1
   181   230   229    1
   182    79    78    1
   183   199   196    1
   184   199   201    1
   185   191   190    1
   186   196   195    1
   187   210   211    2
   188   229   227   ar
   189   229   228   ar
   190    65    66    2
   191   227   225   ar
   192   189   190    1
   193   189   188    1
   194   228   226   ar
   195   184   185    1
   196    77    76    1
   197   225   224   ar
   198   185   188    1
   199   185   186    1
   200   226   224   ar
   201    76    75    1
   202    75    74    1
   203    74    71    1
   204   224   223    1
   205    71    70    1
   206    71    72    1
   207   186   187    2
   208   219   220    1
   209   223   220    1
   210   220   221    1
   211    72    73    2
   212   221   222    2
