@<TRIPOS>MOLECULE
tmp/5hz7A00.pdb
 218 214 0 0 0
SMALL
GASTEIGER

@<TRIPOS>ATOM
      1  N        -15.3080   -8.2280    3.1640 N.3    13  ASN13      -0.1240
      2  CA       -16.3730   -9.0950    3.6540 C.3    13  ASN13       0.1653
      3  C        -17.2940   -9.5440    2.5240 C.2    13  ASN13       0.2266
      4  O        -17.4980   -8.8420    1.5320 O.2    13  ASN13      -0.2867
      5  CB       -17.1810   -8.3820    4.7310 C.3    13  ASN13       0.1155
      6  CG       -17.9320   -9.3490    5.6210 C.2    13  ASN13       0.2627
      7  OD1      -17.4020  -10.3830    6.0270 O.2    13  ASN13      -0.2716
      8  ND2      -19.1700   -9.0200    5.9300 N.am   13  ASN13      -0.0877
      9  N        -20.4060   -9.7220    2.2060 N.3    15  ASP15      -0.1225
     10  CA       -21.5980   -8.9470    1.9020 C.3    15  ASP15       0.1805
     11  C        -21.3120   -7.6870    1.0930 C.2    15  ASP15       0.2597
     12  O        -22.2580   -6.9750    0.7420 O.2    15  ASP15      -0.2718
     13  CB       -22.4250   -8.6310    3.1660 C.3    15  ASP15       0.1424
     14  CG       -21.6860   -7.7740    4.1800 C.2    15  ASP15       0.3668
     15  OD1      -20.5440   -7.3430    3.9170 O.co2  15  ASP15      -0.2456
     16  OD2      -22.2740   -7.5200    5.2540 O.co2  15  ASP15      -0.2456
     17  N        -20.0540   -7.4170    0.7480 N.am   16  LYS16      -0.1979
     18  CA       -19.6910   -6.2420   -0.0330 C.3    16  LYS16       0.1596
     19  C        -19.4330   -6.6130   -1.4980 C.2    16  LYS16       0.2287
     20  O        -19.4150   -7.7840   -1.8800 O.2    16  LYS16      -0.2864
     21  CB       -18.4700   -5.5470    0.5870 C.3    16  LYS16       0.0298
     22  CG       -18.6390   -5.1770    2.0700 C.3    16  LYS16       0.0038
     23  CD       -19.9200   -4.3680    2.3110 C.3    16  LYS16       0.0206
     24  CE       -19.9960   -3.7560    3.7150 C.3    16  LYS16       0.1093
     25  NZ       -19.8530   -4.7680    4.7970 N.3    16  LYS16      -0.1314
     26  N        -12.3390  -10.5810    9.9360 N.3    45  GLU45      -0.1231
     27  CA       -11.9770   -9.5890   10.9410 C.3    45  GLU45       0.1699
     28  C        -11.3940  -10.2270   12.1930 C.2    45  GLU45       0.2592
     29  O        -10.6870   -9.5490   12.9480 O.2    45  GLU45      -0.2718
     30  CB       -13.1870   -8.7070   11.2770 C.3    45  GLU45       0.0402
     31  CG       -14.1770   -9.2640   12.3120 C.3    45  GLU45       0.1161
     32  CD       -14.9770  -10.4810   11.8500 C.2    45  GLU45       0.3649
     33  OE1      -14.9080  -10.8790   10.6650 O.co2  45  GLU45      -0.2457
     34  OE2      -15.6970  -11.0390   12.7000 O.co2  45  GLU45      -0.2457
     35  N        -11.6780  -11.5080   12.4310 N.am   46  GLU46      -0.1979
     36  CA       -11.0140  -12.2680   13.4810 C.3    46  GLU46       0.1602
     37  C         -9.7440  -12.9480   12.9920 C.2    46  GLU46       0.2287
     38  O         -8.7910  -13.0860   13.7660 O.2    46  GLU46      -0.2864
     39  CB       -11.9650  -13.3240   14.0510 C.3    46  GLU46       0.0415
     40  CG       -13.1720  -12.7330   14.7650 C.3    46  GLU46       0.1163
     41  CD       -14.0810  -13.7920   15.3500 C.2    46  GLU46       0.3649
     42  OE1      -14.1670  -14.9000   14.7790 O.co2  46  GLU46      -0.2457
     43  OE2      -14.7160  -13.5190   16.3900 O.co2  46  GLU46      -0.2457
     44  N        -12.8650   -3.4120    6.4390 N.3    63  TRP63      -0.1227
     45  CA       -13.9030   -3.6430    7.4430 C.3    63  TRP63       0.1737
     46  C        -14.4200   -2.2700    7.8460 C.2    63  TRP63       0.2595
     47  O        -13.8210   -1.2470    7.5100 O.2    63  TRP63      -0.2718
     48  CB       -13.3630   -4.3940    8.6700 C.3    63  TRP63       0.0564
     49  CG       -14.4250   -5.0030    9.5440 C.ar   63  TRP63       0.0003
     50  CD1      -14.9190   -4.5010   10.7140 C.ar   63  TRP63       0.0946
     51  CD2      -15.1210   -6.2330    9.3100 C.ar   63  TRP63       0.0152
     52  NE1      -15.8800   -5.3480   11.2260 N.ar   63  TRP63      -0.2442
     53  CE2      -16.0210   -6.4160   10.3770 C.ar   63  TRP63       0.0810
     54  CE3      -15.0670   -7.2000    8.2960 C.ar   63  TRP63       0.0012
     55  CZ2      -16.8610   -7.5280   10.4620 C.ar   63  TRP63       0.0191
     56  CZ3      -15.9040   -8.3020    8.3830 C.ar   63  TRP63       0.0001
     57  CH2      -16.7890   -8.4520    9.4550 C.ar   63  TRP63       0.0015
     58  N        -15.5330   -2.2430    8.5750 N.am   64  ALA64      -0.1980
     59  CA       -15.9310   -0.9850    9.1890 C.3    64  ALA64       0.1597
     60  C        -14.8550   -0.5360   10.1720 C.2    64  ALA64       0.2287
     61  O        -14.1070   -1.3480   10.7290 O.2    64  ALA64      -0.2864
     62  CB       -17.2610   -1.1180    9.9230 C.3    64  ALA64       0.0319
     63  N        -14.7100    0.3790   13.1260 N.3    66  ASP66      -0.1225
     64  CA       -14.7190    0.0730   14.5510 C.3    66  ASP66       0.1805
     65  C        -13.6910   -0.9830   14.9310 C.2    66  ASP66       0.2597
     66  O        -13.2880   -1.0360   16.0950 O.2    66  ASP66      -0.2718
     67  CB       -16.1200   -0.3370   15.0170 C.3    66  ASP66       0.1424
     68  CG       -16.6240   -1.6050   14.3500 C.2    66  ASP66       0.3668
     69  OD1      -16.7780   -1.5980   13.1140 O.co2  66  ASP66      -0.2456
     70  OD2      -16.9010   -2.5930   15.0720 O.co2  66  ASP66      -0.2456
     71  N        -13.2650   -1.8190   13.9880 N.am   67  ARG67      -0.1979
     72  CA       -12.2560   -2.8350   14.2650 C.3    67  ARG67       0.1597
     73  C        -10.8330   -2.2980   14.2440 C.2    67  ARG67       0.2287
     74  O         -9.9260   -2.9900   14.7220 O.2    67  ARG67      -0.2864
     75  CB       -12.3680   -3.9660   13.2380 C.3    67  ARG67       0.0334
     76  CG       -13.2070   -5.1500   13.6920 C.3    67  ARG67       0.0492
     77  CD       -12.4530   -5.9450   14.7330 C.3    67  ARG67       0.2205
     78  NE       -13.1340   -7.1770   15.1120 N.pl3  67  ARG67      -0.0865
     79  CZ       -12.5860   -8.1150   15.8700 C.cat  67  ARG67       0.5346
     80  NH1      -11.3500   -7.9560   16.3240 N.pl3  67  ARG67       0.1354
     81  NH2      -13.2720   -9.2110   16.1700 N.pl3  67  ARG67       0.1354
     82  N        -21.9770    3.9530    6.1980 N.3   112  GLU112     -0.1245
     83  CA       -23.0550    2.9740    6.2800 C.3   112  GLU112      0.1567
     84  C        -23.9600    3.2760    7.4630 C.2   112  GLU112      0.2260
     85  O        -23.4820    3.4890    8.5820 O.2   112  GLU112     -0.2867
     86  CB       -22.4790    1.5720    6.4840 C.3   112  GLU112      0.0388
     87  CG       -21.4940    1.1320    5.4280 C.3   112  GLU112      0.1160
     88  CD       -20.8470   -0.1960    5.7650 C.2   112  GLU112      0.3649
     89  OE1      -21.1470   -0.7560    6.8450 O.co2 112  GLU112     -0.2457
     90  OE2      -20.0400   -0.6780    4.9480 O.co2 112  GLU112     -0.2457
     91  N        -32.1580   -9.4520   11.2000 N.3   151  ASN151     -0.1240
     92  CA       -31.1490  -10.3310   11.7860 C.3   151  ASN151      0.1653
     93  C        -31.0300  -10.0760   13.2830 C.2   151  ASN151      0.2266
     94  O        -30.5230   -9.0290   13.6980 O.2   151  ASN151     -0.2867
     95  CB       -29.8110  -10.0610   11.1080 C.3   151  ASN151      0.1155
     96  CG       -28.7300  -11.0180   11.5560 C.2   151  ASN151      0.2627
     97  OD1      -28.9940  -11.9590   12.2990 O.2   151  ASN151     -0.2716
     98  ND2      -27.5000  -10.7820   11.1010 N.am  151  ASN151     -0.0877
     99  N        -26.9300  -10.6190   15.2340 N.3   154  GLU154     -0.1231
    100  CA       -25.8450   -9.6560   15.2620 C.3   154  GLU154      0.1684
    101  C        -26.3100   -8.3710   15.9380 C.2   154  GLU154      0.2434
    102  O        -27.3170   -7.7840   15.5170 O.2   154  GLU154     -0.2733
    103  CB       -25.3510   -9.3560   13.8400 C.3   154  GLU154      0.0402
    104  CG       -24.4630  -10.4600   13.2610 C.3   154  GLU154      0.1161
    105  CD       -23.1460  -10.6240   14.0090 C.2   154  GLU154      0.3649
    106  OE1      -22.7340   -9.6860   14.7180 O.co2 154  GLU154     -0.2457
    107  OE2      -22.5180  -11.7030   13.8870 O.co2 154  GLU154     -0.2457
    108  N        -25.6110   -7.9020   16.9760 N.am  155  PRO155     -0.2718
    109  CA       -26.1050   -6.7390   17.7370 C.3   155  PRO155      0.1535
    110  C        -26.1710   -5.4480   16.9360 C.2   155  PRO155      0.2599
    111  O        -26.8990   -4.5250   17.3250 O.2   155  PRO155     -0.2715
    112  CB       -25.1060   -6.6340   18.8990 C.3   155  PRO155      0.0310
    113  CG       -23.8790   -7.3570   18.4110 C.3   155  PRO155      0.0237
    114  CD       -24.4060   -8.4830   17.5890 C.3   155  PRO155      0.0939
    115  N        -25.4200   -5.3490   15.8440 N.am  156  TYR156     -0.1960
    116  CA       -25.5020   -4.2000   14.9480 C.3   156  TYR156      0.1771
    117  C        -26.9470   -3.8370   14.6200 C.2   156  TYR156      0.2619
    118  O        -27.2980   -2.6530   14.5440 O.2   156  TYR156     -0.2715
    119  CB       -24.7530   -4.5640   13.6710 C.3   156  TYR156      0.0574
    120  CG       -24.6570   -3.4880   12.6210 C.ar  156  TYR156     -0.0198
    121  CD1      -23.8650   -2.3620   12.8120 C.ar  156  TYR156     -0.0009
    122  CD2      -25.3270   -3.6210   11.4100 C.ar  156  TYR156     -0.0009
    123  CE1      -23.7600   -1.3910   11.8300 C.ar  156  TYR156      0.0417
    124  CE2      -25.2250   -2.6570   10.4280 C.ar  156  TYR156      0.0417
    125  CZ       -24.4350   -1.5440   10.6440 C.ar  156  TYR156      0.1957
    126  OH       -24.3310   -0.5800    9.6710 O.3   156  TYR156     -0.2866
    127  N        -27.8000   -4.8450   14.4250 N.am  157  PHE157     -0.1974
    128  CA       -29.1550   -4.6010   13.9340 C.3   157  PHE157      0.1639
    129  C        -30.1250   -4.2280   15.0480 C.2   157  PHE157      0.2290
    130  O        -31.1230   -3.5440   14.7870 O.2   157  PHE157     -0.2864
    131  CB       -29.6680   -5.8300   13.1820 C.3   157  PHE157      0.0560
    132  CG       -28.8850   -6.1480   11.9380 C.ar  157  PHE157     -0.0200
    133  CD1      -27.7180   -6.8940   12.0040 C.ar  157  PHE157     -0.0042
    134  CD2      -29.3240   -5.7140   10.6970 C.ar  157  PHE157     -0.0042
    135  CE1      -27.0000   -7.1870   10.8560 C.ar  157  PHE157     -0.0003
    136  CE2      -28.6080   -6.0020    9.5480 C.ar  157  PHE157     -0.0003
    137  CZ       -27.4450   -6.7430    9.6280 C.ar  157  PHE157     -0.0000
    138  N        -29.5800  -13.3740    9.2800 N.3   211  TYR211     -0.1241
    139  CA       -29.5060  -12.5470    8.0790 C.3   211  TYR211      0.1605
    140  C        -30.1990  -13.2190    6.8990 C.2   211  TYR211      0.2264
    141  O        -31.0120  -12.5980    6.2070 O.2   211  TYR211     -0.2867
    142  CB       -28.0470  -12.2360    7.7340 C.3   211  TYR211      0.0534
    143  CG       -27.9100  -11.1870    6.6540 C.ar  211  TYR211     -0.0201
    144  CD1      -28.0170  -11.5180    5.3070 C.ar  211  TYR211     -0.0009
    145  CD2      -27.6880   -9.8570    6.9830 C.ar  211  TYR211     -0.0009
    146  CE1      -27.8990  -10.5530    4.3220 C.ar  211  TYR211      0.0417
    147  CE2      -27.5720   -8.8900    6.0100 C.ar  211  TYR211      0.0417
    148  CZ       -27.6750   -9.2360    4.6830 C.ar  211  TYR211      0.1957
    149  OH       -27.5590   -8.2610    3.7170 O.3   211  TYR211     -0.2866
    150  N        -25.7960   -2.5280    1.2280 N.3   231  TRP231     -0.1241
    151  CA       -25.3020   -3.7290    0.5570 C.3   231  TRP231      0.1605
    152  C        -26.4300   -4.6950    0.2170 C.2   231  TRP231      0.2264
    153  O        -26.2990   -5.5010   -0.7130 O.2   231  TRP231     -0.2867
    154  CB       -24.2760   -4.4300    1.4550 C.3   231  TRP231      0.0550
    155  CG       -24.8200   -4.6900    2.8210 C.ar  231  TRP231      0.0003
    156  CD1      -25.5930   -5.7480    3.2070 C.ar  231  TRP231      0.0946
    157  CD2      -24.6740   -3.8560    3.9770 C.ar  231  TRP231      0.0152
    158  NE1      -25.9290   -5.6270    4.5330 N.ar  231  TRP231     -0.2442
    159  CE2      -25.3810   -4.4730    5.0280 C.ar  231  TRP231      0.0810
    160  CE3      -24.0100   -2.6490    4.2260 C.ar  231  TRP231      0.0012
    161  CZ2      -25.4410   -3.9280    6.3070 C.ar  231  TRP231      0.0191
    162  CZ3      -24.0730   -2.1080    5.4920 C.ar  231  TRP231      0.0001
    163  CH2      -24.7820   -2.7470    6.5190 C.ar  231  TRP231      0.0015
    164  N        -21.1070    3.1580   10.5280 N.3   261  GLY261     -0.1225
    165  CA       -19.8290    2.5480   10.1900 C.3   261  GLY261      0.1811
    166  C        -19.2550    3.1590    8.9270 C.2   261  GLY261      0.2280
    167  O        -19.9840    3.5050    7.9960 O.2   261  GLY261     -0.2866
    168  N        -19.4130    5.0770   15.1250 N.3   331  MET331     -0.1245
    169  CA       -18.8430    4.1200   16.0530 C.3   331  MET331      0.1570
    170  C        -17.4880    4.6300   16.5300 C.2   331  MET331      0.2261
    171  O        -16.7220    5.1960   15.7380 O.2   331  MET331     -0.2867
    172  CB       -18.6420    2.7590   15.3860 C.3   331  MET331      0.0387
    173  CG       -19.9470    2.0100   15.1430 C.3   331  MET331      0.0595
    174  SD       -19.6490    0.3460   14.5680 S.3   331  MET331     -0.1393
    175  CE       -19.1750    0.6610   12.9010 C.3   331  MET331      0.0692
    176  N        -14.4630   -4.3410   20.3350 N.3   338  SER338     -0.1217
    177  CA       -14.6510   -5.7840   20.2110 C.3   338  SER338      0.1889
    178  C        -15.3390   -6.3540   21.4450 C.2   338  SER338      0.2288
    179  O        -16.3160   -7.1040   21.3380 O.2   338  SER338     -0.2866
    180  CB       -13.2980   -6.4700   19.9960 C.3   338  SER338      0.2089
    181  OG       -12.9020   -6.3940   18.6430 O.3   338  SER338     -0.2183
    182  N        -19.0320   -5.3300   21.4770 N.3   341  TRP341     -0.1227
    183  CA       -19.9260   -6.0250   20.5530 C.3   341  TRP341      0.1737
    184  C        -20.1690   -7.4650   20.9910 C.2   341  TRP341      0.2595
    185  O        -21.3130   -7.9320   21.0000 O.2   341  TRP341     -0.2718
    186  CB       -19.3660   -6.0010   19.1320 C.3   341  TRP341      0.0564
    187  CG       -19.5510   -4.7130   18.3600 C.ar  341  TRP341      0.0003
    188  CD1      -18.5680   -3.9750   17.7660 C.ar  341  TRP341      0.0946
    189  CD2      -20.7850   -4.0380   18.0680 C.ar  341  TRP341      0.0152
    190  NE1      -19.1100   -2.8850   17.1280 N.ar  341  TRP341     -0.2442
    191  CE2      -20.4680   -2.8980   17.3010 C.ar  341  TRP341      0.0810
    192  CE3      -22.1250   -4.2810   18.3860 C.ar  341  TRP341      0.0012
    193  CZ2      -21.4440   -2.0050   16.8510 C.ar  341  TRP341      0.0191
    194  CZ3      -23.0900   -3.3940   17.9340 C.ar  341  TRP341      0.0001
    195  CH2      -22.7450   -2.2740   17.1750 C.ar  341  TRP341      0.0015
    196  N        -19.1060   -8.1990   21.3330 N.am  342  TYR342     -0.1976
    197  CA       -19.2970   -9.5810   21.7660 C.3   342  TYR342      0.1639
    198  C        -20.2270   -9.6450   22.9710 C.2   342  TYR342      0.2290
    199  O        -21.0490  -10.5650   23.0880 O.2   342  TYR342     -0.2864
    200  CB       -17.9580  -10.2390   22.1110 C.3   342  TYR342      0.0560
    201  CG       -17.0620  -10.6040   20.9420 C.ar  342  TYR342     -0.0198
    202  CD1      -17.4880  -11.4740   19.9410 C.ar  342  TYR342     -0.0009
    203  CD2      -15.7670  -10.1120   20.8670 C.ar  342  TYR342     -0.0009
    204  CE1      -16.6500  -11.8190   18.8850 C.ar  342  TYR342      0.0417
    205  CE2      -14.9270  -10.4510   19.8210 C.ar  342  TYR342      0.0417
    206  CZ       -15.3740  -11.3020   18.8310 C.ar  342  TYR342      0.1957
    207  OH       -14.5290  -11.6350   17.7950 O.3   342  TYR342     -0.2866
    208  N        -23.8370   -8.9100   21.8070 N.3   345  ARG345     -0.1245
    209  CA       -24.3280  -10.0500   21.0340 C.3   345  ARG345      0.1563
    210  C        -24.9060  -11.1150   21.9580 C.2   345  ARG345      0.2260
    211  O        -26.0220  -11.6080   21.7480 O.2   345  ARG345     -0.2867
    212  CB       -23.1990  -10.6630   20.2010 C.3   345  ARG345      0.0307
    213  CG       -23.6870  -11.8090   19.3180 C.3   345  ARG345      0.0489
    214  CD       -22.5760  -12.5240   18.5810 C.3   345  ARG345      0.2205
    215  NE       -23.1000  -13.1060   17.3480 N.pl3 345  ARG345     -0.0865
    216  CZ       -23.6300  -14.3210   17.2450 C.cat 345  ARG345      0.5346
    217  NH1      -23.6990  -15.1240   18.2990 N.pl3 345  ARG345      0.1354
    218  NH2      -24.0900  -14.7380   16.0730 N.pl3 345  ARG345      0.1354
@<TRIPOS>BOND
     1    20    19    2
     2    19    18    1
     3   153   152    2
     4    18    21    1
     5    18    17    1
     6   152   151    1
     7   151   150    1
     8   151   154    1
     9    21    22    1
    10    12    11    2
    11    17    11   am
    12    11    10    1
    13   154   155    1
    14     4     3    2
    15    10     9    1
    16    10    13    1
    17    22    23    1
    18    23    24    1
    19     3     2    1
    20   155   156   ar
    21   155   157   ar
    22     1     2    1
    23    13    14    1
    24   156   158   ar
    25     2     5    1
    26    24    25    1
    27   149   148    1
    28    15    14   ar
    29   157   160   ar
    30   157   159   ar
    31    14    16   ar
    32   160   162   ar
    33   146   148   ar
    34   146   144   ar
    35   158   159   ar
    36   148   147   ar
    37     5     6    1
    38    90    88   ar
    39   159   161   ar
    40   144   143   ar
    41    87    88    1
    42    87    86    1
    43   162   163   ar
    44     6     8   am
    45     6     7    2
    46    88    89   ar
    47   147   145   ar
    48    82    83    1
    49   141   140    2
    50    83    86    1
    51    83    84    1
    52   161   163   ar
    53    44    45    1
    54   143   145   ar
    55   143   142    1
    56   140   139    1
    57    45    46    1
    58    45    48    1
    59    84    85    2
    60    47    46    2
    61   142   139    1
    62    46    58   am
    63   167   166    2
    64   139   138    1
    65    54    56   ar
    66    54    51   ar
    67    56    57   ar
    68    58    59    1
    69    48    49    1
    70   166   165    1
    71    59    62    1
    72    59    60    1
    73    51    49   ar
    74    51    53   ar
    75    57    55   ar
    76    49    50   ar
    77   136   137   ar
    78   136   134   ar
    79   137   135   ar
    80   126   125    1
    81    26    27    1
    82    60    61    2
    83   165   164    1
    84    53    55   ar
    85    53    52   ar
    86   124   125   ar
    87   124   122   ar
    88   125   123   ar
    89    33    32   ar
    90   134   132   ar
    91    50    52   ar
    92   135   133   ar
    93    27    30    1
    94    27    28    1
    95    98    96   am
    96    95    96    1
    97    95    92    1
    98    91    92    1
    99    30    31    1
   100   122   120   ar
   101    96    97    2
   102    92    93    1
   103   123   121   ar
   104    32    31    1
   105    32    34   ar
   106   132   133   ar
   107   132   131    1
   108    28    35   am
   109    28    29    2
   110    35    36    1
   111   120   121   ar
   112   120   119    1
   113   175   174    1
   114    37    36    1
   115    37    38    2
   116    69    68   ar
   117    63    64    1
   118   131   128    1
   119    75    76    1
   120    75    72    1
   121   104   103    1
   122   104   105    1
   123    93    94    2
   124    36    39    1
   125   119   116    1
   126    76    77    1
   127   103   100    1
   128   107   105   ar
   129   128   127    1
   130   128   129    1
   131    71    72    1
   132    71    65   am
   133   105   106   ar
   134    39    40    1
   135    73    72    1
   136    73    74    2
   137    68    67    1
   138    68    70   ar
   139   127   117   am
   140   118   117    2
   141    64    65    1
   142    64    67    1
   143   174   173    1
   144   117   116    1
   145    77    78    1
   146    40    41    1
   147    42    41   ar
   148   130   129    2
   149    65    66    2
   150   116   115    1
   151    78    79    2
   152   168   169    1
   153   173   172    1
   154    99   100    1
   155   100   101    1
   156    41    43   ar
   157   172   169    1
   158   102   101    2
   159   171   170    2
   160   115   110   am
   161    79    81    1
   162    79    80    1
   163   101   108   am
   164   169   170    1
   165   218   216    1
   166   193   195   ar
   167   193   191   ar
   168   110   111    2
   169   110   109    1
   170   108   114    1
   171   108   109    1
   172   190   191   ar
   173   190   188   ar
   174   195   194   ar
   175   216   215    2
   176   216   217    1
   177   191   189   ar
   178   215   214    1
   179   114   113    1
   180   109   112    1
   181   188   187   ar
   182   207   206    1
   183   194   192   ar
   184   189   187   ar
   185   189   192   ar
   186   187   186    1
   187   113   112    1
   188   214   213    1
   189   181   180    1
   190   206   204   ar
   191   206   205   ar
   192   204   202   ar
   193   186   183    1
   194   213   212    1
   195   205   203   ar
   196   202   201   ar
   197   180   177    1
   198   212   209    1
   199   177   176    1
   200   177   178    1
   201   183   184    1
   202   183   182    1
   203   203   201   ar
   204   201   200    1
   205   184   185    2
   206   184   196   am
   207   209   208    1
   208   209   210    1
   209   196   197    1
   210   179   178    2
   211   211   210    2
   212   197   200    1
   213   197   198    1
   214   198   199    2
