@<TRIPOS>MOLECULE
tmp/5hz8A00.pdb
 234 216 0 0 0
SMALL
GASTEIGER

@<TRIPOS>ATOM
      1  N         11.4960    0.0280  -21.4060 N.3    20  PHE20      -0.1241
      2  CA        10.4860   -0.9870  -21.6980 C.3    20  PHE20       0.1605
      3  C         10.1390   -1.0740  -23.1740 C.2    20  PHE20       0.2264
      4  O          9.9450   -2.1680  -23.6990 O.2    20  PHE20      -0.2867
      5  CB         9.2690   -0.8060  -20.7930 C.3    20  PHE20       0.0534
      6  CG         8.2080   -1.9250  -20.8580 C.ar   20  PHE20      -0.0203
      7  CD1        8.5550   -3.2250  -20.6660 C.ar   20  PHE20      -0.0042
      8  CD2        6.9040   -1.5850  -21.0540 C.ar   20  PHE20      -0.0042
      9  CE1        7.5440   -4.2090  -20.6800 C.ar   20  PHE20      -0.0003
     10  CE2        5.9230   -2.5570  -21.0800 C.ar   20  PHE20      -0.0003
     11  CZ         6.2370   -3.8420  -20.8950 C.ar   20  PHE20      -0.0000
     12  N         12.9080   -2.9680  -24.8860 N.3    23  TYR23      -0.1227
     13  CA        12.8160   -4.3480  -24.5640 C.3    23  TYR23       0.1736
     14  C         11.7040   -5.0580  -25.3710 C.2    23  TYR23       0.2595
     15  O         11.9210   -6.1080  -25.9510 O.2    23  TYR23      -0.2718
     16  CB        12.6200   -4.5130  -23.0440 C.3    23  TYR23       0.0548
     17  CG        12.3980   -5.9290  -22.5770 C.ar   23  TYR23      -0.0200
     18  CD1       13.4790   -6.8160  -22.4510 C.ar   23  TYR23      -0.0009
     19  CD2       11.1110   -6.3910  -22.2960 C.ar   23  TYR23      -0.0009
     20  CE1       13.2800   -8.0920  -22.1120 C.ar   23  TYR23       0.0417
     21  CE2       10.9100   -7.7160  -21.9340 C.ar   23  TYR23       0.0417
     22  CZ        12.0130   -8.5690  -21.8580 C.ar   23  TYR23       0.1957
     23  OH        11.7420   -9.8520  -21.4930 O.3    23  TYR23      -0.2866
     24  N         10.5240   -4.4610  -25.3960 N.am   24  MET24      -0.1979
     25  CA         9.4250   -5.0270  -26.1870 C.3    24  MET24       0.1605
     26  C          9.7780   -5.1030  -27.6510 C.2    24  MET24       0.2287
     27  O          9.4350   -6.0770  -28.3150 O.2    24  MET24      -0.2864
     28  CB         8.1300   -4.2370  -25.9750 C.3    24  MET24       0.0413
     29  CG         7.4930   -4.4320  -24.6470 C.3    24  MET24       0.0598
     30  SD         5.8340   -3.6700  -24.5560 S.3    24  MET24      -0.1393
     31  CE         6.2490   -1.9280  -24.5400 C.3    24  MET24       0.0692
     32  N         11.7850   -8.1030  -28.3850 N.3    27  LEU27      -0.1245
     33  CA        10.9440   -9.2700  -28.3890 C.3    27  LEU27       0.1561
     34  C         10.0760   -9.4030  -29.5900 C.2    27  LEU27       0.2260
     35  O          9.3380  -10.3950  -29.7030 O.2    27  LEU27      -0.2867
     36  CB        10.0660   -9.3070  -27.1470 C.3    27  LEU27       0.0270
     37  CG        10.7530   -9.4780  -25.8160 C.3    27  LEU27       0.0019
     38  CD1        9.7680   -9.2490  -24.7180 C.3    27  LEU27       0.0001
     39  CD2       11.4010  -10.7980  -25.6790 C.3    27  LEU27       0.0001
     40  N          7.4900   -7.1670  -30.3280 N.3    29  VAL29      -0.1245
     41  CA         6.1600   -6.6010  -30.0690 C.3    29  VAL29       0.1561
     42  C          5.8700   -5.4790  -31.0470 C.2    29  VAL29       0.2260
     43  O          6.6920   -4.6130  -31.2480 O.2    29  VAL29      -0.2867
     44  CB         6.0310   -6.1530  -28.6190 C.3    29  VAL29       0.0252
     45  CG1        4.6350   -5.6380  -28.3150 C.3    29  VAL29       0.0019
     46  CG2        6.3760   -7.2600  -27.6140 C.3    29  VAL29       0.0019
     47  N          0.6410   -2.5790  -29.7560 N.3    33  THR33      -0.1218
     48  CA         0.7360   -3.2650  -28.5020 C.3    33  THR33       0.1862
     49  C          1.7610   -2.5800  -27.6040 C.2    33  THR33       0.2287
     50  O          1.5530   -2.4660  -26.3880 O.2    33  THR33      -0.2866
     51  CB         1.0350   -4.7390  -28.7010 C.3    33  THR33       0.1770
     52  OG1       -0.0800   -5.3150  -29.3920 O.3    33  THR33      -0.2211
     53  CG2        1.2390   -5.4950  -27.4070 C.3    33  THR33       0.0375
     54  N          0.5380   -1.3190  -23.9900 N.3    37  ALA37      -0.1245
     55  CA         1.1500   -1.9420  -22.8580 C.3    37  ALA37       0.1562
     56  C          1.9790   -0.9660  -22.0870 C.2    37  ALA37       0.2260
     57  O          2.0520   -1.0160  -20.8510 O.2    37  ALA37      -0.2867
     58  CB         2.0340   -3.1510  -23.2830 C.3    37  ALA37       0.0290
     59  N          0.1670    1.1540  -19.3360 N.3    40  ALA40      -0.1245
     60  CA        -0.4920    0.5300  -18.1990 C.3    40  ALA40       0.1562
     61  C          0.3750    0.5330  -16.9640 C.2    40  ALA40       0.2260
     62  O          1.5960    0.4610  -17.0220 O.2    40  ALA40      -0.2867
     63  CB        -0.9000   -0.9150  -18.5630 C.3    40  ALA40       0.0290
     64  N          0.2320   -2.0940  -14.2400 N.3    42  PRO42      -0.2116
     65  CA        -0.3160   -3.2940  -13.7020 C.3    42  PRO42       0.1372
     66  C         -0.0750   -3.4890  -12.2010 C.2    42  PRO42       0.2244
     67  O          0.8530   -2.9770  -11.6220 O.2    42  PRO42      -0.2868
     68  CB         0.4090   -4.4040  -14.4590 C.3    42  PRO42       0.0268
     69  CG         1.6460   -3.7420  -15.0720 C.3    42  PRO42       0.0207
     70  CD         1.2810   -2.3690  -15.2420 C.3    42  PRO42       0.0892
     71  N          0.1990   -6.7480   -9.3910 N.3    44  THR44      -0.1218
     72  CA         0.4770   -8.1600   -9.3220 C.3    44  THR44       0.1862
     73  C          0.4300   -8.6130   -7.9030 C.2    44  THR44       0.2287
     74  O          1.1240   -7.9980   -7.0470 O.2    44  THR44      -0.2866
     75  CB         1.8590   -8.4780   -9.8880 C.3    44  THR44       0.1770
     76  OG1        1.9150   -8.1160  -11.2690 O.3    44  THR44      -0.2211
     77  CG2        2.1750  -10.0340   -9.8310 C.3    44  THR44       0.0375
     78  N         -1.5600  -11.0700  -12.2690 N.3    57  THR57      -0.1218
     79  CA        -1.4850   -9.6960  -12.7100 C.3    57  THR57       0.1862
     80  C         -2.7690   -9.2470  -13.3340 C.2    57  THR57       0.2287
     81  O         -3.4440   -9.9710  -14.0620 O.2    57  THR57      -0.2866
     82  CB        -0.3810   -9.5990  -13.7080 C.3    57  THR57       0.1770
     83  OG1        0.8540  -10.0000  -13.0900 O.3    57  THR57      -0.2211
     84  CG2       -0.2440   -8.2070  -14.3320 C.3    57  THR57       0.0375
     85  N         -4.5740   -5.6680  -15.1040 N.3    59  SER59      -0.1217
     86  CA        -4.3050   -4.3530  -15.6610 C.3    59  SER59       0.1889
     87  C         -5.3970   -4.0410  -16.6590 C.2    59  SER59       0.2288
     88  O         -6.2030   -4.8880  -17.0480 O.2    59  SER59      -0.2866
     89  CB        -2.9820   -4.3330  -16.3700 C.3    59  SER59       0.2089
     90  OG        -2.9950   -5.0140  -17.6080 O.3    59  SER59      -0.2183
     91  N         -4.7640   -3.6730  -19.7500 N.3    61  PHE61      -0.1227
     92  CA        -4.3290   -4.2740  -21.0030 C.3    61  PHE61       0.1736
     93  C         -4.6000   -5.7610  -21.0370 C.2    61  PHE61       0.2595
     94  O         -5.3660   -6.2760  -21.8590 O.2    61  PHE61      -0.2718
     95  CB        -2.8450   -3.9440  -21.2560 C.3    61  PHE61       0.0547
     96  CG        -2.1880   -4.7240  -22.4040 C.ar   61  PHE61      -0.0202
     97  CD1       -2.7070   -4.6510  -23.6710 C.ar   61  PHE61      -0.0042
     98  CD2       -1.0760   -5.5280  -22.1750 C.ar   61  PHE61      -0.0042
     99  CE1       -2.1040   -5.4100  -24.7150 C.ar   61  PHE61      -0.0003
    100  CE2       -0.5480   -6.2480  -23.2020 C.ar   61  PHE61      -0.0003
    101  CZ        -1.0530   -6.2130  -24.4350 C.ar   61  PHE61      -0.0000
    102  N         -4.0060   -6.4560  -20.0950 N.am   62  LYS62      -0.1980
    103  CA        -4.0890   -7.8980  -20.0210 C.3    62  LYS62       0.1596
    104  C         -4.0210   -8.1950  -18.4670 C.2    62  LYS62       0.2287
    105  O         -3.3810   -7.6460  -17.6380 O.2    62  LYS62      -0.2864
    106  CB        -2.8780   -8.5710  -20.7170 C.3    62  LYS62       0.0298
    107  CG        -2.7850   -8.5020  -22.2380 C.3    62  LYS62       0.0038
    108  CD        -3.3930   -9.7170  -22.8500 C.3    62  LYS62       0.0206
    109  CE        -3.1160   -9.8290  -24.3480 C.3    62  LYS62       0.1093
    110  NZ        -3.7310   -8.6960  -25.1020 N.3    62  LYS62      -0.1314
    111  N         -3.1030  -11.7660  -16.4140 N.3    64  THR64      -0.1218
    112  CA        -2.3030  -12.9910  -16.5770 C.3    64  THR64       0.1862
    113  C         -2.2570  -13.6460  -15.2000 C.2    64  THR64       0.2287
    114  O         -2.2550  -12.9580  -14.2010 O.2    64  THR64      -0.2866
    115  CB        -0.8660  -12.7050  -17.1400 C.3    64  THR64       0.1770
    116  OG1       -0.0900  -11.8270  -16.2910 O.3    64  THR64      -0.2211
    117  CG2       -0.9480  -12.0510  -18.5460 C.3    64  THR64       0.0375
    118  N          4.0750  -21.1170  -20.4140 N.3    76  GLU76      -0.1245
    119  CA         3.5500  -19.7880  -20.1600 C.3    76  GLU76       0.1567
    120  C          3.1630  -19.1270  -21.4550 C.2    76  GLU76       0.2260
    121  O          3.8970  -19.2280  -22.4330 O.2    76  GLU76      -0.2867
    122  CB         4.6630  -18.9780  -19.4250 C.3    76  GLU76       0.0388
    123  CG         4.2510  -17.5200  -19.1290 C.3    76  GLU76       0.1160
    124  CD         5.3250  -16.6920  -18.4370 C.2    76  GLU76       0.3649
    125  OE1        6.4760  -17.1400  -18.2850 O.co2  76  GLU76      -0.2457
    126  OE2        4.9800  -15.5520  -18.0410 O.co2  76  GLU76      -0.2457
    127  N          2.8010  -15.3770  -22.6080 N.3    78  THR78      -0.1203
    128  CA         3.1460  -14.0220  -22.1230 C.3    78  THR78       0.1994
    129  C          2.0960  -13.0220  -22.5620 C.2    78  THR78       0.2618
    130  O          1.2370  -13.3000  -23.4030 O.2    78  THR78      -0.2717
    131  CB         4.5480  -13.6450  -22.6140 C.3    78  THR78       0.1784
    132  OG1        4.5020  -13.4860  -24.0480 O.3    78  THR78      -0.2211
    133  CG2        5.5890  -14.6980  -22.2650 C.3    78  THR78       0.0376
    134  N          2.1940  -11.8150  -21.9960 N.am   79  ALA79      -0.1965
    135  CA         1.2310  -10.7560  -22.2800 C.3    79  ALA79       0.1728
    136  C          1.2610  -10.3590  -23.7670 C.2    79  ALA79       0.2616
    137  O          0.2000   -9.9420  -24.3050 O.2    79  ALA79      -0.2715
    138  CB         1.4580   -9.5960  -21.4060 C.3    79  ALA79       0.0334
    139  N          2.4250  -10.5100  -24.4260 N.am   80  ASP80      -0.1971
    140  CA         2.6060  -10.3000  -25.8630 C.3    80  ASP80       0.1709
    141  C          2.4010  -11.5430  -26.6830 C.2    80  ASP80       0.2293
    142  O          2.7110  -11.5630  -27.8650 O.2    80  ASP80      -0.2864
    143  CB         3.9450   -9.6660  -26.2060 C.3    80  ASP80       0.1436
    144  CG         5.1350  -10.4680  -25.7360 C.2    80  ASP80       0.3671
    145  OD1        5.1240  -10.9360  -24.5680 O.co2  80  ASP80      -0.2456
    146  OD2        6.0840  -10.5870  -26.5020 O.co2  80  ASP80      -0.2456
    147  N          3.6160  -14.6370  -26.6590 N.3    82  ARG82      -0.1245
    148  CA         4.6040  -15.6600  -26.9020 C.3    82  ARG82       0.1563
    149  C          4.2550  -16.9090  -26.1000 C.2    82  ARG82       0.2260
    150  O          3.8790  -16.8230  -24.9480 O.2    82  ARG82      -0.2867
    151  CB         6.0040  -15.1860  -26.5160 C.3    82  ARG82       0.0307
    152  CG         6.5970  -14.1380  -27.4360 C.3    82  ARG82       0.0489
    153  CD         7.9240  -13.5870  -26.9060 C.3    82  ARG82       0.2205
    154  NE         7.7290  -12.7200  -25.7670 N.pl3  82  ARG82      -0.0865
    155  CZ         8.1590  -12.8590  -24.5290 C.cat  82  ARG82       0.5346
    156  NH1        9.0870  -13.7610  -24.2040 N.pl3  82  ARG82       0.1354
    157  NH2        7.6770  -12.0600  -23.6010 N.pl3  82  ARG82       0.1354
    158  N         13.8280  -15.7630  -13.6820 N.3    97  HIS97      -0.1241
    159  CA        12.7960  -16.3140  -14.5600 C.3    97  HIS97       0.1621
    160  C         13.3430  -16.3180  -15.9990 C.2    97  HIS97       0.2264
    161  O         13.6310  -15.2600  -16.5510 O.2    97  HIS97      -0.2867
    162  CB        11.5740  -15.4440  -14.4230 C.3    97  HIS97       0.0745
    163  CG        10.3670  -15.8430  -15.2400 C.ar   97  HIS97       0.0817
    164  ND1        9.1740  -15.1910  -15.0540 N.ar   97  HIS97      -0.2268
    165  CD2       10.1640  -16.7880  -16.1920 C.ar   97  HIS97       0.1154
    166  CE1        8.3040  -15.7110  -15.9080 C.ar   97  HIS97       0.1986
    167  NE2        8.8650  -16.6860  -16.5790 N.ar   97  HIS97      -0.2212
    168  N         12.6930  -17.4580  -19.9050 N.3    99  GLN99      -0.1245
    169  CA        11.6820  -17.8260  -20.9070 C.3    99  GLN99       0.1566
    170  C         12.4380  -18.2120  -22.1970 C.2    99  GLN99       0.2260
    171  O         13.2280  -17.4150  -22.6890 O.2    99  GLN99      -0.2867
    172  CB        10.7700  -16.6820  -21.2040 C.3    99  GLN99       0.0367
    173  CG         9.9640  -16.1850  -20.0440 C.3    99  GLN99       0.0905
    174  CD         9.1060  -14.9970  -20.3530 C.2    99  GLN99       0.2608
    175  OE1        9.4370  -14.1950  -21.2070 O.2    99  GLN99      -0.2717
    176  NE2        7.9730  -14.8590  -19.6480 N.am   99  GLN99      -0.0878
    177  N         14.4060  -12.5810  -16.6910 N.3   108  LEU108     -0.1245
    178  CA        13.6760  -11.6040  -15.8910 C.3   108  LEU108      0.1561
    179  C         14.0610  -11.8400  -14.4300 C.2   108  LEU108      0.2260
    180  O         13.8070  -12.9360  -13.9140 O.2   108  LEU108     -0.2867
    181  CB        12.1690  -11.8060  -16.0740 C.3   108  LEU108      0.0270
    182  CG        11.7220  -12.1580  -17.5180 C.3   108  LEU108      0.0019
    183  CD1       10.2460  -12.5700  -17.4990 C.3   108  LEU108      0.0001
    184  CD2       12.1130  -11.1720  -18.5330 C.3   108  LEU108      0.0001
    185  N         13.8130  -10.6890  -10.3830 N.3   110  ARG110     -0.1245
    186  CA        13.0560   -9.9370   -9.3670 C.3   110  ARG110      0.1563
    187  C         13.8830   -9.8930   -8.0910 C.2   110  ARG110      0.2260
    188  O         14.2920  -10.9110   -7.5790 O.2   110  ARG110     -0.2867
    189  CB        11.7530  -10.6710   -9.0830 C.3   110  ARG110      0.0307
    190  CG        10.7480  -10.7140  -10.2160 C.3   110  ARG110      0.0489
    191  CD         9.6470  -11.6900   -9.9560 C.3   110  ARG110      0.2205
    192  NE         8.5330  -11.5490  -10.8730 N.pl3 110  ARG110     -0.0865
    193  CZ         8.4370  -12.2090  -12.0150 C.cat 110  ARG110      0.5346
    194  NH1        9.2730  -13.1390  -12.4600 N.pl3 110  ARG110      0.1354
    195  NH2        7.3120  -12.0300  -12.7520 N.pl3 110  ARG110      0.1354
    196  N         12.4370   -5.2340  -11.0350 N.3   119  LEU119     -0.1245
    197  CA        12.5760   -6.2600  -12.0770 C.3   119  LEU119      0.1561
    198  C         13.5860   -5.7920  -13.1350 C.2   119  LEU119      0.2260
    199  O         13.4990   -4.6490  -13.6070 O.2   119  LEU119     -0.2867
    200  CB        11.2470   -6.5110  -12.7700 C.3   119  LEU119      0.0270
    201  CG        10.3780   -7.5950  -12.2130 C.3   119  LEU119      0.0019
    202  CD1        9.8790   -7.1580  -10.7850 C.3   119  LEU119      0.0001
    203  CD2        9.2330   -7.9430  -13.0840 C.3   119  LEU119      0.0001
    204  N         14.8720   -6.9240  -16.8370 N.3   121  LEU121     -0.1245
    205  CA        14.4600   -7.7410  -17.9930 C.3   121  LEU121      0.1561
    206  C         15.5050   -7.6150  -19.0510 C.2   121  LEU121      0.2260
    207  O         15.8390   -6.4750  -19.4580 O.2   121  LEU121     -0.2867
    208  CB        13.1410   -7.2820  -18.5800 C.3   121  LEU121      0.0270
    209  CG        12.0470   -6.9360  -17.5730 C.3   121  LEU121      0.0019
    210  CD1       10.7120   -6.6500  -18.2720 C.3   121  LEU121      0.0001
    211  CD2       11.9250   -8.0010  -16.5010 C.3   121  LEU121      0.0001
    212  N         11.8430   -2.3650  -14.3030 N.3   130  ARG130     -0.1245
    213  CA        10.4650   -2.0710  -13.9120 C.3   130  ARG130      0.1563
    214  C         10.4620   -2.0710  -12.3840 C.2   130  ARG130      0.2260
    215  O         10.8900   -3.0460  -11.7850 O.2   130  ARG130     -0.2867
    216  CB         9.5120   -3.1360  -14.4930 C.3   130  ARG130      0.0307
    217  CG         9.6430   -3.4340  -15.9460 C.3   130  ARG130      0.0489
    218  CD         8.6040   -2.7960  -16.7630 C.3   130  ARG130      0.2205
    219  NE         7.2440   -3.3720  -16.6680 N.pl3 130  ARG130     -0.0865
    220  CZ         6.1670   -2.7890  -17.2160 C.cat 130  ARG130      0.5346
    221  NH1        6.3060   -1.6180  -17.7490 N.pl3 130  ARG130      0.1354
    222  NH2        4.9910   -3.4260  -17.2180 N.pl3 130  ARG130      0.1354
    223  N          8.3640   -1.5970   -8.7500 N.3   132  TYR132     -0.1241
    224  CA         7.0530   -1.7620   -8.1020 C.3   132  TYR132      0.1605
    225  C          7.0980   -1.3640   -6.6390 C.2   132  TYR132      0.2264
    226  O          8.1630   -1.5630   -5.9890 O.2   132  TYR132     -0.2867
    227  CB         6.6450   -3.2380   -8.1620 C.3   132  TYR132      0.0534
    228  CG         6.4110   -3.7460   -9.5620 C.ar  132  TYR132     -0.0201
    229  CD1        7.4700   -4.1280  -10.3840 C.ar  132  TYR132     -0.0009
    230  CD2        5.1450   -3.9380  -10.0400 C.ar  132  TYR132     -0.0009
    231  CE1        7.2110   -4.5570  -11.7100 C.ar  132  TYR132      0.0417
    232  CE2        4.8980   -4.3800  -11.3250 C.ar  132  TYR132      0.0417
    233  CZ         5.9430   -4.6840  -12.1430 C.ar  132  TYR132      0.1957
    234  OH         5.7280   -5.1130  -13.4410 O.3   132  TYR132     -0.2866
@<TRIPOS>BOND
     1    43    42    2
     2    42    41    1
     3    40    41    1
     4    41    44    1
     5    47    48    1
     6    35    34    2
     7    34    33    1
     8    52    51    1
     9    51    48    1
    10    51    53    1
    11    44    45    1
    12    44    46    1
    13    48    49    1
    14    33    32    1
    15    33    36    1
    16    27    26    2
    17   142   141    2
    18    26    25    1
    19    49    50    2
    20   152   153    1
    21   152   151    1
    22    36    37    1
    23   153   154    1
    24   148   147    1
    25   148   151    1
    26   148   149    1
    27   141   140    1
    28   146   144   ar
    29   143   140    1
    30   143   144    1
    31    25    28    1
    32    25    24    1
    33   149   150    2
    34    28    29    1
    35    15    14    2
    36   140   139    1
    37    37    39    1
    38    37    38    1
    39   154   155    2
    40   144   145   ar
    41    24    14   am
    42    14    13    1
    43   110   109    1
    44    12    13    1
    45    99   101   ar
    46    99    97   ar
    47    29    30    1
    48    13    16    1
    49    30    31    1
    50   155   156    1
    51   155   157    1
    52   101   100   ar
    53   139   136   am
    54   109   108    1
    55   137   136    2
    56   132   131    1
    57    54    55    1
    58   136   135    1
    59     4     3    2
    60    97    96   ar
    61   130   129    2
    62    58    55    1
    63   100    98   ar
    64     3     2    1
    65    16    17    1
    66    55    56    1
    67   108   107    1
    68   171   170    2
    69   131   133    1
    70   131   128    1
    71   127   128    1
    72    17    18   ar
    73    17    19   ar
    74   129   128    1
    75   129   134   am
    76    18    20   ar
    77   121   120    2
    78    96    98   ar
    79    96    95    1
    80    19    21   ar
    81   135   134    1
    82   135   138    1
    83   107   106    1
    84   170   169    1
    85    20    22   ar
    86    56    57    2
    87    21    22   ar
    88    94    93    2
    89    22    23    1
    90     2     1    1
    91     2     5    1
    92   120   119    1
    93    95    92    1
    94   175   174    2
    95   172   169    1
    96   172   173    1
    97    10     8   ar
    98    10    11   ar
    99     8     6   ar
   100    93    92    1
   101    93   102   am
   102    92    91    1
   103   169   168    1
   104    11     9   ar
   105     6     5    1
   106     6     7   ar
   107   106   103    1
   108     9     7   ar
   109   118   119    1
   110   174   173    1
   111   174   176   am
   112   119   122    1
   113   102   103    1
   114   103   104    1
   115   207   206    2
   116   122   123    1
   117    59    60    1
   118   123   124    1
   119   206   205    1
   120   208   205    1
   121   208   209    1
   122    63    60    1
   123   117   115    1
   124   184   182    1
   125   104   105    2
   126   124   125   ar
   127   124   126   ar
   128   210   209    1
   129    60    61    1
   130   205   204    1
   131   221   220    1
   132    90    89    1
   133   209   211    1
   134   182   183    1
   135   182   181    1
   136   222   220    1
   137   220   219    2
   138   115   112    1
   139   115   116    1
   140    88    87    2
   141    62    61    2
   142   218   219    1
   143   218   217    1
   144   177   178    1
   145    87    86    1
   146   167   165   ar
   147   167   166   ar
   148   112   111    1
   149   112   113    1
   150   161   160    2
   151    89    86    1
   152   165   163   ar
   153   181   178    1
   154   160   159    1
   155   217   216    1
   156   166   164   ar
   157   178   179    1
   158    86    85    1
   159    70    69    1
   160    70    64    1
   161   163   164   ar
   162   163   162    1
   163   113   114    2
   164    69    68    1
   165   159   162    1
   166   159   158    1
   167   216   213    1
   168    68    65    1
   169   179   180    2
   170    84    82    1
   171   212   213    1
   172    64    65    1
   173    81    80    2
   174   213   214    1
   175    82    83    1
   176    82    79    1
   177    65    66    1
   178   199   198    2
   179   234   233    1
   180    80    79    1
   181   198   197    1
   182   203   201    1
   183   200   201    1
   184   200   197    1
   185   195   193    1
   186    79    78    1
   187   194   193    1
   188   214   215    2
   189   201   202    1
   190    66    67    2
   191   233   231   ar
   192   233   232   ar
   193   197   196    1
   194   193   192    2
   195   231   229   ar
   196   232   230   ar
   197    76    75    1
   198   192   191    1
   199   229   228   ar
   200   185   186    1
   201   190   191    1
   202   190   189    1
   203   230   228   ar
   204    75    77    1
   205    75    72    1
   206   228   227    1
   207    71    72    1
   208   186   189    1
   209   186   187    1
   210    72    73    1
   211   223   224    1
   212   227   224    1
   213   224   225    1
   214   187   188    2
   215    73    74    2
   216   225   226    2
