@<TRIPOS>MOLECULE
tmp/5hz9D00.pdb
 208 192 0 0 0
SMALL
GASTEIGER

@<TRIPOS>ATOM
      1  N        -16.1210   43.1990    1.1110 N.3    19  PHE19      -0.1241
      2  CA       -15.0920   43.6650    2.0430 C.3    19  PHE19       0.1605
      3  C        -13.7460   43.8640    1.3410 C.2    19  PHE19       0.2264
      4  O        -13.1370   44.9290    1.4280 O.2    19  PHE19      -0.2867
      5  CB       -14.9430   42.7120    3.2340 C.3    19  PHE19       0.0534
      6  CG       -13.9690   43.1900    4.2570 C.ar   19  PHE19      -0.0203
      7  CD1      -14.0640   44.4780    4.7720 C.ar   19  PHE19      -0.0042
      8  CD2      -12.9440   42.3710    4.6980 C.ar   19  PHE19      -0.0042
      9  CE1      -13.1430   44.9430    5.7140 C.ar   19  PHE19      -0.0003
     10  CE2      -12.0160   42.8250    5.6500 C.ar   19  PHE19      -0.0003
     11  CZ       -12.1160   44.1150    6.1570 C.ar   19  PHE19      -0.0000
     12  N        -13.9140   46.9340   -0.6850 N.3    22  TYR22      -0.1227
     13  CA       -13.8000   48.1120    0.1580 C.3    22  TYR22       0.1736
     14  C        -12.3430   48.4420    0.4890 C.2    22  TYR22       0.2595
     15  O        -11.9290   49.5830    0.3380 O.2    22  TYR22      -0.2718
     16  CB       -14.5980   47.9130    1.4350 C.3    22  TYR22       0.0548
     17  CG       -14.5090   49.0580    2.3960 C.ar   22  TYR22      -0.0200
     18  CD1      -15.1190   50.2910    2.1240 C.ar   22  TYR22      -0.0009
     19  CD2      -13.8440   48.9010    3.6000 C.ar   22  TYR22      -0.0009
     20  CE1      -15.0450   51.3480    3.0490 C.ar   22  TYR22       0.0417
     21  CE2      -13.7520   49.9310    4.5140 C.ar   22  TYR22       0.0417
     22  CZ       -14.3490   51.1490    4.2450 C.ar   22  TYR22       0.1957
     23  OH       -14.2240   52.1360    5.1970 O.3    22  TYR22      -0.2866
     24  N        -11.5760   47.4440    0.9350 N.am   23  MET23      -0.1979
     25  CA       -10.1400   47.6170    1.1880 C.3    23  MET23       0.1605
     26  C         -9.3380   48.0490   -0.0570 C.2    23  MET23       0.2287
     27  O         -8.4930   48.9320    0.0390 O.2    23  MET23      -0.2864
     28  CB        -9.5310   46.3640    1.8120 C.3    23  MET23       0.0413
     29  CG       -10.0750   46.0310    3.1870 C.3    23  MET23       0.0598
     30  SD        -9.1760   44.6660    3.9520 S.3    23  MET23      -0.1393
     31  CE        -9.7450   43.2650    2.9780 C.3    23  MET23       0.0692
     32  N         -9.6080   51.6830   -0.5300 N.3    26  LEU26      -0.1245
     33  CA        -8.7600   52.4550    0.3560 C.3    26  LEU26       0.1561
     34  C         -7.2790   52.2680    0.0410 C.2    26  LEU26       0.2260
     35  O         -6.4160   52.8370    0.7170 O.2    26  LEU26      -0.2867
     36  CB        -9.0210   52.0050    1.7970 C.3    26  LEU26       0.0270
     37  CG       -10.4540   52.1910    2.2900 C.3    26  LEU26       0.0019
     38  CD1      -10.6860   51.4710    3.6100 C.3    26  LEU26       0.0001
     39  CD2      -10.7360   53.7010    2.4170 C.3    26  LEU26       0.0001
     40  N         -5.5350   49.4220    0.3210 N.3    28  VAL28      -0.1245
     41  CA        -4.8910   48.3720    1.1100 C.3    28  VAL28       0.1561
     42  C         -4.1740   47.3920    0.1750 C.2    28  VAL28       0.2260
     43  O         -4.7530   46.8980   -0.7980 O.2    28  VAL28      -0.2867
     44  CB        -5.9390   47.6220    1.9740 C.3    28  VAL28       0.0252
     45  CG1       -5.2800   46.5570    2.8740 C.3    28  VAL28       0.0019
     46  CG2       -6.7130   48.6180    2.8040 C.3    28  VAL28       0.0019
     47  N         -2.0630   42.4680    2.8420 N.3    32  THR32      -0.1218
     48  CA        -2.9090   42.7870    3.9800 C.3    32  THR32       0.1862
     49  C         -4.3610   42.3820    3.7110 C.2    32  THR32       0.2287
     50  O         -5.0230   41.8200    4.5890 O.2    32  THR32      -0.2866
     51  CB        -2.8400   44.2770    4.3610 C.3    32  THR32       0.1770
     52  OG1       -1.4820   44.7330    4.2900 O.3    32  THR32      -0.2211
     53  CG2       -3.3650   44.4860    5.7690 C.3    32  THR32       0.0375
     54  N         -6.7810   39.8910    6.1820 N.3    36  ALA36      -0.1245
     55  CA        -7.9610   40.4850    6.7960 C.3    36  ALA36       0.1562
     56  C         -9.2790   39.8800    6.2980 C.2    36  ALA36       0.2260
     57  O        -10.1750   39.6200    7.0940 O.2    36  ALA36      -0.2867
     58  CB        -7.9450   41.9990    6.6270 C.3    36  ALA36       0.0290
     59  N        -10.2750   36.5380    8.0710 N.3    39  THR39      -0.1218
     60  CA       -10.6450   36.4330    9.4790 C.3    39  THR39       0.1862
     61  C        -12.1610   36.4610    9.6750 C.2    39  THR39       0.2287
     62  O        -12.9060   36.8580    8.7800 O.2    39  THR39      -0.2866
     63  CB        -9.9920   37.5280   10.3340 C.3    39  THR39       0.1770
     64  OG1      -10.3180   38.8250    9.7980 O.3    39  THR39      -0.2211
     65  CG2       -8.4860   37.3350   10.3530 C.3    39  THR39       0.0375
     66  N        -13.7710   38.2440   12.5460 N.3    41  PRO41      -0.2116
     67  CA       -13.4660   39.0380   13.7350 C.3    41  PRO41       0.1372
     68  C        -14.6310   39.0720   14.7050 C.2    41  PRO41       0.2244
     69  O        -15.7810   38.8360   14.3230 O.2    41  PRO41      -0.2868
     70  CB       -13.1900   40.4390   13.1650 C.3    41  PRO41       0.0268
     71  CG       -13.9340   40.4740   11.8850 C.3    41  PRO41       0.0207
     72  CD       -13.9290   39.0740   11.3380 C.3    41  PRO41       0.0892
     73  N        -16.5030   41.6800   17.4410 N.3    43  THR43      -0.1218
     74  CA       -16.5670   43.0630   17.8790 C.3    43  THR43       0.1862
     75  C        -17.3090   43.1590   19.1970 C.2    43  THR43       0.2287
     76  O        -18.4230   42.6500   19.3380 O.2    43  THR43      -0.2866
     77  CB       -17.2130   43.9690   16.8270 C.3    43  THR43       0.1770
     78  OG1      -16.4430   43.8990   15.6240 O.3    43  THR43      -0.2211
     79  CG2      -17.2460   45.4110   17.3170 C.3    43  THR43       0.0375
     80  N        -12.3370   45.5260   18.2930 N.3    56  THR56      -0.1218
     81  CA       -12.3370   44.4030   17.3760 C.3    56  THR56       0.1862
     82  C        -11.2170   43.4340   17.7560 C.2    56  THR56       0.2287
     83  O        -10.0440   43.8230   17.8720 O.2    56  THR56      -0.2866
     84  CB       -12.1680   44.8510   15.9280 C.3    56  THR56       0.1770
     85  OG1      -13.3900   45.4410   15.4610 O.3    56  THR56      -0.2211
     86  CG2      -11.8100   43.6610   15.0490 C.3    56  THR56       0.0375
     87  N         -9.3540   39.9260   16.5580 N.3    58  SER58      -0.1217
     88  CA        -9.1630   38.9920   15.4580 C.3    58  SER58       0.1889
     89  C         -7.7020   38.5570   15.3500 C.2    58  SER58       0.2288
     90  O         -6.8200   39.1830   15.9450 O.2    58  SER58      -0.2866
     91  CB        -9.6100   39.6330   14.1470 C.3    58  SER58       0.2089
     92  OG        -8.5140   40.2560   13.5050 O.3    58  SER58      -0.2183
     93  N         -5.9880   38.7160   12.6660 N.3    60  PHE60      -0.1227
     94  CA        -5.3340   39.7150   11.8290 C.3    60  PHE60       0.1736
     95  C         -4.8070   40.8810   12.6620 C.2    60  PHE60       0.2595
     96  O         -3.6970   41.3770   12.4440 O.2    60  PHE60      -0.2718
     97  CB        -6.2950   40.2290   10.7620 C.3    60  PHE60       0.0547
     98  CG        -5.8600   41.5180   10.1230 C.ar   60  PHE60      -0.0202
     99  CD1       -4.6220   41.6210    9.5020 C.ar   60  PHE60      -0.0042
    100  CD2       -6.6890   42.6190   10.1290 C.ar   60  PHE60      -0.0042
    101  CE1       -4.2180   42.8130    8.9120 C.ar   60  PHE60      -0.0003
    102  CE2       -6.2950   43.8130    9.5330 C.ar   60  PHE60      -0.0003
    103  CZ        -5.0630   43.9080    8.9250 C.ar   60  PHE60      -0.0000
    104  N         -5.6020   41.3110   13.6300 N.am   61  LYS61      -0.1980
    105  CA        -5.2820   42.5150   14.3700 C.3    61  LYS61       0.1596
    106  C         -6.4080   42.8360   15.3500 C.2    61  LYS61       0.2287
    107  O         -7.5920   42.6810   15.0230 O.2    61  LYS61      -0.2864
    108  CB        -5.0840   43.6610   13.3810 C.3    61  LYS61       0.0298
    109  CG        -4.9010   45.0210   14.0100 C.3    61  LYS61       0.0038
    110  CD        -4.5990   46.0790   12.9510 C.3    61  LYS61       0.0206
    111  CE        -3.4120   45.6720   12.0930 C.3    61  LYS61       0.1093
    112  NZ        -2.6790   46.8530   11.5670 N.3    61  LYS61      -0.1314
    113  N         -8.1200   45.9790   17.5480 N.3    63  THR63      -0.1218
    114  CA        -8.1970   47.4340   17.5980 C.3    63  THR63       0.1862
    115  C         -9.2070   47.8620   18.6520 C.2    63  THR63       0.2287
    116  O        -10.0500   47.0700   19.0870 O.2    63  THR63      -0.2866
    117  CB        -8.6080   48.0200   16.2440 C.3    63  THR63       0.1770
    118  OG1       -9.9630   47.6550   15.9520 O.3    63  THR63      -0.2211
    119  CG2       -7.7040   47.4800   15.1430 C.3    63  THR63       0.0375
    120  N         -6.8960   53.7590   12.0100 N.3    77  THR77      -0.1203
    121  CA        -7.6860   52.6090   11.5550 C.3    77  THR77       0.1994
    122  C         -6.8600   51.3290   11.3950 C.2    77  THR77       0.2618
    123  O         -5.6200   51.3690   11.3580 O.2    77  THR77      -0.2717
    124  CB        -8.3210   52.9050   10.2000 C.3    77  THR77       0.1784
    125  OG1       -7.2780   53.1460    9.2490 O.3    77  THR77      -0.2211
    126  CG2       -9.2090   54.1460   10.2820 C.3    77  THR77       0.0376
    127  N         -7.5560   50.2000   11.2680 N.am   78  ALA78      -0.1965
    128  CA        -6.9020   48.9070   11.0870 C.3    78  ALA78       0.1728
    129  C         -5.8930   48.9530    9.9370 C.2    78  ALA78       0.2616
    130  O         -4.8700   48.2720    9.9810 O.2    78  ALA78      -0.2715
    131  CB        -7.9380   47.8110   10.8470 C.3    78  ALA78       0.0334
    132  N         -6.1740   49.7590    8.9160 N.am   79  ASP79      -0.1971
    133  CA        -5.2530   49.9020    7.7860 C.3    79  ASP79       0.1709
    134  C         -4.3130   51.1220    7.8960 C.2    79  ASP79       0.2293
    135  O         -3.7550   51.5730    6.8950 O.2    79  ASP79      -0.2864
    136  CB        -6.0260   49.9550    6.4650 C.3    79  ASP79       0.1436
    137  CG        -7.1020   51.0380    6.4600 C.2    79  ASP79       0.3671
    138  OD1       -7.8160   51.1770    7.4810 O.co2  79  ASP79      -0.2456
    139  OD2       -7.2300   51.7520    5.4400 O.co2  79  ASP79      -0.2456
    140  N         -4.7060   54.3580    8.5070 N.3    81  ARG81      -0.1245
    141  CA        -5.1170   55.7080    8.1470 C.3    81  ARG81       0.1563
    142  C         -5.3060   56.5500    9.4100 C.2    81  ARG81       0.2260
    143  O         -5.9160   56.1040   10.3850 O.2    81  ARG81      -0.2867
    144  CB        -6.4340   55.6800    7.3770 C.3    81  ARG81       0.0307
    145  CG        -6.3290   55.5090    5.8700 C.3    81  ARG81       0.0489
    146  CD        -7.7430   55.2840    5.2900 C.3    81  ARG81       0.2205
    147  NE        -8.3890   54.1410    5.9360 N.pl3  81  ARG81      -0.0865
    148  CZ        -9.6640   54.0870    6.3240 C.cat  81  ARG81       0.5346
    149  NH1      -10.4940   55.1190    6.1500 N.pl3  81  ARG81       0.1354
    150  NH2      -10.1110   52.9820    6.8990 N.pl3  81  ARG81       0.1354
    151  N        -19.0770   54.2570    8.2730 N.3   107  LEU107     -0.1245
    152  CA       -19.3880   52.9470    8.8230 C.3   107  LEU107      0.1561
    153  C        -20.7140   53.0780    9.5770 C.2   107  LEU107      0.2260
    154  O        -20.7940   53.8020   10.5750 O.2   107  LEU107     -0.2867
    155  CB       -18.2860   52.4970    9.7810 C.3   107  LEU107      0.0270
    156  CG       -16.8480   52.4040    9.2640 C.3   107  LEU107      0.0019
    157  CD1      -16.3300   53.7230    8.7660 C.3   107  LEU107      0.0001
    158  CD2      -15.9260   51.8650   10.3610 C.3   107  LEU107      0.0001
    159  N        -23.7230   51.0490   11.6360 N.3   109  ARG109     -0.1245
    160  CA       -24.1650   49.8070   12.2780 C.3   109  ARG109      0.1563
    161  C        -25.5990   49.9480   12.7100 C.2   109  ARG109      0.2260
    162  O        -25.9530   50.9180   13.3800 O.2   109  ARG109     -0.2867
    163  CB       -23.3070   49.4570   13.4900 C.3   109  ARG109      0.0307
    164  CG       -21.8320   49.4230   13.1950 C.3   109  ARG109      0.0489
    165  CD       -21.0300   49.1430   14.4440 C.3   109  ARG109      0.2205
    166  NE       -19.6670   48.7410   14.1160 N.pl3 109  ARG109     -0.0865
    167  CZ       -18.6710   49.5880   13.8850 C.cat 109  ARG109      0.5346
    168  NH1      -18.8700   50.9050   13.9370 N.pl3 109  ARG109      0.1354
    169  NH2      -17.4660   49.1080   13.6000 N.pl3 109  ARG109      0.1354
    170  N        -23.1210   45.8560    9.8300 N.3   118  LEU118     -0.1245
    171  CA       -22.1810   46.9390    9.5870 C.3   118  LEU118      0.1561
    172  C        -22.0860   47.2220    8.0940 C.2   118  LEU118      0.2260
    173  O        -21.8200   46.3160    7.3030 O.2   118  LEU118     -0.2867
    174  CB       -20.7960   46.5780   10.1300 C.3   118  LEU118      0.0270
    175  CG       -19.6550   47.5080    9.7030 C.3   118  LEU118      0.0019
    176  CD1      -19.8660   48.9170   10.2640 C.3   118  LEU118      0.0001
    177  CD2      -18.2870   46.9490   10.1230 C.3   118  LEU118      0.0001
    178  N        -20.1290   49.5510    5.2750 N.3   120  LEU120     -0.1245
    179  CA       -18.9710   50.4020    5.0660 C.3   120  LEU120      0.1561
    180  C        -18.9940   50.9320    3.6510 C.2   120  LEU120      0.2260
    181  O        -19.0890   50.1630    2.6870 O.2   120  LEU120     -0.2867
    182  CB       -17.6660   49.6380    5.3210 C.3   120  LEU120      0.0270
    183  CG       -17.5040   49.0590    6.7200 C.3   120  LEU120      0.0019
    184  CD1      -17.7160   47.5730    6.6320 C.3   120  LEU120      0.0001
    185  CD2      -16.1310   49.3530    7.2830 C.3   120  LEU120      0.0001
    186  N        -21.3430   43.8070    6.3180 N.3   129  ARG129     -0.1245
    187  CA       -20.8020   42.8070    7.2130 C.3   129  ARG129      0.1563
    188  C        -21.7940   42.4500    8.3050 C.2   129  ARG129      0.2260
    189  O        -22.2690   43.3110    9.0360 O.2   129  ARG129     -0.2867
    190  CB       -19.4420   43.2660    7.7290 C.3   129  ARG129      0.0307
    191  CG       -18.4430   43.0360    6.6120 C.3   129  ARG129      0.0489
    192  CD       -17.0840   43.5470    6.8450 C.3   129  ARG129      0.2205
    193  NE       -16.2890   42.8120    7.8240 N.pl3 129  ARG129     -0.0865
    194  CZ       -15.4880   41.7790    7.5650 C.cat 129  ARG129      0.5346
    195  NH1      -15.4090   41.2290    6.3560 N.pl3 129  ARG129      0.1354
    196  NH2      -14.7880   41.2580    8.5540 N.pl3 129  ARG129      0.1354
    197  N        -23.1910   40.3080   11.6230 N.3   131  TYR131     -0.1241
    198  CA       -22.7380   39.7360   12.8860 C.3   131  TYR131      0.1605
    199  C        -23.9040   39.1410   13.6700 C.2   131  TYR131      0.2264
    200  O        -25.0050   39.7020   13.6650 O.2   131  TYR131     -0.2867
    201  CB       -22.1210   40.8290   13.7610 C.3   131  TYR131      0.0534
    202  CG       -20.8700   41.4740   13.2260 C.ar  131  TYR131     -0.0201
    203  CD1      -20.9330   42.4390   12.2270 C.ar  131  TYR131     -0.0009
    204  CD2      -19.6150   41.1360   13.7350 C.ar  131  TYR131     -0.0009
    205  CE1      -19.7740   43.0470   11.7350 C.ar  131  TYR131      0.0417
    206  CE2      -18.4580   41.7410   13.2510 C.ar  131  TYR131      0.0417
    207  CZ       -18.5420   42.6950   12.2540 C.ar  131  TYR131      0.1957
    208  OH       -17.3890   43.2940   11.7660 O.3   131  TYR131     -0.2866
@<TRIPOS>BOND
     1    43    42    2
     2    12    13    1
     3    32    33    1
     4    26    27    2
     5    26    25    1
     6    34    33    1
     7    34    35    2
     8    13    14    1
     9    13    16    1
    10    42    41    1
    11    40    41    1
    12    15    14    2
    13    33    36    1
    14    14    24   am
    15    24    25    1
    16    41    44    1
    17     1     2    1
    18    25    28    1
    19     3     4    2
    20     3     2    1
    21    16    17    1
    22    36    37    1
    23    28    29    1
    24    44    46    1
    25    44    45    1
    26     2     5    1
    27    18    17   ar
    28    18    20   ar
    29    37    39    1
    30    37    38    1
    31    17    19   ar
    32   181   180    2
    33    47    48    1
    34    31    30    1
    35    20    22   ar
    36    29    30    1
    37     5     6    1
    38    19    21   ar
    39   180   179    1
    40    49    48    1
    41    49    50    2
    42    48    51    1
    43    22    21   ar
    44    22    23    1
    45     6     8   ar
    46     6     7   ar
    47    52    51    1
    48    51    53    1
    49     8    10   ar
    50     7     9   ar
    51   179   178    1
    52   179   182    1
    53   146   145    1
    54   146   147    1
    55   182   183    1
    56   139   137   ar
    57    10    11   ar
    58     9    11   ar
    59   145   144    1
    60   147   148    2
    61   149   148    1
    62    54    55    1
    63    56    55    1
    64    56    57    2
    65   186   187    1
    66   148   150    1
    67   195   194    1
    68   137   136    1
    69   137   138   ar
    70   136   133    1
    71   191   192    1
    72   191   190    1
    73    58    55    1
    74   184   183    1
    75   183   185    1
    76   192   193    1
    77   135   134    2
    78   187   190    1
    79   187   188    1
    80   173   172    2
    81   144   141    1
    82   194   193    2
    83   194   196    1
    84   133   134    1
    85   133   132    1
    86    59    60    1
    87   172   171    1
    88   141   140    1
    89   141   142    1
    90   151   152    1
    91   188   189    2
    92   157   156    1
    93    62    61    2
    94   152   153    1
    95   152   155    1
    96   101   103   ar
    97   101    99   ar
    98   132   129   am
    99   103   102   ar
   100   125   124    1
   101   156   155    1
   102   156   158    1
   103   142   143    2
   104    60    61    1
   105    60    63    1
   106    99    98   ar
   107   102   100   ar
   108   153   154    2
   109   171   170    1
   110   171   174    1
   111   175   177    1
   112   175   174    1
   113   175   176    1
   114    64    63    1
   115   129   130    2
   116   129   128    1
   117    98   100   ar
   118    98    97    1
   119   124   126    1
   120   124   121    1
   121    63    65    1
   122    97    94    1
   123   131   128    1
   124   128   127    1
   125   127   122   am
   126    72    71    1
   127    72    66    1
   128   123   122    2
   129   122   121    1
   130   121   120    1
   131   112   111    1
   132   197   198    1
   133   159   160    1
   134   205   203   ar
   135   205   207   ar
   136   208   207    1
   137    94    95    1
   138    94    93    1
   139    71    70    1
   140   111   110    1
   141   203   202   ar
   142   207   206   ar
   143   160   161    1
   144   160   163    1
   145    96    95    2
   146    66    67    1
   147    95   104   am
   148   161   162    2
   149   198   199    1
   150   198   201    1
   151   110   109    1
   152    70    67    1
   153   164   163    1
   154   164   165    1
   155   202   204   ar
   156   202   201    1
   157   206   204   ar
   158   108   109    1
   159   108   105    1
   160    92    91    1
   161   169   167    1
   162   104   105    1
   163   200   199    2
   164    67    68    1
   165   167   168    1
   166   167   166    2
   167   166   165    1
   168    91    88    1
   169    69    68    2
   170   105   106    1
   171   107   106    2
   172    86    84    1
   173   119   117    1
   174    89    88    1
   175    89    90    2
   176    88    87    1
   177    85    84    1
   178    78    77    1
   179    84    81    1
   180   118   117    1
   181   117   114    1
   182    77    79    1
   183    77    74    1
   184    81    82    1
   185    81    80    1
   186    73    74    1
   187   113   114    1
   188   114   115    1
   189    82    83    2
   190    74    75    1
   191   115   116    2
   192    75    76    2
