@<TRIPOS>MOLECULE
tmp/5hzcA00.pdb
 161 148 0 0 0
SMALL
GASTEIGER

@<TRIPOS>ATOM
      1  N          1.5700   14.2350   15.5160 N.3    20  PHE20      -0.1241
      2  CA         2.7350   14.4330   14.6520 C.3    20  PHE20       0.1605
      3  C          2.3280   14.7600   13.2160 C.2    20  PHE20       0.2264
      4  O          1.7010   13.9510   12.5390 O.2    20  PHE20      -0.2867
      5  CB         3.6370   13.2010   14.7050 C.3    20  PHE20       0.0534
      6  CG         4.1220   12.8770   16.0960 C.ar   20  PHE20      -0.0203
      7  CD1        5.0200   13.7100   16.7420 C.ar   20  PHE20      -0.0042
      8  CD2        3.6750   11.7460   16.7540 C.ar   20  PHE20      -0.0042
      9  CE1        5.4620   13.4150   18.0220 C.ar   20  PHE20      -0.0003
     10  CE2        4.1040   11.4410   18.0210 C.ar   20  PHE20      -0.0003
     11  CZ         5.0000   12.2760   18.6690 C.ar   20  PHE20      -0.0000
     12  N          4.0180   15.1340   10.3270 N.3    22  LEU22      -0.1245
     13  CA         4.5800   14.3830    9.2000 C.3    22  LEU22       0.1561
     14  C          4.8080   12.9180    9.5730 C.2    22  LEU22       0.2260
     15  O          5.7680   12.6010   10.2700 O.2    22  LEU22      -0.2867
     16  CB         5.8920   15.0190    8.7460 C.3    22  LEU22       0.0270
     17  CG         6.5960   14.4850    7.4910 C.3    22  LEU22       0.0019
     18  CD1        5.7410   14.6760    6.2560 C.3    22  LEU22       0.0001
     19  CD2        7.9620   15.1550    7.3070 C.3    22  LEU22       0.0001
     20  N         22.1830   26.0490    9.9990 N.3    58  ILE58      -0.1245
     21  CA        21.5770   24.7390    9.8550 C.3    58  ILE58       0.1561
     22  C         21.2770   24.1520   11.2340 C.2    58  ILE58       0.2260
     23  O         20.1440   23.7480   11.5060 O.2    58  ILE58      -0.2867
     24  CB        22.4830   23.7880    9.0370 C.3    58  ILE58       0.0252
     25  CG1       22.5890   24.2720    7.5840 C.3    58  ILE58       0.0019
     26  CG2       21.9550   22.3650    9.0810 C.3    58  ILE58       0.0019
     27  CD1       23.6430   23.5450    6.7590 C.3    58  ILE58       0.0001
     28  N         18.5290   25.7180   13.0670 N.3    61  GLY61      -0.1210
     29  CA        17.3190   25.1970   12.4550 C.3    61  GLY61       0.1956
     30  C         16.9250   23.9190   13.1820 C.2    61  GLY61       0.2612
     31  O         15.8080   23.7780   13.6830 O.2    61  GLY61      -0.2717
     32  N         17.8780   22.9980   13.2510 N.am   62  CYS62      -0.1970
     33  CA        17.7170   21.7300   13.9480 C.3    62  CYS62       0.1712
     34  C         17.2750   21.9310   15.4030 C.2    62  CYS62       0.2296
     35  O         16.4500   21.1790   15.9350 O.2    62  CYS62      -0.2864
     36  CB        19.0320   20.9490   13.8880 C.3    62  CYS62       0.0983
     37  SG        18.9750   19.2820   14.5460 S.3    62  CYS62      -0.0798
     38  N         13.5300   23.0820   15.5340 N.3    65  ARG65      -0.1231
     39  CA        12.6460   21.9750   15.2060 C.3    65  ARG65       0.1694
     40  C         12.5620   21.0070   16.3770 C.2    65  ARG65       0.2592
     41  O         11.4780   20.5200   16.7010 O.2    65  ARG65      -0.2718
     42  CB        13.1020   21.2340   13.9430 C.3    65  ARG65       0.0321
     43  CG        12.3050   19.9670   13.6760 C.3    65  ARG65       0.0489
     44  CD        10.8310   20.2840   13.4870 C.3    65  ARG65       0.2205
     45  NE        10.0090   19.0850   13.3430 N.pl3  65  ARG65      -0.0865
     46  CZ         8.9430   18.8170   14.0920 C.cat  65  ARG65       0.5346
     47  NH1        8.5570   19.6700   15.0260 N.pl3  65  ARG65       0.1354
     48  NH2        8.2510   17.7060   13.8960 N.pl3  65  ARG65       0.1354
     49  N         13.7010   20.7400   17.0100 N.am   66  SER66      -0.1952
     50  CA        13.7370   19.8370   18.1540 C.3    66  SER66       0.1924
     51  C         12.8390   20.3190   19.2870 C.2    66  SER66       0.2314
     52  O         12.1640   19.5100   19.9190 O.2    66  SER66      -0.2863
     53  CB        15.1580   19.6640   18.6830 C.3    66  SER66       0.2116
     54  OG        15.9710   19.0090   17.7320 O.3    66  SER66      -0.2180
     55  N          9.4580   19.5980   18.4330 N.3    69  ALA69      -0.1245
     56  CA         9.2630   18.1610   18.5240 C.3    69  ALA69       0.1562
     57  C          9.0150   17.7560   19.9680 C.2    69  ALA69       0.2260
     58  O          8.1750   16.8970   20.2340 O.2    69  ALA69      -0.2867
     59  CB        10.4590   17.4080   17.9520 C.3    69  ALA69       0.0290
     60  N          5.4210   18.3780   20.6490 N.3    72  GLU72      -0.1231
     61  CA         4.5570   17.3840   20.0410 C.3    72  GLU72       0.1699
     62  C          4.6540   16.0690   20.7950 C.2    72  GLU72       0.2592
     63  O          3.6400   15.4160   21.0260 O.2    72  GLU72      -0.2718
     64  CB         4.9130   17.2050   18.5670 C.3    72  GLU72       0.0402
     65  CG         4.6960   18.4880   17.7740 C.3    72  GLU72       0.1161
     66  CD         5.3680   18.4770   16.4240 C.2    72  GLU72       0.3649
     67  OE1        5.8670   17.4110   16.0160 O.co2  72  GLU72      -0.2457
     68  OE2        5.4080   19.5450   15.7730 O.co2  72  GLU72      -0.2457
     69  N          5.8680   15.6920   21.1980 N.am   73  ILE73      -0.1980
     70  CA         6.0580   14.4770   21.9870 C.3    73  ILE73       0.1595
     71  C          5.3620   14.6190   23.3360 C.2    73  ILE73       0.2287
     72  O          4.7480   13.6700   23.8340 O.2    73  ILE73      -0.2864
     73  CB         7.5520   14.1700   22.2000 C.3    73  ILE73       0.0276
     74  CG1        8.1960   13.7760   20.8630 C.3    73  ILE73       0.0022
     75  CG2        7.7410   13.0630   23.2510 C.3    73  ILE73       0.0022
     76  CD1        9.7290   13.9450   20.8360 C.3    73  ILE73       0.0001
     77  N         12.9630   11.4960   19.4490 N.3   103  ILE103     -0.1245
     78  CA        13.3240   12.3190   18.3150 C.3   103  ILE103      0.1561
     79  C         14.1860   11.5260   17.3130 C.2   103  ILE103      0.2260
     80  O         13.9420   11.6000   16.1200 O.2   103  ILE103     -0.2867
     81  CB        14.0670   13.5890   18.7590 C.3   103  ILE103      0.0252
     82  CG1       13.0930   14.5700   19.4240 C.3   103  ILE103      0.0019
     83  CG2       14.8030   14.2360   17.5750 C.3   103  ILE103      0.0019
     84  CD1       13.7950   15.7100   20.1830 C.3   103  ILE103      0.0001
     85  N         12.0340    8.9240   15.4360 N.3   106  MET106     -0.1230
     86  CA        11.1760    9.5250   14.4250 C.3   106  MET106      0.1702
     87  C         11.9840   10.1410   13.3050 C.2   106  MET106      0.2592
     88  O         11.5690   10.1060   12.1470 O.2   106  MET106     -0.2718
     89  CB        10.2570   10.5720   15.0520 C.3   106  MET106      0.0401
     90  CG         9.3950    9.9600   16.1330 C.3   106  MET106      0.0596
     91  SD         8.0940   11.0560   16.7240 S.3   106  MET106     -0.1393
     92  CE         6.9580   11.0870   15.3380 C.3   106  MET106      0.0692
     93  N         13.1360   10.6970   13.6560 N.am  107  LEU107     -0.1980
     94  CA        14.0690   11.2240   12.6670 C.3   107  LEU107      0.1596
     95  C         14.3490   10.1790   11.5860 C.2   107  LEU107      0.2287
     96  O         14.4170   10.5020   10.4010 O.2   107  LEU107     -0.2864
     97  CB        15.3680   11.6520   13.3480 C.3   107  LEU107      0.0297
     98  CG        16.4540   12.3630   12.5320 C.3   107  LEU107      0.0022
     99  CD1       16.1210   13.8190   12.3350 C.3   107  LEU107      0.0001
    100  CD2       17.7790   12.2390   13.2720 C.3   107  LEU107      0.0001
    101  N         12.2810   10.0710    8.4650 N.3   110  LEU110     -0.1245
    102  CA        12.5120   11.0720    7.4330 C.3   110  LEU110      0.1561
    103  C         13.8420   10.8710    6.7090 C.2   110  LEU110      0.2260
    104  O         14.2370   11.6980    5.8870 O.2   110  LEU110     -0.2867
    105  CB        12.4850   12.4660    8.0440 C.3   110  LEU110      0.0270
    106  CG        11.3900   12.7420    9.0820 C.3   110  LEU110      0.0019
    107  CD1       11.4280   14.1940    9.5640 C.3   110  LEU110      0.0001
    108  CD2       10.0460   12.4070    8.5040 C.3   110  LEU110      0.0001
    109  N         17.9760   13.4970    4.4290 N.3   116  VAL116     -0.1231
    110  CA        16.8570   13.6490    5.3460 C.3   116  VAL116      0.1692
    111  C         15.8880   14.7510    4.8850 C.2   116  VAL116      0.2592
    112  O         16.3130   15.8060    4.4180 O.2   116  VAL116     -0.2718
    113  CB        17.3680   13.9640    6.7810 C.3   116  VAL116      0.0266
    114  CG1       18.2090   15.2490    6.8070 C.3   116  VAL116      0.0020
    115  CG2       16.2130   14.0660    7.7640 C.3   116  VAL116      0.0020
    116  N         14.5880   14.4850    5.0050 N.am  117  LEU117     -0.1966
    117  CA        13.5570   15.4880    4.7500 C.3   117  LEU117      0.1728
    118  C         13.5780   16.6090    5.7870 C.2   117  LEU117      0.2616
    119  O         13.8060   16.3680    6.9710 O.2   117  LEU117     -0.2715
    120  CB        12.1700   14.8450    4.7540 C.3   117  LEU117      0.0311
    121  CG        11.7960   13.9340    3.5890 C.3   117  LEU117      0.0022
    122  CD1       10.4190   13.3180    3.8380 C.3   117  LEU117      0.0001
    123  CD2       11.8020   14.7120    2.2880 C.3   117  LEU117      0.0001
    124  N         13.3340   17.8340    5.3400 N.am  118  ILE118     -0.1963
    125  CA        13.3270   18.9780    6.2300 C.3   118  ILE118      0.1727
    126  C         12.1430   19.8370    5.8390 C.2   118  ILE118      0.2616
    127  O         11.5080   19.5780    4.8060 O.2   118  ILE118     -0.2715
    128  CB        14.6250   19.7960    6.1490 C.3   118  ILE118      0.0290
    129  CG1       14.7590   20.4490    4.7640 C.3   118  ILE118      0.0022
    130  CG2       15.8350   18.9110    6.4550 C.3   118  ILE118      0.0023
    131  CD1       15.8940   21.4220    4.6780 C.3   118  ILE118      0.0001
    132  N         11.8340   20.8260    6.6770 N.am  119  SER119     -0.1950
    133  CA        10.7640   21.7830    6.4090 C.3   119  SER119      0.1924
    134  C          9.4730   21.0800    6.0030 C.2   119  SER119      0.2314
    135  O          8.9530   21.3120    4.9140 O.2   119  SER119     -0.2863
    136  CB        11.2240   22.7610    5.3270 C.3   119  SER119      0.2116
    137  OG        10.2160   23.6890    4.9700 O.3   119  SER119     -0.2180
    138  N         17.7790   17.4310    2.4820 N.3   125  MET125     -0.1245
    139  CA        19.1690   17.8030    2.6580 C.3   125  MET125      0.1570
    140  C         20.0610   16.5740    2.6180 C.2   125  MET125      0.2261
    141  O         19.8880   15.6110    3.3740 O.2   125  MET125     -0.2867
    142  CB        19.3610   18.5710    3.9730 C.3   125  MET125      0.0387
    143  CG        20.7780   19.1130    4.1500 C.3   125  MET125      0.0595
    144  SD        20.8850   20.3430    5.4850 S.3   125  MET125     -0.1393
    145  CE        19.6560   21.5250    4.9530 C.3   125  MET125      0.0692
    146  N         25.6980   17.5370    4.6500 N.3   130  LEU130     -0.1245
    147  CA        25.7830   17.6670    6.1020 C.3   130  LEU130      0.1561
    148  C         27.1400   17.2310    6.6440 C.2   130  LEU130      0.2260
    149  O         27.6340   17.7860    7.6260 O.2   130  LEU130     -0.2867
    150  CB        24.6730   16.8500    6.7720 C.3   130  LEU130      0.0270
    151  CG        23.3070   17.5330    6.7330 C.3   130  LEU130      0.0019
    152  CD1       22.1990   16.5280    6.9960 C.3   130  LEU130      0.0001
    153  CD2       23.2550   18.6800    7.7620 C.3   130  LEU130      0.0001
    154  N         25.2530   14.7400   12.3810 N.3   141  MET141     -0.1245
    155  CA        24.1670   13.9530   11.8140 C.3   141  MET141      0.1570
    156  C         24.5620   12.5320   11.4250 C.2   141  MET141      0.2261
    157  O         23.7080   11.6330   11.4050 O.2   141  MET141     -0.2867
    158  CB        23.5670   14.6860   10.6180 C.3   141  MET141      0.0387
    159  CG        22.6910   15.8570   11.0290 C.3   141  MET141      0.0595
    160  SD        21.2370   15.3370   11.9980 S.3   141  MET141     -0.1393
    161  CE        20.2310   14.7660   10.6480 C.3   141  MET141      0.0692
@<TRIPOS>BOND
     1   123   121    1
     2   138   139    1
     3   140   139    1
     4   140   141    2
     5   139   142    1
     6   121   122    1
     7   121   120    1
     8   142   143    1
     9   143   144    1
    10   112   111    2
    11   109   110    1
    12   146   147    1
    13   131   129    1
    14   117   120    1
    15   117   116    1
    16   117   118    1
    17   129   128    1
    18   127   126    2
    19   111   116   am
    20   111   110    1
    21   135   134    2
    22   145   144    1
    23   137   136    1
    24   136   133    1
    25   124   118   am
    26   124   125    1
    27   110   113    1
    28   118   119    2
    29   126   125    1
    30   126   132   am
    31   104   103    2
    32   134   133    1
    33   147   148    1
    34   147   150    1
    35   128   125    1
    36   128   130    1
    37    18    17    1
    38   133   132    1
    39   148   149    2
    40   103   102    1
    41   151   150    1
    42   151   152    1
    43   151   153    1
    44    27    25    1
    45   113   114    1
    46   113   115    1
    47    19    17    1
    48   102   105    1
    49   102   101    1
    50    17    16    1
    51    25    24    1
    52   105   106    1
    53   108   106    1
    54    16    13    1
    55    24    26    1
    56    24    21    1
    57   106   107    1
    58    13    14    1
    59    13    12    1
    60    14    15    2
    61    21    20    1
    62    21    22    1
    63    96    95    2
    64   158   159    1
    65   158   155    1
    66   161   160    1
    67   159   160    1
    68    22    23    2
    69   157   156    2
    70   156   155    1
    71    95    94    1
    72   155   154    1
    73    88    87    2
    74    99    98    1
    75    29    28    1
    76    29    30    1
    77    98   100    1
    78    98    97    1
    79     4     3    2
    80    94    97    1
    81    94    93    1
    82    30    32   am
    83    30    31    2
    84     3     2    1
    85    32    33    1
    86    87    93   am
    87    87    86    1
    88    45    44    1
    89    45    46    2
    90    44    43    1
    91    43    42    1
    92    36    33    1
    93    36    37    1
    94    48    46    1
    95    42    39    1
    96    33    34    1
    97    46    47    1
    98    86    89    1
    99    86    85    1
   100     2     5    1
   101     2     1    1
   102     5     6    1
   103    89    90    1
   104    39    38    1
   105    39    40    1
   106    92    91    1
   107    34    35    2
   108    68    66   ar
   109    67    66   ar
   110     6     7   ar
   111     6     8   ar
   112    80    79    2
   113    90    91    1
   114    40    41    2
   115    40    49   am
   116    66    65    1
   117     7     9   ar
   118     8    10   ar
   119    49    50    1
   120    79    78    1
   121    83    81    1
   122    54    53    1
   123    65    64    1
   124    59    56    1
   125    10    11   ar
   126     9    11   ar
   127    50    53    1
   128    50    51    1
   129    78    81    1
   130    78    77    1
   131    55    56    1
   132    56    57    1
   133    64    61    1
   134    81    82    1
   135    51    52    2
   136    82    84    1
   137    57    58    2
   138    61    60    1
   139    61    62    1
   140    62    63    2
   141    62    69   am
   142    76    74    1
   143    74    73    1
   144    69    70    1
   145    70    73    1
   146    70    71    1
   147    73    75    1
   148    71    72    2
