@<TRIPOS>MOLECULE
tmp/5hzeA00.pdb
 156 144 0 0 0
SMALL
GASTEIGER

@<TRIPOS>ATOM
      1  N        -19.5960   22.8040    2.6320 N.3    32  LEU32      -0.1231
      2  CA       -19.6810   22.7200    1.1760 C.3    32  LEU32       0.1693
      3  C        -18.3720   23.0520    0.5000 C.2    32  LEU32       0.2592
      4  O        -17.7420   24.0230    0.8690 O.2    32  LEU32      -0.2718
      5  CB       -20.6480   23.7520    0.6400 C.3    32  LEU32       0.0284
      6  CG       -21.7810   24.3200    1.4480 C.3    32  LEU32       0.0019
      7  CD1      -21.8140   25.8050    1.1980 C.3    32  LEU32       0.0001
      8  CD2      -23.0880   23.6650    1.0050 C.3    32  LEU32       0.0001
      9  N        -18.0130   22.3300   -0.5580 N.am   33  GLY33      -0.1957
     10  CA       -16.8430   22.6550   -1.3690 C.3    33  GLY33       0.1869
     11  C        -15.6470   22.9760   -0.4980 C.2    33  GLY33       0.2309
     12  O        -14.7990   23.7730   -0.8750 O.2    33  GLY33      -0.2863
     13  N         -9.2460   24.0710   -0.4100 N.3    36  ASN36      -0.1240
     14  CA        -8.7640   25.3730   -0.8420 C.3    36  ASN36       0.1653
     15  C         -8.2250   26.1330    0.3690 C.2    36  ASN36       0.2266
     16  O         -7.8110   25.5300    1.3590 O.2    36  ASN36      -0.2867
     17  CB        -9.9260   26.1320   -1.4940 C.3    36  ASN36       0.1155
     18  CG        -9.4980   27.4020   -2.1780 C.2    36  ASN36       0.2627
     19  OD1       -8.8860   27.3770   -3.2380 O.2    36  ASN36      -0.2716
     20  ND2       -9.8220   28.5290   -1.5660 N.am   36  ASN36      -0.0877
     21  N        -15.7050   26.0350    3.6070 N.3    40  VAL40      -0.1245
     22  CA       -16.9190   26.7510    3.3230 C.3    40  VAL40       0.1561
     23  C        -18.1040   26.0470    3.9080 C.2    40  VAL40       0.2260
     24  O        -18.2340   24.8630    3.7820 O.2    40  VAL40      -0.2867
     25  CB       -17.1060   26.9480    1.8140 C.3    40  VAL40       0.0252
     26  CG1      -18.3750   27.7480    1.5290 C.3    40  VAL40       0.0019
     27  CG2      -15.8660   27.6300    1.2080 C.3    40  VAL40       0.0019
     28  N        -23.6400   31.1920    2.1300 N.3    53  ALA53      -0.1245
     29  CA       -22.4310   30.4040    2.1150 C.3    53  ALA53       0.1562
     30  C        -21.3920   31.2380    2.7520 C.2    53  ALA53       0.2260
     31  O        -21.2300   32.3840    2.3790 O.2    53  ALA53      -0.2867
     32  CB       -22.0250   30.0970    0.6860 C.3    53  ALA53       0.0290
     33  N        -17.3960   31.4940    3.7240 N.3    55  LYS55      -0.1245
     34  CA       -16.0100   31.1010    3.6250 C.3    55  LYS55       0.1561
     35  C        -15.2060   31.6290    4.8180 C.2    55  LYS55       0.2260
     36  O        -15.2620   32.8070    5.1640 O.2    55  LYS55      -0.2867
     37  CB       -15.4130   31.6440    2.3240 C.3    55  LYS55       0.0271
     38  CG       -14.1180   30.9780    1.8830 C.3    55  LYS55       0.0035
     39  CD       -13.3680   31.8250    0.8610 C.3    55  LYS55       0.0206
     40  CE       -12.6120   30.9650   -0.1310 C.3    55  LYS55       0.1093
     41  NZ       -11.2630   30.5620    0.3340 N.3    55  LYS55      -0.1314
     42  N        -21.6840   36.1340   -8.1080 N.3    85  VAL85      -0.1245
     43  CA       -22.3010   35.6800   -6.8450 C.3    85  VAL85       0.1561
     44  C        -22.6070   36.8710   -5.9320 C.2    85  VAL85       0.2260
     45  O        -21.7410   37.6850   -5.6950 O.2    85  VAL85      -0.2867
     46  CB       -21.3820   34.6920   -6.0870 C.3    85  VAL85       0.0252
     47  CG1      -22.1460   33.9950   -5.0050 C.3    85  VAL85       0.0019
     48  CG2      -20.8870   33.6060   -7.0150 C.3    85  VAL85       0.0019
     49  N        -16.3500   35.5440    4.7690 N.3    99  ILE99      -0.1245
     50  CA       -16.8840   36.1540    3.5590 C.3    99  ILE99       0.1561
     51  C        -18.1680   35.4440    3.2700 C.2    99  ILE99       0.2260
     52  O        -18.2010   34.2320    3.1330 O.2    99  ILE99      -0.2867
     53  CB       -15.8990   36.0080    2.4030 C.3    99  ILE99       0.0252
     54  CG1      -14.7010   36.9200    2.6510 C.3    99  ILE99       0.0019
     55  CG2      -16.5410   36.3780    1.0690 C.3    99  ILE99       0.0019
     56  CD1      -13.4370   36.3850    2.0310 C.3    99  ILE99       0.0001
     57  N        -21.8240   34.9840    1.2550 N.3   101  MET101     -0.1230
     58  CA       -22.2430   35.0440   -0.1040 C.3   101  MET101      0.1702
     59  C        -23.5580   34.3340   -0.2480 C.2   101  MET101      0.2592
     60  O        -23.9860   33.5820    0.6220 O.2   101  MET101     -0.2718
     61  CB       -21.2270   34.3390   -0.9920 C.3   101  MET101      0.0401
     62  CG       -19.7620   34.7250   -0.7960 C.3   101  MET101      0.0596
     63  SD       -19.3620   36.1170   -1.7900 S.3   101  MET101     -0.1393
     64  CE       -17.6850   35.7920   -2.2580 C.3   101  MET101      0.0692
     65  N        -24.1820   34.6020   -1.3740 N.am  102  GLU102     -0.1966
     66  CA       -25.3450   33.8870   -1.8240 C.3   102  GLU102      0.1733
     67  C        -25.0320   32.4130   -1.9630 C.2   102  GLU102      0.2616
     68  O        -23.9750   32.0280   -2.4500 O.2   102  GLU102     -0.2715
     69  CB       -25.7420   34.4550   -3.1710 C.3   102  GLU102      0.0429
     70  CG       -26.8910   33.7960   -3.8760 C.3   102  GLU102      0.1163
     71  CD       -27.0280   34.3490   -5.2930 C.2   102  GLU102      0.3649
     72  OE1      -26.1130   35.0600   -5.7520 O.co2 102  GLU102     -0.2457
     73  OE2      -28.0500   34.0810   -5.9460 O.co2 102  GLU102     -0.2457
     74  N        -25.9780   31.6020   -1.5370 N.am  103  HIS103     -0.1959
     75  CA       -25.8320   30.1820   -1.5240 C.3   103  HIS103      0.1787
     76  C        -26.3310   29.7100   -2.8520 C.2   103  HIS103      0.2620
     77  O        -27.4960   29.9210   -3.1500 O.2   103  HIS103     -0.2715
     78  CB       -26.6580   29.5700   -0.4190 C.3   103  HIS103      0.0785
     79  CG       -26.7230   28.0960   -0.5010 C.ar  103  HIS103      0.0821
     80  ND1      -27.8480   27.4320   -0.9370 N.ar  103  HIS103     -0.2267
     81  CD2      -25.7720   27.1590   -0.3100 C.ar  103  HIS103      0.1154
     82  CE1      -27.5960   26.1390   -0.9790 C.ar  103  HIS103      0.1986
     83  NE2      -26.3430   25.9440   -0.5980 N.ar  103  HIS103     -0.2212
     84  N        -25.4360   29.1220   -3.6560 N.am  104  MET104     -0.1963
     85  CA       -25.7750   28.6280   -5.0110 C.3   104  MET104      0.1736
     86  C        -25.9800   27.1090   -4.9100 C.2   104  MET104      0.2616
     87  O        -25.0450   26.3530   -4.6610 O.2   104  MET104     -0.2715
     88  CB       -24.6390   28.9380   -5.9670 C.3   104  MET104      0.0427
     89  CG       -24.3330   30.4170   -6.1800 C.3   104  MET104      0.0599
     90  SD       -25.6280   31.2860   -7.0980 S.3   104  MET104     -0.1393
     91  CE       -25.4510   30.6410   -8.7760 C.3   104  MET104      0.0692
     92  N        -27.2200   26.6670   -5.0650 N.am  105  ASP105     -0.1971
     93  CA       -27.6210   25.3350   -4.5740 C.3   105  ASP105      0.1709
     94  C        -27.0460   24.2200   -5.4590 C.2   105  ASP105      0.2293
     95  O        -26.9580   23.0390   -5.0610 O.2   105  ASP105     -0.2864
     96  CB       -29.1590   25.2730   -4.4480 C.3   105  ASP105      0.1436
     97  CG       -29.8440   25.3920   -5.7750 C.2   105  ASP105      0.3671
     98  OD1      -29.1190   25.6690   -6.7670 O.co2 105  ASP105     -0.2456
     99  OD2      -31.0850   25.1890   -5.8650 O.co2 105  ASP105     -0.2456
    100  N        -23.8580   24.2730   -6.4040 N.3   107  GLY107     -0.1210
    101  CA       -22.4100   24.2230   -6.1700 C.3   107  GLY107      0.1956
    102  C        -21.5670   24.7130   -7.3630 C.2   107  GLY107      0.2612
    103  O        -22.0220   25.4640   -8.2130 O.2   107  GLY107     -0.2717
    104  N        -20.3130   24.3190   -7.3820 N.am  108  SER108     -0.1952
    105  CA       -19.4130   24.7280   -8.4090 C.3   108  SER108      0.1924
    106  C        -19.2900   23.6700   -9.4930 C.2   108  SER108      0.2314
    107  O        -19.5800   22.5170   -9.2620 O.2   108  SER108     -0.2863
    108  CB       -18.0540   24.9390   -7.8160 C.3   108  SER108      0.2116
    109  OG       -17.5890   23.6810   -7.4590 O.3   108  SER108     -0.2180
    110  N        -16.5630   22.3150  -10.8490 N.3   110  ASP110     -0.1239
    111  CA       -15.6910   21.1270  -10.5820 C.3   110  ASP110      0.1674
    112  C        -16.4900   20.0090   -9.9760 C.2   110  ASP110      0.2266
    113  O        -16.3210   18.8680  -10.4010 O.2   110  ASP110     -0.2867
    114  CB       -14.4250   21.3800   -9.7530 C.3   110  ASP110      0.1410
    115  CG       -14.7180   21.8750   -8.3790 C.2   110  ASP110      0.3668
    116  OD1      -15.6690   22.6650   -8.2710 O.co2 110  ASP110     -0.2456
    117  OD2      -14.0120   21.4830   -7.4080 O.co2 110  ASP110     -0.2456
    118  N        -13.9000   25.4020  -10.3430 N.3   148  SER148     -0.1202
    119  CA       -14.2600   25.5740   -8.9450 C.3   148  SER148      0.2020
    120  C        -14.7310   26.9680   -8.6390 C.2   148  SER148      0.2618
    121  O        -15.4190   27.1490   -7.6460 O.2   148  SER148     -0.2717
    122  CB       -13.0970   25.2300   -8.0460 C.3   148  SER148      0.2103
    123  OG       -12.1070   26.2000   -8.2800 O.3   148  SER148     -0.2182
    124  N        -14.3940   27.9350   -9.4870 N.am  149  ASN149     -0.1974
    125  CA       -14.8710   29.3160   -9.3310 C.3   149  ASN149      0.1688
    126  C        -16.1270   29.7020  -10.1080 C.2   149  ASN149      0.2292
    127  O        -16.5170   30.8670  -10.0910 O.2   149  ASN149     -0.2864
    128  CB       -13.7420   30.3070   -9.6330 C.3   149  ASN149      0.1181
    129  CG       -12.8820   30.6040   -8.4110 C.2   149  ASN149      0.2629
    130  OD1      -13.0900   30.0500   -7.3340 O.2   149  ASN149     -0.2716
    131  ND2      -11.9080   31.4890   -8.5770 N.am  149  ASN149     -0.0877
    132  N        -20.1230   28.9480  -10.1090 N.3   151  LEU151     -0.1245
    133  CA       -21.1710   28.3500   -9.3020 C.3   151  LEU151      0.1561
    134  C        -22.4090   28.3540  -10.1100 C.2   151  LEU151      0.2260
    135  O        -22.5780   29.2400  -10.9300 O.2   151  LEU151     -0.2867
    136  CB       -21.4190   29.1800   -8.0620 C.3   151  LEU151      0.0270
    137  CG       -20.2270   29.4380   -7.1620 C.3   151  LEU151      0.0019
    138  CD1      -20.6570   30.1450   -5.8710 C.3   151  LEU151      0.0001
    139  CD2      -19.4690   28.1980   -6.8150 C.3   151  LEU151      0.0001
    140  N        -17.5750   33.3580   -8.6780 N.3   161  CYS161     -0.1235
    141  CA       -17.3260   33.6180   -7.2750 C.3   161  CYS161      0.1677
    142  C        -15.8740   33.9860   -7.1060 C.2   161  CYS161      0.2270
    143  O        -14.9900   33.1670   -7.3290 O.2   161  CYS161     -0.2867
    144  CB       -17.6070   32.3500   -6.4380 C.3   161  CYS161      0.0956
    145  SG       -17.2270   32.5200   -4.6860 S.3   161  CYS161     -0.0801
    146  N        -13.0710   36.6000   -4.5950 N.3   163  PHE163     -0.1241
    147  CA       -12.7910   37.4380   -3.4110 C.3   163  PHE163      0.1605
    148  C        -11.4130   38.1310   -3.5390 C.2   163  PHE163      0.2264
    149  O        -10.9080   38.7000   -2.5700 O.2   163  PHE163     -0.2867
    150  CB       -12.9210   36.6050   -2.1070 C.3   163  PHE163      0.0534
    151  CG       -12.2000   35.2730   -2.1450 C.ar  163  PHE163     -0.0203
    152  CD1      -12.7140   34.2030   -2.8890 C.ar  163  PHE163     -0.0042
    153  CD2      -11.0070   35.0780   -1.4390 C.ar  163  PHE163     -0.0042
    154  CE1      -12.0480   32.9860   -2.9510 C.ar  163  PHE163     -0.0003
    155  CE2      -10.3440   33.8540   -1.4850 C.ar  163  PHE163     -0.0003
    156  CZ       -10.8660   32.8070   -2.2380 C.ar  163  PHE163     -0.0000
@<TRIPOS>BOND
     1   135   134    2
     2   110   111    1
     3   111   112    1
     4   111   114    1
     5   113   112    2
     6   118   119    1
     7   134   133    1
     8   132   133    1
     9   126   127    2
    10   126   125    1
    11   114   115    1
    12   128   125    1
    13   128   129    1
    14   106   107    2
    15   106   105    1
    16   124   125    1
    17   124   120   am
    18   133   136    1
    19   119   120    1
    20   119   122    1
    21    91    90    1
    22   140   141    1
    23   120   121    2
    24   131   129   am
    25   129   130    2
    26   105   108    1
    27   105   104    1
    28   115   116   ar
    29   115   117   ar
    30   123   122    1
    31   103   102    2
    32    42    43    1
    33   136   137    1
    34   108   109    1
    35   104   102   am
    36   102   101    1
    37   143   142    2
    38   141   142    1
    39   141   144    1
    40   137   139    1
    41   137   138    1
    42    90    89    1
    43    48    46    1
    44    43    46    1
    45    43    44    1
    46    98    97   ar
    47   144   145    1
    48   100   101    1
    49    89    88    1
    50    46    47    1
    51    88    85    1
    52    73    71   ar
    53    44    45    2
    54    99    97   ar
    55    97    96    1
    56    72    71   ar
    57    94    95    2
    58    94    93    1
    59    71    70    1
    60    92    86   am
    61    92    93    1
    62    85    86    1
    63    85    84    1
    64    86    87    2
    65   146   147    1
    66    93    96    1
    67    70    69    1
    68    84    76   am
    69   148   147    1
    70   148   149    2
    71   147   150    1
    72    19    18    2
    73    69    66    1
    74    77    76    2
    75   154   152   ar
    76   154   156   ar
    77   152   151   ar
    78    76    75    1
    79    68    67    2
    80    64    63    1
    81   156   155   ar
    82    18    20   am
    83    18    17    1
    84   151   150    1
    85   151   153   ar
    86    67    66    1
    87    67    74   am
    88    66    65    1
    89    63    62    1
    90    74    75    1
    91    75    78    1
    92    17    14    1
    93   155   153   ar
    94    65    59   am
    95    10     9    1
    96    10    11    1
    97    61    62    1
    98    61    58    1
    99    82    80   ar
   100    82    83   ar
   101    80    79   ar
   102    12    11    2
   103    14    13    1
   104    14    15    1
   105    83    81   ar
   106     9     3   am
   107    79    78    1
   108    79    81   ar
   109    59    58    1
   110    59    60    2
   111    40    41    1
   112    40    39    1
   113    58    57    1
   114    15    16    2
   115     3     4    2
   116     3     2    1
   117     5     2    1
   118     5     6    1
   119    32    29    1
   120    39    38    1
   121     8     6    1
   122    55    53    1
   123     2     1    1
   124     7     6    1
   125    27    25    1
   126    26    25    1
   127    25    22    1
   128    38    37    1
   129    56    54    1
   130    29    28    1
   131    29    30    1
   132    37    34    1
   133    31    30    2
   134    53    54    1
   135    53    50    1
   136    52    51    2
   137    51    50    1
   138    22    21    1
   139    22    23    1
   140    50    49    1
   141    34    33    1
   142    34    35    1
   143    24    23    2
   144    35    36    2
