@<TRIPOS>MOLECULE
tmp/5hzgA00.pdb
 100 98 0 0 0
SMALL
GASTEIGER

@<TRIPOS>ATOM
      1  N        -62.5320   28.0530  -34.5710 N.3    24  PHE24      -0.1227
      2  CA       -62.9690   26.6970  -34.2230 C.3    24  PHE24       0.1736
      3  C        -61.7900   25.7690  -34.0870 C.2    24  PHE24       0.2596
      4  O        -61.4330   25.4320  -32.9570 O.2    24  PHE24      -0.2718
      5  CB       -64.0660   26.1690  -35.1610 C.3    24  PHE24       0.0547
      6  CG       -65.4760   26.2810  -34.5970 C.ar   24  PHE24      -0.0202
      7  CD1      -65.7810   27.0500  -33.4690 C.ar   24  PHE24      -0.0042
      8  CD2      -66.5140   25.6340  -35.2280 C.ar   24  PHE24      -0.0042
      9  CE1      -67.0780   27.1350  -32.9890 C.ar   24  PHE24      -0.0003
     10  CE2      -67.8120   25.7230  -34.7520 C.ar   24  PHE24      -0.0003
     11  CZ       -68.0960   26.4690  -33.6300 C.ar   24  PHE24      -0.0000
     12  N        -61.1610   25.3890  -35.1900 N.am   25  GLY25      -0.1957
     13  CA       -60.0480   24.4150  -35.1490 C.3    25  GLY25       0.1869
     14  C        -59.0450   24.5180  -33.9920 C.2    25  GLY25       0.2309
     15  O        -58.5950   23.5080  -33.4360 O.2    25  GLY25      -0.2863
     16  N        -62.1770   35.6060  -34.2330 N.3    92  HIS92      -0.1226
     17  CA       -61.7470   34.9300  -35.4550 C.3    92  HIS92       0.1752
     18  C        -62.3190   33.5640  -35.2750 C.2    92  HIS92       0.2597
     19  O        -62.3120   33.1320  -34.1290 O.2    92  HIS92      -0.2718
     20  CB       -60.2040   34.8350  -35.4470 C.3    92  HIS92       0.0759
     21  CG       -59.6330   33.5810  -36.0570 C.ar   92  HIS92       0.0818
     22  ND1      -59.3390   33.4650  -37.4000 N.ar   92  HIS92      -0.2268
     23  CD2      -59.2420   32.4150  -35.4910 C.ar   92  HIS92       0.1154
     24  CE1      -58.8350   32.2670  -37.6400 C.ar   92  HIS92       0.1986
     25  NE2      -58.7640   31.6100  -36.4990 N.ar   92  HIS92      -0.2212
     26  N        -62.8570   32.8660  -36.2830 N.am   93  SER93      -0.1938
     27  CA       -63.5510   33.3560  -37.4760 C.3    93  SER93       0.2055
     28  C        -65.0460   33.0050  -37.3550 C.2    93  SER93       0.2642
     29  O        -65.9110   33.8030  -37.7180 O.2    93  SER93      -0.2714
     30  CB       -63.0300   32.6590  -38.7250 C.3    93  SER93       0.2130
     31  OG       -63.3770   31.2690  -38.7080 O.3    93  SER93      -0.2179
     32  N        -65.3500   31.7930  -36.8930 N.am   94  VAL94      -0.1977
     33  CA       -66.6830   31.4970  -36.4090 C.3    94  VAL94       0.1596
     34  C        -66.9150   32.3640  -35.1910 C.2    94  VAL94       0.2287
     35  O        -68.0420   32.7660  -34.9480 O.2    94  VAL94      -0.2864
     36  CB       -66.8690   30.0240  -35.9820 C.3    94  VAL94       0.0276
     37  CG1      -65.9620   29.6500  -34.8040 C.3    94  VAL94       0.0022
     38  CG2      -68.3080   29.7500  -35.5970 C.3    94  VAL94       0.0022
     39  N        -70.0900   30.6130  -45.3920 N.3   122  PHE122     -0.1241
     40  CA       -68.9450   30.0600  -46.1110 C.3   122  PHE122      0.1605
     41  C        -69.3570   29.2290  -47.3230 C.2   122  PHE122      0.2264
     42  O        -68.4820   28.7690  -48.0730 O.2   122  PHE122     -0.2867
     43  CB       -68.0590   29.2210  -45.1700 C.3   122  PHE122      0.0534
     44  CG       -67.5010   29.9830  -43.9730 C.ar  122  PHE122     -0.0203
     45  CD1      -66.7240   31.1280  -44.1420 C.ar  122  PHE122     -0.0042
     46  CD2      -67.7320   29.5220  -42.6750 C.ar  122  PHE122     -0.0042
     47  CE1      -66.2120   31.8030  -43.0460 C.ar  122  PHE122     -0.0003
     48  CE2      -67.2230   30.1910  -41.5780 C.ar  122  PHE122     -0.0003
     49  CZ       -66.4580   31.3330  -41.7640 C.ar  122  PHE122     -0.0000
     50  N        -58.3400   26.7020  -44.8130 N.3   171  PHE171     -0.1241
     51  CA       -59.5140   26.8810  -43.9480 C.3   171  PHE171      0.1605
     52  C        -59.7920   25.6200  -43.1210 C.2   171  PHE171      0.2264
     53  O        -59.7280   25.6460  -41.8950 O.2   171  PHE171     -0.2867
     54  CB       -60.7280   27.2440  -44.8080 C.3   171  PHE171      0.0534
     55  CG       -61.9640   27.5780  -44.0220 C.ar  171  PHE171     -0.0203
     56  CD1      -62.1750   28.8660  -43.5540 C.ar  171  PHE171     -0.0042
     57  CD2      -62.9290   26.6150  -43.7800 C.ar  171  PHE171     -0.0042
     58  CE1      -63.3140   29.1790  -42.8440 C.ar  171  PHE171     -0.0003
     59  CE2      -64.0720   26.9270  -43.0750 C.ar  171  PHE171     -0.0003
     60  CZ       -64.2640   28.2090  -42.6020 C.ar  171  PHE171     -0.0000
     61  N        -57.2970   23.2610  -39.9500 N.3   174  THR174     -0.1203
     62  CA       -57.4040   23.3230  -38.5080 C.3   174  THR174      0.1994
     63  C        -58.6130   22.5410  -37.9460 C.2   174  THR174      0.2617
     64  O        -58.5400   22.0790  -36.8080 O.2   174  THR174     -0.2717
     65  CB       -57.3490   24.8080  -38.0220 C.3   174  THR174      0.1784
     66  OG1      -57.1700   24.8490  -36.6020 O.3   174  THR174     -0.2211
     67  CG2      -58.6030   25.6130  -38.4090 C.3   174  THR174      0.0376
     68  N        -59.6850   22.3750  -38.7410 N.am  175  LEU175     -0.1979
     69  CA       -60.9490   21.6930  -38.3060 C.3   175  LEU175      0.1596
     70  C        -60.7570   20.2700  -37.7850 C.2   175  LEU175      0.2287
     71  O        -61.4350   19.8340  -36.8400 O.2   175  LEU175     -0.2864
     72  CB       -61.9630   21.6000  -39.4580 C.3   175  LEU175      0.0297
     73  CG       -62.7500   22.8380  -39.8610 C.3   175  LEU175      0.0022
     74  CD1      -63.4960   22.6030  -41.1710 C.3   175  LEU175      0.0001
     75  CD2      -63.7050   23.2140  -38.7380 C.3   175  LEU175      0.0001
     76  N        -70.8470   25.0830  -38.9520 N.3   190  VAL190     -0.1245
     77  CA       -70.0880   26.1530  -39.6200 C.3   190  VAL190      0.1561
     78  C        -70.7040   26.4840  -40.9790 C.2   190  VAL190      0.2260
     79  O        -71.0010   27.6500  -41.2820 O.2   190  VAL190     -0.2867
     80  CB       -68.5750   25.7670  -39.7830 C.3   190  VAL190      0.0252
     81  CG1      -67.8610   26.6210  -40.8250 C.3   190  VAL190      0.0019
     82  CG2      -67.8380   25.8660  -38.4490 C.3   190  VAL190      0.0019
     83  N        -55.0130   31.1630  -42.6220 N.3   238  HIS238     -0.1226
     84  CA       -56.1670   31.0850  -41.7460 C.3   238  HIS238      0.1752
     85  C        -55.8400   31.7530  -40.4240 C.2   238  HIS238      0.2595
     86  O        -56.6780   32.4370  -39.8810 O.2   238  HIS238     -0.2718
     87  CB       -56.6060   29.6360  -41.5270 C.3   238  HIS238      0.0759
     88  CG       -57.9550   29.4800  -40.8840 C.ar  238  HIS238      0.0818
     89  ND1      -58.9360   30.4480  -40.9150 N.ar  238  HIS238     -0.2268
     90  CD2      -58.4980   28.4230  -40.2350 C.ar  238  HIS238      0.1154
     91  CE1      -60.0120   30.0010  -40.2890 C.ar  238  HIS238      0.1986
     92  NE2      -59.7740   28.7740  -39.8640 N.ar  238  HIS238     -0.2212
     93  N        -54.6230   31.5640  -39.9190 N.am  239  LEU239     -0.1980
     94  CA       -54.2420   32.0520  -38.5920 C.3   239  LEU239      0.1596
     95  C        -53.1580   33.1250  -38.7070 C.2   239  LEU239      0.2287
     96  O        -51.9700   32.8550  -38.5000 O.2   239  LEU239     -0.2864
     97  CB       -53.7830   30.8850  -37.6970 C.3   239  LEU239      0.0297
     98  CG       -54.8110   29.9870  -36.9850 C.3   239  LEU239      0.0022
     99  CD1      -56.1250   29.8950  -37.7400 C.3   239  LEU239      0.0001
    100  CD2      -54.2620   28.5900  -36.7120 C.3   239  LEU239      0.0001
@<TRIPOS>BOND
     1    42    41    2
     2    41    40    1
     3    40    39    1
     4    40    43    1
     5    43    44    1
     6    50    51    1
     7    54    55    1
     8    54    51    1
     9    45    44   ar
    10    45    47   ar
    11    55    57   ar
    12    55    56   ar
    13    44    46   ar
    14    51    52    1
    15    57    59   ar
    16    56    58   ar
    17    52    53    2
    18    59    60   ar
    19    47    49   ar
    20    58    60   ar
    21    46    48   ar
    22    83    84    1
    23    49    48   ar
    24    84    87    1
    25    84    85    1
    26    87    88    1
    27    79    78    2
    28    74    73    1
    29    78    77    1
    30    89    88   ar
    31    89    91   ar
    32    88    90   ar
    33    81    80    1
    34    85    93   am
    35    85    86    2
    36    91    92   ar
    37    90    92   ar
    38    61    62    1
    39    93    94    1
    40    73    72    1
    41    73    75    1
    42    80    77    1
    43    80    82    1
    44    77    76    1
    45    72    69    1
    46    68    69    1
    47    68    63   am
    48    30    31    1
    49    30    27    1
    50    95    94    1
    51    95    96    2
    52    94    97    1
    53    62    65    1
    54    62    63    1
    55    67    65    1
    56    69    70    1
    57    65    66    1
    58    63    64    2
    59    70    71    2
    60    99    98    1
    61    29    28    2
    62    97    98    1
    63    24    22   ar
    64    24    25   ar
    65    27    28    1
    66    27    26    1
    67    22    21   ar
    68    28    32   am
    69    98   100    1
    70    32    33    1
    71    25    23   ar
    72    33    36    1
    73    33    34    1
    74    26    18   am
    75    21    23   ar
    76    21    20    1
    77    36    38    1
    78    36    37    1
    79    17    20    1
    80    17    18    1
    81    17    16    1
    82    18    19    2
    83     8    10   ar
    84     8     6   ar
    85    34    35    2
    86    12    13    1
    87    12     3   am
    88     5     6    1
    89     5     2    1
    90    13    14    1
    91    10    11   ar
    92     6     7   ar
    93     1     2    1
    94     2     3    1
    95     3     4    2
    96    14    15    2
    97    11     9   ar
    98     7     9   ar
