@<TRIPOS>MOLECULE
tmp/5hzhA00.pdb
 169 166 0 0 0
SMALL
GASTEIGER

@<TRIPOS>ATOM
      1  N         15.5000  -18.5930   30.7820 N.3    10  GLY10      -0.1210
      2  CA        16.0630  -19.6660   29.9870 C.3    10  GLY10       0.1956
      3  C         15.0040  -20.3880   29.1780 C.2    10  GLY10       0.2612
      4  O         13.8800  -20.5820   29.6450 O.2    10  GLY10      -0.2717
      5  N         15.3700  -20.7710   27.9570 N.am   11  ALA11      -0.1965
      6  CA        14.5050  -21.5470   27.0710 C.3    11  ALA11       0.1728
      7  C         13.1640  -20.8700   26.7860 C.2    11  ALA11       0.2616
      8  O         12.1240  -21.5270   26.7670 O.2    11  ALA11      -0.2715
      9  CB        14.2750  -22.9410   27.6510 C.3    11  ALA11       0.0334
     10  N         13.1870  -19.5600   26.5590 N.am   12  VAL12      -0.1963
     11  CA        11.9720  -18.8460   26.1820 C.3    12  VAL12       0.1727
     12  C         11.9700  -18.5330   24.6910 C.2    12  VAL12       0.2617
     13  O         10.9400  -18.1640   24.1300 O.2    12  VAL12      -0.2715
     14  CB        11.7960  -17.5320   26.9710 C.3    12  VAL12       0.0290
     15  CG1       11.7250  -17.8130   28.4630 C.3    12  VAL12       0.0023
     16  CG2       12.9190  -16.5610   26.6500 C.3    12  VAL12       0.0023
     17  N         13.1280  -18.6780   24.0540 N.am   13  GLY13      -0.1940
     18  CA        13.2360  -18.4810   22.6200 C.3    13  GLY13       0.2014
     19  C         14.0730  -17.2890   22.1920 C.2    13  GLY13       0.2639
     20  O         13.9670  -16.8390   21.0530 O.2    13  GLY13      -0.2714
     21  N         14.9120  -16.7810   23.0910 N.am   14  LYS14      -0.1963
     22  CA        15.7500  -15.6210   22.7860 C.3    14  LYS14       0.1728
     23  C         16.7250  -15.8930   21.6420 C.2    14  LYS14       0.2617
     24  O         16.8110  -15.1130   20.6960 O.2    14  LYS14      -0.2715
     25  CB        16.5280  -15.1740   24.0270 C.3    14  LYS14       0.0311
     26  CG        15.6570  -14.6580   25.1610 C.3    14  LYS14       0.0038
     27  CD        16.5000  -14.1120   26.3040 C.3    14  LYS14       0.0206
     28  CE        17.5000  -15.1440   26.8000 C.3    14  LYS14       0.1093
     29  NZ        16.8310  -16.3940   27.2510 N.3    14  LYS14      -0.1314
     30  N         17.4610  -16.9960   21.7360 N.am   15  THR15      -0.1937
     31  CA        18.4380  -17.3490   20.7120 C.3    15  THR15       0.2028
     32  C         17.7510  -17.7230   19.4000 C.2    15  THR15       0.2642
     33  O         18.2240  -17.3710   18.3180 O.2    15  THR15      -0.2714
     34  CB        19.3400  -18.5150   21.1710 C.3    15  THR15       0.1808
     35  OG1       20.0090  -18.1560   22.3860 O.3    15  THR15      -0.2208
     36  CG2       20.3790  -18.8460   20.1090 C.3    15  THR15       0.0379
     37  N         16.6260  -18.4250   19.5030 N.am   16  CYS16      -0.1967
     38  CA        15.8890  -18.8770   18.3250 C.3    16  CYS16       0.1712
     39  C         15.3390  -17.7270   17.4900 C.2    16  CYS16       0.2296
     40  O         15.3560  -17.7870   16.2620 O.2    16  CYS16      -0.2864
     41  CB        14.7420  -19.8030   18.7360 C.3    16  CYS16       0.0983
     42  SG        15.2470  -21.4920   19.1220 S.3    16  CYS16      -0.0798
     43  N         16.2750  -22.5250   12.2580 N.3    26  PHE26      -0.1228
     44  CA        15.7170  -22.8370   13.5680 C.3    26  PHE26       0.1721
     45  C         16.4850  -23.9770   14.2280 C.2    26  PHE26       0.2437
     46  O         16.5370  -25.0850   13.6950 O.2    26  PHE26      -0.2733
     47  CB        14.2340  -23.1940   13.4480 C.3    26  PHE26       0.0547
     48  CG        13.5080  -23.2200   14.7620 C.ar   26  PHE26      -0.0202
     49  CD1       13.0420  -22.0480   15.3340 C.ar   26  PHE26      -0.0042
     50  CD2       13.2870  -24.4160   15.4240 C.ar   26  PHE26      -0.0042
     51  CE1       12.3730  -22.0670   16.5450 C.ar   26  PHE26      -0.0003
     52  CE2       12.6170  -24.4420   16.6350 C.ar   26  PHE26      -0.0003
     53  CZ        12.1600  -23.2650   17.1950 C.ar   26  PHE26      -0.0000
     54  N         17.0930  -23.7020   15.3920 N.am   27  PRO27      -0.2729
     55  CA        17.8610  -24.7000   16.1450 C.3    27  PRO27       0.1401
     56  C         17.0090  -25.8960   16.5580 C.2    27  PRO27       0.2269
     57  O         15.8370  -25.7060   16.8830 O.2    27  PRO27      -0.2865
     58  CB        18.3360  -23.9220   17.3770 C.3    27  PRO27       0.0296
     59  CG        18.2940  -22.4900   16.9640 C.3    27  PRO27       0.0237
     60  CD        17.1250  -22.3790   16.0380 C.3    27  PRO27       0.0939
     61  N         18.5340  -27.8440   21.7070 N.3    28  TYR28      -0.1227
     62  CA        18.5550  -26.7190   22.6340 C.3    28  TYR28       0.1736
     63  C         19.9160  -26.5730   23.3060 C.2    28  TYR28       0.2595
     64  O         20.3450  -27.4430   24.0650 O.2    28  TYR28      -0.2718
     65  CB        17.4620  -26.8750   23.6940 C.3    28  TYR28       0.0548
     66  CG        17.5810  -25.8970   24.8420 C.ar   28  TYR28      -0.0200
     67  CD1       17.3210  -24.5450   24.6580 C.ar   28  TYR28      -0.0009
     68  CD2       17.9470  -26.3270   26.1110 C.ar   28  TYR28      -0.0009
     69  CE1       17.4290  -23.6470   25.7060 C.ar   28  TYR28       0.0417
     70  CE2       18.0560  -25.4370   27.1650 C.ar   28  TYR28       0.0417
     71  CZ        17.7960  -24.0990   26.9570 C.ar   28  TYR28       0.1957
     72  OH        17.9030  -23.2110   28.0040 O.3    28  TYR28      -0.2866
     73  N         20.5890  -25.4630   23.0200 N.am   29  ILE29      -0.1966
     74  CA        21.8860  -25.1690   23.6140 C.3    29  ILE29       0.1712
     75  C         21.8350  -23.8510   24.3800 C.2    29  ILE29       0.2458
     76  O         21.7060  -22.7870   23.7750 O.2    29  ILE29      -0.2730
     77  CB        22.9960  -25.0890   22.5460 C.3    29  ILE29       0.0289
     78  CG1       23.0080  -26.3550   21.6860 C.3    29  ILE29       0.0022
     79  CG2       24.3510  -24.8670   23.1990 C.3    29  ILE29       0.0023
     80  CD1       24.0330  -26.3280   20.5720 C.3    29  ILE29       0.0001
     81  N         21.9280  -23.9200   25.7180 N.am   30  PRO30      -0.2716
     82  CA        21.9210  -22.7280   26.5740 C.3    30  PRO30       0.1536
     83  C         23.0370  -21.7540   26.2060 C.2    30  PRO30       0.2599
     84  O         24.2140  -22.0450   26.4200 O.2    30  PRO30      -0.2715
     85  CB        22.1340  -23.3010   27.9780 C.3    30  PRO30       0.0310
     86  CG        21.6520  -24.7050   27.8900 C.3    30  PRO30       0.0237
     87  CD        22.0020  -25.1630   26.5050 C.3    30  PRO30       0.0939
     88  N         22.6580  -20.6080   25.6520 N.am   31  THR31      -0.1951
     89  CA        23.6230  -19.6220   25.1850 C.3    31  THR31       0.1897
     90  C         24.2390  -18.8300   26.3350 C.2    31  THR31       0.2313
     91  O         23.5270  -18.1910   27.1090 O.2    31  THR31      -0.2863
     92  CB        22.9700  -18.6420   24.1860 C.3    31  THR31       0.1794
     93  OG1       22.7140  -19.3210   22.9510 O.3    31  THR31      -0.2208
     94  CG2       23.8820  -17.4540   23.9180 C.3    31  THR31       0.0378
     95  N         21.8680  -12.9350   25.4150 N.3   200  THR200     -0.1203
     96  CA        22.3070  -13.1250   26.7940 C.3   200  THR200      0.1994
     97  C         21.7750  -14.4240   27.3960 C.2   200  THR200      0.2618
     98  O         20.8170  -15.0100   26.8940 O.2   200  THR200     -0.2717
     99  CB        21.8710  -11.9490   27.6890 C.3   200  THR200      0.1784
    100  OG1       20.4410  -11.8560   27.6990 O.3   200  THR200     -0.2211
    101  CG2       22.4580  -10.6410   27.1780 C.3   200  THR200      0.0376
    102  N         22.4050  -14.8650   28.4800 N.am  201  ALA201     -0.1965
    103  CA        21.9910  -16.0840   29.1650 C.3   201  ALA201      0.1728
    104  C         20.8300  -15.8120   30.1150 C.2   201  ALA201      0.2617
    105  O         20.7660  -14.7580   30.7460 O.2   201  ALA201     -0.2715
    106  CB        23.1600  -16.6890   29.9190 C.3   201  ALA201      0.0334
    107  N         19.9150  -16.7710   30.2140 N.am  202  GLY202     -0.1940
    108  CA        18.7500  -16.6250   31.0650 C.3   202  GLY202      0.2014
    109  C         18.8860  -17.3290   32.4010 C.2   202  GLY202      0.2638
    110  O         18.1350  -17.0450   33.3340 O.2   202  GLY202     -0.2714
    111  N         19.8430  -18.2480   32.4930 N.am  203  LEU203     -0.1977
    112  CA        20.0700  -19.0050   33.7220 C.3   203  LEU203      0.1596
    113  C         20.5210  -18.0860   34.8570 C.2   203  LEU203      0.2287
    114  O         21.1550  -17.0590   34.6200 O.2   203  LEU203     -0.2864
    115  CB        21.1050  -20.1100   33.4850 C.3   203  LEU203      0.0297
    116  CG        21.3880  -21.0860   34.6320 C.3   203  LEU203      0.0022
    117  CD1       20.1290  -21.8440   35.0270 C.3   203  LEU203      0.0001
    118  CD2       22.5060  -22.0510   34.2630 C.3   203  LEU203      0.0001
    119  N          7.1300  -14.6510   23.1790 N.3   257  THR257     -0.1203
    120  CA         7.6430  -15.6220   22.2200 C.3   257  THR257      0.1994
    121  C          6.8020  -16.8940   22.2020 C.2   257  THR257      0.2617
    122  O          5.9360  -17.0870   23.0590 O.2   257  THR257     -0.2717
    123  CB         9.1040  -15.9920   22.5270 C.3   257  THR257      0.1784
    124  OG1        9.1940  -16.5250   23.8530 O.3   257  THR257     -0.2211
    125  CG2        9.9950  -14.7660   22.4240 C.3   257  THR257      0.0376
    126  N          7.0680  -17.7510   21.2160 N.am  258  LYS258     -0.1979
    127  CA         6.3670  -19.0240   21.0500 C.3   258  LYS258      0.1596
    128  C          4.8640  -18.8220   20.8710 C.2   258  LYS258      0.2287
    129  O          4.0530  -19.4410   21.5590 O.2   258  LYS258     -0.2864
    130  CB         6.6440  -19.9510   22.2390 C.3   258  LYS258      0.0298
    131  CG         8.1230  -20.2480   22.4460 C.3   258  LYS258      0.0038
    132  CD         8.3570  -21.1790   23.6240 C.3   258  LYS258      0.0206
    133  CE         9.8450  -21.3740   23.8750 C.3   258  LYS258      0.1093
    134  NZ        10.1150  -22.2460   25.0520 N.3   258  LYS258     -0.1314
    135  N          3.1340  -19.6770   18.3120 N.3   260  ASP260     -0.1225
    136  CA         2.5710  -20.8390   17.6310 C.3   260  ASP260      0.1805
    137  C          2.1500  -21.9480   18.5920 C.2   260  ASP260      0.2597
    138  O          1.5180  -22.9210   18.1830 O.2   260  ASP260     -0.2718
    139  CB         3.5800  -21.3930   16.6230 C.3   260  ASP260      0.1424
    140  CG         4.9060  -21.7540   17.2680 C.2   260  ASP260      0.3668
    141  OD1        5.7390  -20.8440   17.4620 O.co2 260  ASP260     -0.2456
    142  OD2        5.1170  -22.9450   17.5820 O.co2 260  ASP260     -0.2456
    143  N          2.5040  -21.8080   19.8650 N.am  261  LEU261     -0.1979
    144  CA         2.2020  -22.8430   20.8480 C.3   261  LEU261      0.1596
    145  C          0.9890  -22.4890   21.7000 C.2   261  LEU261      0.2287
    146  O          0.4780  -23.3280   22.4410 O.2   261  LEU261     -0.2864
    147  CB         3.4140  -23.0960   21.7450 C.3   261  LEU261      0.0297
    148  CG         4.6440  -23.6920   21.0600 C.3   261  LEU261      0.0022
    149  CD1        5.7770  -23.8710   22.0580 C.3   261  LEU261      0.0001
    150  CD2        4.2980  -25.0140   20.3930 C.3   261  LEU261      0.0001
    151  N          6.4990  -15.6120   16.7190 N.3   300  SER300     -0.1202
    152  CA         6.8980  -17.0110   16.6830 C.3   300  SER300      0.2020
    153  C          8.1760  -17.1610   15.8680 C.2   300  SER300      0.2619
    154  O          8.2140  -16.8050   14.6920 O.2   300  SER300     -0.2717
    155  CB         5.7870  -17.8770   16.0920 C.3   300  SER300      0.2103
    156  OG         6.2290  -19.2130   15.9210 O.3   300  SER300     -0.2182
    157  N          9.2230  -17.6840   16.4950 N.am  301  ALA301     -0.1965
    158  CA        10.4930  -17.8730   15.8070 C.3   301  ALA301      0.1728
    159  C         10.3920  -18.9840   14.7660 C.2   301  ALA301      0.2616
    160  O         11.1680  -19.0270   13.8140 O.2   301  ALA301     -0.2715
    161  CB        11.6000  -18.1800   16.8050 C.3   301  ALA301      0.0334
    162  N          9.4260  -19.8780   14.9510 N.am  302  LEU302     -0.1977
    163  CA         9.2670  -21.0280   14.0680 C.3   302  LEU302      0.1596
    164  C          8.5840  -20.6570   12.7520 C.2   302  LEU302      0.2287
    165  O          9.0590  -21.0210   11.6760 O.2   302  LEU302     -0.2864
    166  CB         8.4770  -22.1330   14.7750 C.3   302  LEU302      0.0297
    167  CG         8.3840  -23.4690   14.0350 C.3   302  LEU302      0.0022
    168  CD1        9.7690  -24.0590   13.8200 C.3   302  LEU302      0.0001
    169  CD2        7.4960  -24.4420   14.7940 C.3   302  LEU302      0.0001
@<TRIPOS>BOND
     1   165   164    2
     2    43    44    1
     3   164   163    1
     4    47    44    1
     5    47    48    1
     6    44    45    1
     7    46    45    2
     8   160   159    2
     9   168   167    1
    10   167   166    1
    11   167   169    1
    12   163   166    1
    13   163   162    1
    14    45    54   am
    15   154   153    2
    16    48    49   ar
    17    48    50   ar
    18   159   162   am
    19   159   158    1
    20    49    51   ar
    21    54    60    1
    22    54    55    1
    23    50    52   ar
    24   158   157    1
    25   158   161    1
    26   153   157   am
    27   153   152    1
    28   156   155    1
    29    60    59    1
    30   155   152    1
    31    55    56    1
    32    55    58    1
    33    40    39    2
    34    51    53   ar
    35    56    57    2
    36   139   140    1
    37   139   136    1
    38    52    53   ar
    39   152   151    1
    40    59    58    1
    41   140   141   ar
    42   140   142   ar
    43    39    38    1
    44   136   135    1
    45   136   137    1
    46   138   137    2
    47    33    32    2
    48    38    41    1
    49    38    37    1
    50   137   143   am
    51    41    42    1
    52    32    37   am
    53    32    31    1
    54   143   144    1
    55    36    34    1
    56   150   148    1
    57    80    78    1
    58    24    23    2
    59    31    34    1
    60    31    30    1
    61   144   145    1
    62   144   147    1
    63   128   127    1
    64   128   129    2
    65   127   126    1
    66   127   130    1
    67    20    19    2
    68   148   147    1
    69   148   149    1
    70    34    35    1
    71   126   121   am
    72    23    30   am
    73    23    22    1
    74    78    77    1
    75   145   146    2
    76    61    62    1
    77    19    18    1
    78    19    21   am
    79   121   120    1
    80   121   122    2
    81   120   123    1
    82   120   119    1
    83   130   131    1
    84   125   123    1
    85   131   132    1
    86   123   124    1
    87    77    79    1
    88    77    74    1
    89    18    17    1
    90    62    63    1
    91    62    65    1
    92    22    21    1
    93    22    25    1
    94    93    92    1
    95    73    63   am
    96    73    74    1
    97    63    64    2
    98    74    75    1
    99   132   133    1
   100    65    66    1
   101    76    75    2
   102   133   134    1
   103    94    92    1
   104    25    26    1
   105    17    12   am
   106    13    12    2
   107    92    89    1
   108    75    81   am
   109    67    66   ar
   110    67    69   ar
   111    12    11    1
   112    66    68   ar
   113    26    27    1
   114    89    88    1
   115    89    90    1
   116    95    96    1
   117    88    83   am
   118    69    71   ar
   119    81    87    1
   120    81    82    1
   121    68    70   ar
   122    11    10    1
   123    11    14    1
   124    83    84    2
   125    83    82    1
   126    27    28    1
   127    90    91    2
   128    87    86    1
   129    10     7   am
   130    82    85    1
   131    16    14    1
   132     8     7    2
   133     7     6    1
   134    96    97    1
   135    96    99    1
   136    28    29    1
   137    98    97    2
   138    71    70   ar
   139    71    72    1
   140    14    15    1
   141     6     9    1
   142     6     5    1
   143   101    99    1
   144    97   102   am
   145    99   100    1
   146    86    85    1
   147     5     3   am
   148   102   103    1
   149   103   106    1
   150   103   104    1
   151     3     4    2
   152     3     2    1
   153     2     1    1
   154   104   107   am
   155   104   105    2
   156   107   108    1
   157   108   109    1
   158   109   111   am
   159   109   110    2
   160   111   112    1
   161   115   112    1
   162   115   116    1
   163   112   113    1
   164   118   116    1
   165   114   113    2
   166   116   117    1
