@<TRIPOS>MOLECULE
tmp/5hzhA01.pdb
 183 169 0 0 0
SMALL
GASTEIGER

@<TRIPOS>ATOM
      1  N          3.7110   19.9410    4.8640 N.3    56  VAL56      -0.1245
      2  CA         2.8650   18.9300    4.2420 C.3    56  VAL56       0.1561
      3  C          3.3550   18.6370    2.8280 C.2    56  VAL56       0.2260
      4  O          4.0730   19.4410    2.2300 O.2    56  VAL56      -0.2867
      5  CB         1.3840   19.3680    4.1810 C.3    56  VAL56       0.0252
      6  CG1        0.7730   19.4110    5.5750 C.3    56  VAL56       0.0019
      7  CG2        1.2510   20.7150    3.4830 C.3    56  VAL56       0.0019
      8  N          1.8290   17.3080   -1.0170 N.3    58  THR58      -0.1218
      9  CA         0.6300   17.0600   -1.8100 C.3    58  THR58       0.1862
     10  C          0.9470   16.4070   -3.1540 C.2    58  THR58       0.2287
     11  O          2.1050   16.3340   -3.5630 O.2    58  THR58      -0.2866
     12  CB        -0.1540   18.3620   -2.0680 C.3    58  THR58       0.1770
     13  OG1        0.6900   19.3050   -2.7370 O.3    58  THR58      -0.2211
     14  CG2       -0.6410   18.9630   -0.7620 C.3    58  THR58       0.0375
     15  N         -5.4040   18.5090   -5.9140 N.3    65  ASN65      -0.1240
     16  CA        -4.0860   18.5200   -5.2750 C.3    65  ASN65       0.1653
     17  C         -4.1190   18.1590   -3.7850 C.2    65  ASN65       0.2266
     18  O         -3.8160   18.9970   -2.9350 O.2    65  ASN65      -0.2867
     19  CB        -3.4410   19.8960   -5.4650 C.3    65  ASN65       0.1155
     20  CG        -1.9510   19.8900   -5.1920 C.2    65  ASN65       0.2627
     21  OD1       -1.3270   18.8360   -5.0940 O.2    65  ASN65      -0.2716
     22  ND2       -1.3720   21.0770   -5.0770 N.am   65  ASN65      -0.0877
     23  N         -7.4280   19.0410    0.0590 N.3    89  ASN89      -0.1225
     24  CA        -6.6650   20.2420   -0.2540 C.3    89  ASN89       0.1785
     25  C         -6.4770   21.1040    0.9890 C.2    89  ASN89       0.2597
     26  O         -7.3770   21.2090    1.8180 O.2    89  ASN89      -0.2718
     27  CB        -7.3580   21.0460   -1.3530 C.3    89  ASN89       0.1169
     28  CG        -6.5020   22.1850   -1.8690 C.2    89  ASN89       0.2627
     29  OD1       -6.4480   23.2590   -1.2700 O.2    89  ASN89      -0.2716
     30  ND2       -5.8290   21.9560   -2.9900 N.am   89  ASN89      -0.0877
     31  N         -5.3110   21.7280    1.1090 N.am   90  ALA90      -0.1966
     32  CA        -4.9710   22.4870    2.3080 C.3    90  ALA90       0.1728
     33  C         -5.6020   23.8790    2.3400 C.2    90  ALA90       0.2616
     34  O         -5.0550   24.7940    2.9540 O.2    90  ALA90      -0.2715
     35  CB        -3.4600   22.5990    2.4380 C.3    90  ALA90       0.0334
     36  N         -6.7510   24.0400    1.6930 N.am   91  ARG91      -0.1977
     37  CA        -7.4310   25.3310    1.6880 C.3    91  ARG91       0.1597
     38  C         -8.3490   25.5000    2.8970 C.2    91  ARG91       0.2287
     39  O         -8.9080   26.5760    3.1110 O.2    91  ARG91      -0.2864
     40  CB        -8.2330   25.5150    0.3980 C.3    91  ARG91       0.0334
     41  CG        -9.3050   24.4650    0.1670 C.3    91  ARG91       0.0492
     42  CD       -10.1530   24.8050   -1.0500 C.3    91  ARG91       0.2205
     43  NE        -9.3500   24.9590   -2.2610 N.pl3  91  ARG91      -0.0865
     44  CZ        -9.1090   23.9790   -3.1270 C.cat  91  ARG91       0.5346
     45  NH1       -9.6090   22.7680   -2.9170 N.pl3  91  ARG91       0.1354
     46  NH2       -8.3690   24.2090   -4.2040 N.pl3  91  ARG91       0.1354
     47  N         -7.4300   25.6540    5.8440 N.3    93  LEU93      -0.1231
     48  CA        -6.7210   26.5340    6.7660 C.3    93  LEU93       0.1693
     49  C         -7.1230   27.9940    6.6000 C.2    93  LEU93       0.2591
     50  O         -6.9800   28.7940    7.5210 O.2    93  LEU93      -0.2718
     51  CB        -5.2130   26.3970    6.5670 C.3    93  LEU93       0.0284
     52  CG        -4.6310   25.0290    6.9090 C.3    93  LEU93       0.0019
     53  CD1       -3.1690   24.9660    6.5200 C.3    93  LEU93       0.0001
     54  CD2       -4.8100   24.7520    8.3890 C.3    93  LEU93       0.0001
     55  N         -7.6220   28.3380    5.4200 N.am   94  GLN94      -0.1979
     56  CA        -7.9760   29.7170    5.1150 C.3    94  GLN94       0.1601
     57  C         -9.3100   30.0960    5.7480 C.2    94  GLN94       0.2287
     58  O        -10.1140   29.2280    6.0870 O.2    94  GLN94      -0.2864
     59  CB        -8.0220   29.9230    3.6020 C.3    94  GLN94       0.0394
     60  CG        -6.7440   29.4930    2.8940 C.3    94  GLN94       0.0908
     61  CD        -6.8520   29.5710    1.3850 C.2    94  GLN94       0.2608
     62  OE1       -7.9060   29.9020    0.8440 O.2    94  GLN94      -0.2717
     63  NE2       -5.7590   29.2660    0.6960 N.am   94  GLN94      -0.0878
     64  N         -7.2810   37.0690   -0.0530 N.3   100  ARG100     -0.1245
     65  CA        -7.5300   36.2460   -1.2310 C.3   100  ARG100      0.1563
     66  C         -6.5410   36.5400   -2.3600 C.2   100  ARG100      0.2260
     67  O         -6.2390   35.6630   -3.1680 O.2   100  ARG100     -0.2867
     68  CB        -8.9640   36.4480   -1.7260 C.3   100  ARG100      0.0307
     69  CG       -10.0380   36.1090   -0.6970 C.3   100  ARG100      0.0489
     70  CD        -9.9490   34.6600   -0.2400 C.3   100  ARG100      0.2205
     71  NE        -9.9970   33.7240   -1.3600 N.pl3 100  ARG100     -0.0865
     72  CZ        -9.8650   32.4070   -1.2370 C.cat 100  ARG100      0.5346
     73  NH1       -9.6770   31.8670   -0.0410 N.pl3 100  ARG100      0.1354
     74  NH2       -9.9180   31.6300   -2.3100 N.pl3 100  ARG100      0.1354
     75  N         -3.7350   34.3460   -1.9120 N.3   103  VAL103     -0.1245
     76  CA        -4.1030   32.9820   -2.2750 C.3   103  VAL103      0.1561
     77  C         -3.9840   32.7840   -3.7840 C.2   103  VAL103      0.2260
     78  O         -3.6290   31.7020   -4.2550 O.2   103  VAL103     -0.2867
     79  CB        -5.5390   32.6460   -1.8200 C.3   103  VAL103      0.0252
     80  CG1       -5.8760   31.1940   -2.1270 C.3   103  VAL103      0.0019
     81  CG2       -5.7010   32.9240   -0.3340 C.3   103  VAL103      0.0019
     82  N         -0.5590   31.9890   -4.7500 N.3   106  ILE106     -0.1231
     83  CA        -0.2700   30.5910   -4.4570 C.3   106  ILE106      0.1692
     84  C         -0.8030   29.6910   -5.5670 C.2   106  ILE106      0.2591
     85  O         -0.1230   28.7640   -6.0070 O.2   106  ILE106     -0.2718
     86  CB        -0.8750   30.1590   -3.1070 C.3   106  ILE106      0.0266
     87  CG1       -0.3570   31.0590   -1.9830 C.3   106  ILE106      0.0019
     88  CG2       -0.5500   28.7030   -2.8190 C.3   106  ILE106      0.0020
     89  CD1       -0.8860   30.6960   -0.6140 C.3   106  ILE106      0.0001
     90  N         -2.0210   29.9760   -6.0200 N.am  107  ARG107     -0.1980
     91  CA        -2.6400   29.2190   -7.1030 C.3   107  ARG107      0.1597
     92  C         -1.8170   29.3070   -8.3860 C.2   107  ARG107      0.2287
     93  O         -1.6270   28.3090   -9.0820 O.2   107  ARG107     -0.2864
     94  CB        -4.0620   29.7200   -7.3610 C.3   107  ARG107      0.0334
     95  CG        -4.8640   28.8500   -8.3180 C.3   107  ARG107      0.0492
     96  CD        -6.0910   29.5860   -8.8280 C.3   107  ARG107      0.2205
     97  NE        -6.9080   30.1090   -7.7400 N.pl3 107  ARG107     -0.0865
     98  CZ        -7.9580   30.9040   -7.9130 C.cat 107  ARG107      0.5346
     99  NH1       -8.3200   31.2700   -9.1350 N.pl3 107  ARG107      0.1354
    100  NH2       -8.6460   31.3360   -6.8640 N.pl3 107  ARG107      0.1354
    101  N          1.2440   27.0890   -8.2200 N.3   110  ILE110     -0.1245
    102  CA         0.9650   25.6720   -8.4100 C.3   110  ILE110      0.1561
    103  C          0.6500   25.3780   -9.8740 C.2   110  ILE110      0.2260
    104  O          1.1020   24.3740  -10.4250 O.2   110  ILE110     -0.2867
    105  CB        -0.2070   25.2010   -7.5270 C.3   110  ILE110      0.0252
    106  CG1        0.0470   25.5710   -6.0670 C.3   110  ILE110      0.0019
    107  CG2       -0.4040   23.6990   -7.6580 C.3   110  ILE110      0.0019
    108  CD1       -1.0870   25.2040   -5.1390 C.3   110  ILE110      0.0001
    109  N          0.2980   34.8410    4.9200 N.3   120  LEU120     -0.1245
    110  CA        -1.1580   34.9040    4.9340 C.3   120  LEU120      0.1561
    111  C         -1.7190   34.4040    6.2590 C.2   120  LEU120      0.2260
    112  O         -1.0350   33.7170    7.0160 O.2   120  LEU120     -0.2867
    113  CB        -1.7480   34.0960    3.7710 C.3   120  LEU120      0.0270
    114  CG        -1.7890   32.5670    3.8640 C.3   120  LEU120      0.0019
    115  CD1       -2.7120   32.0080    2.7910 C.3   120  LEU120      0.0001
    116  CD2       -0.4010   31.9520    3.7400 C.3   120  LEU120      0.0001
    117  N         -3.9590   32.0540    8.4140 N.3   122  ASN122     -0.1240
    118  CA        -4.6520   30.7750    8.4450 C.3   122  ASN122      0.1653
    119  C         -5.3660   30.5490    9.7730 C.2   122  ASN122      0.2266
    120  O         -5.1460   31.2760   10.7410 O.2   122  ASN122     -0.2867
    121  CB        -3.6810   29.6240    8.1750 C.3   122  ASN122      0.1155
    122  CG        -3.2660   29.5390    6.7200 C.2   122  ASN122      0.2627
    123  OD1       -2.1500   29.1290    6.4060 O.2   122  ASN122     -0.2716
    124  ND2       -4.1640   29.9300    5.8220 N.am  122  ASN122     -0.0877
    125  N          0.8570   32.9630    8.7320 N.3   132  ASN132     -0.1240
    126  CA         1.5490   31.8360    8.1220 C.3   132  ASN132      0.1653
    127  C          2.5890   32.2860    7.1020 C.2   132  ASN132      0.2266
    128  O          2.2470   32.7070    5.9970 O.2   132  ASN132     -0.2867
    129  CB         0.5400   30.8950    7.4560 C.3   132  ASN132      0.1155
    130  CG         1.1520   29.5650    7.0470 C.2   132  ASN132      0.2627
    131  OD1        2.3710   29.3900    7.0660 O.2   132  ASN132     -0.2716
    132  ND2        0.3010   28.6190    6.6650 N.am  132  ASN132     -0.0877
    133  N          4.4090   31.0660    4.6100 N.3   134  PHE134     -0.1241
    134  CA         4.2740   29.8320    3.8530 C.3   134  PHE134      0.1605
    135  C          5.2190   29.7810    2.6580 C.2   134  PHE134      0.2264
    136  O          5.3590   30.7560    1.9210 O.2   134  PHE134     -0.2867
    137  CB         2.8210   29.6690    3.3990 C.3   134  PHE134      0.0534
    138  CG         2.6130   28.5650    2.4090 C.ar  134  PHE134     -0.0203
    139  CD1        2.7170   27.2410    2.7940 C.ar  134  PHE134     -0.0042
    140  CD2        2.3010   28.8520    1.0930 C.ar  134  PHE134     -0.0042
    141  CE1        2.5240   26.2240    1.8830 C.ar  134  PHE134     -0.0003
    142  CE2        2.1050   27.8390    0.1770 C.ar  134  PHE134     -0.0003
    143  CZ         2.2170   26.5230    0.5730 C.ar  134  PHE134     -0.0000
    144  N          6.2220   27.3540   -0.7710 N.3   136  LEU136     -0.1245
    145  CA         5.8210   26.2590   -1.6440 C.3   136  LEU136      0.1561
    146  C          6.9460   25.8950   -2.6080 C.2   136  LEU136      0.2260
    147  O          7.6050   26.7710   -3.1700 O.2   136  LEU136     -0.2867
    148  CB         4.5490   26.6350   -2.4100 C.3   136  LEU136      0.0270
    149  CG         3.9090   25.5990   -3.3360 C.3   136  LEU136      0.0019
    150  CD1        2.3970   25.6840   -3.2410 C.3   136  LEU136      0.0001
    151  CD2        4.3580   25.8110   -4.7720 C.3   136  LEU136      0.0001
    152  N          4.3960   18.3820   -4.2990 N.3   149  PHE149     -0.1227
    153  CA         4.5790   19.7560   -3.8470 C.3   149  PHE149      0.1736
    154  C          4.8860   19.7820   -2.3560 C.2   149  PHE149      0.2595
    155  O          4.2080   19.1250   -1.5640 O.2   149  PHE149     -0.2718
    156  CB         3.3370   20.6020   -4.1340 C.3   149  PHE149      0.0547
    157  CG         3.3130   21.2050   -5.5090 C.ar  149  PHE149     -0.0202
    158  CD1        4.0240   22.3620   -5.7830 C.ar  149  PHE149     -0.0042
    159  CD2        2.5680   20.6260   -6.5230 C.ar  149  PHE149     -0.0042
    160  CE1        4.0020   22.9240   -7.0460 C.ar  149  PHE149     -0.0003
    161  CE2        2.5420   21.1840   -7.7870 C.ar  149  PHE149     -0.0003
    162  CZ         3.2600   22.3340   -8.0480 C.ar  149  PHE149     -0.0000
    163  N          5.9090   20.5400   -1.9790 N.am  150  ILE150     -0.1966
    164  CA         6.2640   20.6970   -0.5740 C.3   150  ILE150      0.1727
    165  C          5.7600   22.0290   -0.0360 C.2   150  ILE150      0.2616
    166  O          6.0600   23.0850   -0.5930 O.2   150  ILE150     -0.2715
    167  CB         7.7830   20.6160   -0.3580 C.3   150  ILE150      0.0290
    168  CG1        8.3490   19.3470   -0.9960 C.3   150  ILE150      0.0022
    169  CG2        8.1120   20.6720    1.1280 C.3   150  ILE150      0.0023
    170  CD1        9.8570   19.2510   -0.9200 C.3   150  ILE150      0.0001
    171  N          4.9950   21.9760    1.0500 N.am  151  GLY151     -0.1955
    172  CA         4.4810   23.1820    1.6710 C.3   151  GLY151      0.1869
    173  C          4.9710   23.3370    3.0960 C.2   151  GLY151      0.2309
    174  O          4.5560   22.5940    3.9820 O.2   151  GLY151     -0.2863
    175  N          5.2360   25.6020    6.4970 N.3   153  GLN153     -0.1245
    176  CA         4.5760   26.6940    7.2040 C.3   153  GLN153      0.1566
    177  C          5.3700   27.1510    8.4190 C.2   153  GLN153      0.2260
    178  O          5.8470   26.3370    9.2060 O.2   153  GLN153     -0.2867
    179  CB         3.1680   26.2840    7.6430 C.3   153  GLN153      0.0367
    180  CG         2.2400   25.9010    6.5060 C.3   153  GLN153      0.0905
    181  CD         2.2700   24.4180    6.2050 C.2   153  GLN153      0.2608
    182  OE1        3.0600   23.6730    6.7830 O.2   153  GLN153     -0.2717
    183  NE2        1.4020   23.9790    5.3000 N.am  153  GLN153     -0.0878
@<TRIPOS>BOND
     1   104   103    2
     2   103   102    1
     3    99    98    1
     4    93    92    2
     5    96    95    1
     6    96    97    1
     7   102   101    1
     8   102   105    1
     9    92    91    1
    10    95    94    1
    11   162   161   ar
    12   162   160   ar
    13    98    97    2
    14    98   100    1
    15   161   159   ar
    16   107   105    1
    17   105   106    1
    18    94    91    1
    19    91    90    1
    20   160   158   ar
    21   159   157   ar
    22   106   108    1
    23    90    84   am
    24    85    84    2
    25    15    16    1
    26   158   157   ar
    27    84    83    1
    28   157   156    1
    29    19    16    1
    30    19    20    1
    31    16    17    1
    32    20    21    2
    33    20    22   am
    34   151   149    1
    35    82    83    1
    36    83    86    1
    37   152   153    1
    38    78    77    2
    39    46    44    1
    40   156   153    1
    41   153   154    1
    42    17    18    2
    43    77    76    1
    44    11    10    2
    45   149   150    1
    46   149   148    1
    47   147   146    2
    48    67    66    2
    49    10     9    1
    50    44    45    1
    51    44    43    2
    52    86    88    1
    53    86    87    1
    54    30    28   am
    55    13    12    1
    56   146   145    1
    57   148   145    1
    58    66    65    1
    59   154   163   am
    60   154   155    2
    61    74    72    1
    62    76    75    1
    63    76    79    1
    64    43    42    1
    65    80    79    1
    66    12     9    1
    67    12    14    1
    68    87    89    1
    69   163   164    1
    70    28    27    1
    71    28    29    2
    72    79    81    1
    73     9     8    1
    74    68    65    1
    75    68    69    1
    76   145   144    1
    77    71    72    2
    78    71    70    1
    79    27    24    1
    80    72    73    1
    81    65    64    1
    82    42    41    1
    83   168   170    1
    84   168   167    1
    85    69    70    1
    86   166   165    2
    87   164   167    1
    88   164   165    1
    89   167   169    1
    90    24    23    1
    91    24    25    1
    92   165   171   am
    93    41    40    1
    94   142   143   ar
    95   142   140   ar
    96    40    37    1
    97   143   141   ar
    98    63    61   am
    99    62    61    2
   100    25    31   am
   101    25    26    2
   102   171   172    1
   103   140   138   ar
   104    31    32    1
   105    61    60    1
   106   172   173    1
   107    37    36    1
   108    37    38    1
   109    36    33   am
   110   141   139   ar
   111   136   135    2
   112     4     3    2
   113    32    33    1
   114    32    35    1
   115    33    34    2
   116   138   139   ar
   117   138   137    1
   118   135   134    1
   119   115   114    1
   120     3     2    1
   121    60    59    1
   122    38    39    2
   123   173   174    2
   124   137   134    1
   125     7     5    1
   126    59    56    1
   127   116   114    1
   128   113   114    1
   129   113   110    1
   130   134   133    1
   131     5     2    1
   132     5     6    1
   133     2     1    1
   134   109   110    1
   135   110   111    1
   136    56    55    1
   137    56    57    1
   138   183   181   am
   139    55    49   am
   140    57    58    2
   141   124   122   am
   142    47    48    1
   143   128   127    2
   144   181   180    1
   145   181   182    2
   146   111   112    2
   147   123   122    2
   148   175   176    1
   149   180   179    1
   150    53    52    1
   151    51    48    1
   152    51    52    1
   153    49    48    1
   154    49    50    2
   155   132   130   am
   156   122   121    1
   157    52    54    1
   158   130   131    2
   159   130   129    1
   160   127   126    1
   161   176   179    1
   162   176   177    1
   163   129   126    1
   164   126   125    1
   165   121   118    1
   166   117   118    1
   167   177   178    2
   168   118   119    1
   169   119   120    2
