@<TRIPOS>MOLECULE
tmp/5hzjA00.pdb
 173 160 0 0 0
SMALL
GASTEIGER

@<TRIPOS>ATOM
      1  N         18.8380   30.2030   26.4190 N.3    91  VAL91      -0.1245
      2  CA        18.1670   29.2780   25.5180 C.3    91  VAL91       0.1561
      3  C         16.7440   29.0270   25.9980 C.2    91  VAL91       0.2260
      4  O         16.4210   29.2670   27.1610 O.2    91  VAL91      -0.2867
      5  CB        18.9080   27.9300   25.4150 C.3    91  VAL91       0.0252
      6  CG1       20.2740   28.1150   24.7720 C.3    91  VAL91       0.0019
      7  CG2       19.0340   27.2840   26.7880 C.3    91  VAL91       0.0019
      8  N         13.8160   25.9020   25.9680 N.3    93  THR93      -0.1218
      9  CA        13.6120   24.4840   25.6980 C.3    93  THR93       0.1862
     10  C         12.1380   24.1090   25.7700 C.2    93  THR93       0.2287
     11  O         11.3300   24.8380   26.3440 O.2    93  THR93      -0.2866
     12  CB        14.3990   23.6060   26.6840 C.3    93  THR93       0.1770
     13  OG1       13.8950   23.8010   28.0100 O.3    93  THR93      -0.2211
     14  CG2       15.8810   23.9500   26.6450 C.3    93  THR93       0.0375
     15  N         13.5010   17.1540   26.2440 N.3   100  ASN100     -0.1240
     16  CA        13.4920   18.6000   26.4620 C.3   100  ASN100      0.1653
     17  C         14.4360   19.3680   25.5260 C.2   100  ASN100      0.2266
     18  O         15.4260   19.9450   25.9770 O.2   100  ASN100     -0.2867
     19  CB        13.8500   18.8910   27.9240 C.3   100  ASN100      0.1155
     20  CG        13.4440   20.2800   28.3640 C.2   100  ASN100      0.2627
     21  OD1       12.7620   21.0020   27.6400 O.2   100  ASN100     -0.2716
     22  ND2       13.8560   20.6580   29.5660 N.am  100  ASN100     -0.0877
     23  N         19.3780   18.3000   23.8980 N.3   124  ASN124     -0.1225
     24  CA        19.3570   18.6430   25.3170 C.3   124  ASN124      0.1785
     25  C         20.5970   19.4470   25.6940 C.2   124  ASN124      0.2597
     26  O         21.6480   19.2910   25.0800 O.2   124  ASN124     -0.2718
     27  CB        19.2610   17.3720   26.1670 C.3   124  ASN124      0.1169
     28  CG        19.0180   17.6630   27.6370 C.2   124  ASN124      0.2627
     29  OD1       19.9580   17.8820   28.4000 O.2   124  ASN124     -0.2716
     30  ND2       17.7520   17.6550   28.0440 N.am  124  ASN124     -0.0877
     31  N         20.4770   20.2880   26.7180 N.am  125  CYS125     -0.1956
     32  CA        21.5360   21.2330   27.0700 C.3   125  CYS125      0.1843
     33  C         22.7290   20.5960   27.7790 C.2   125  CYS125      0.2625
     34  O         23.6550   21.2980   28.1860 O.2   125  CYS125     -0.2714
     35  CB        20.9720   22.3440   27.9600 C.3   125  CYS125      0.0997
     36  SG        19.5990   23.2760   27.2540 S.3   125  CYS125     -0.0797
     37  N         22.7170   19.2750   27.9220 N.am  126  ARG126     -0.1977
     38  CA        23.7220   18.5990   28.7380 C.3   126  ARG126      0.1597
     39  C         25.0960   18.5140   28.0700 C.2   126  ARG126      0.2287
     40  O         26.0530   18.0460   28.6870 O.2   126  ARG126     -0.2864
     41  CB        23.2460   17.1920   29.1050 C.3   126  ARG126      0.0334
     42  CG        23.1090   16.2490   27.9240 C.3   126  ARG126      0.0492
     43  CD        22.7900   14.8350   28.3850 C.3   126  ARG126      0.2205
     44  NE        21.5640   14.7850   29.1780 N.pl3 126  ARG126     -0.0865
     45  CZ        20.3480   14.6510   28.6590 C.cat 126  ARG126      0.5346
     46  NH1       20.1920   14.5560   27.3460 N.pl3 126  ARG126      0.1354
     47  NH2       19.2850   14.6160   29.4510 N.pl3 126  ARG126      0.1354
     48  N         26.9730   20.8770   27.4850 N.3   128  LEU128     -0.1231
     49  CA        27.8270   21.8620   28.1380 C.3   128  LEU128      0.1693
     50  C         28.6070   21.2430   29.2930 C.2   128  LEU128      0.2591
     51  O         29.7150   21.6750   29.6040 O.2   128  LEU128     -0.2718
     52  CB        26.9940   23.0400   28.6470 C.3   128  LEU128      0.0284
     53  CG        26.3080   23.8950   27.5820 C.3   128  LEU128      0.0019
     54  CD1       25.5040   25.0140   28.2250 C.3   128  LEU128      0.0001
     55  CD2       27.3370   24.4530   26.6160 C.3   128  LEU128      0.0001
     56  N         28.0220   20.2270   29.9170 N.am  129  GLN129     -0.1979
     57  CA        28.6210   19.5850   31.0830 C.3   129  GLN129      0.1601
     58  C         29.8680   18.7820   30.7240 C.2   129  GLN129      0.2287
     59  O         29.9860   18.2570   29.6160 O.2   129  GLN129     -0.2864
     60  CB        27.5970   18.6810   31.7680 C.3   129  GLN129      0.0394
     61  CG        26.3790   19.4260   32.2810 C.3   129  GLN129      0.0908
     62  CD        25.2500   18.5000   32.6790 C.2   129  GLN129      0.2608
     63  OE1       25.4050   17.2790   32.6850 O.2   129  GLN129     -0.2717
     64  NE2       24.1030   19.0790   33.0130 N.am  129  GLN129     -0.0878
     65  N         23.9920   19.3300   39.0750 N.3   138  VAL138     -0.1245
     66  CA        23.1750   18.9450   37.9300 C.3   138  VAL138      0.1561
     67  C         21.8410   18.3460   38.3730 C.2   138  VAL138      0.2260
     68  O         20.7960   18.6310   37.7840 O.2   138  VAL138     -0.2867
     69  CB        23.9200   17.9370   37.0280 C.3   138  VAL138      0.0252
     70  CG1       23.0250   17.4600   35.8950 C.3   138  VAL138      0.0019
     71  CG2       25.1950   18.5600   36.4790 C.3   138  VAL138      0.0019
     72  N         19.1920   20.8060   39.2430 N.3   141  ILE141     -0.1231
     73  CA        18.5680   21.3720   38.0540 C.3   141  ILE141      0.1692
     74  C         17.4760   20.4390   37.5370 C.2   141  ILE141      0.2591
     75  O         16.3970   20.8880   37.1520 O.2   141  ILE141     -0.2718
     76  CB        19.5960   21.6300   36.9360 C.3   141  ILE141      0.0266
     77  CG1       20.7600   22.4710   37.4640 C.3   141  ILE141      0.0019
     78  CG2       18.9360   22.3170   35.7530 C.3   141  ILE141      0.0020
     79  CD1       21.8550   22.7040   36.4490 C.3   141  ILE141      0.0001
     80  N         17.7610   19.1400   37.5400 N.am  142  ARG142     -0.1980
     81  CA        16.7960   18.1450   37.0860 C.3   142  ARG142      0.1597
     82  C         15.5570   18.1370   37.9760 C.2   142  ARG142      0.2287
     83  O         14.4320   18.0270   37.4880 O.2   142  ARG142     -0.2864
     84  CB        17.4270   16.7520   37.0560 C.3   142  ARG142      0.0334
     85  CG        16.5490   15.6880   36.4120 C.3   142  ARG142      0.0492
     86  CD        16.8970   14.3000   36.9200 C.3   142  ARG142      0.2205
     87  NE        18.2990   13.9640   36.6900 N.pl3 142  ARG142     -0.0865
     88  CZ        18.8760   12.8440   37.1130 C.cat 142  ARG142      0.5346
     89  NH1       18.1720   11.9510   37.7960 N.pl3 142  ARG142      0.1354
     90  NH2       20.1580   12.6190   36.8610 N.pl3 142  ARG142      0.1354
     91  N         13.2970   20.9860   37.2690 N.3   145  ILE145     -0.1245
     92  CA        12.5680   20.7080   36.0390 C.3   145  ILE145      0.1561
     93  C         11.3790   19.7920   36.3070 C.2   145  ILE145      0.2260
     94  O         10.2440   20.1190   35.9580 O.2   145  ILE145     -0.2867
     95  CB        13.4780   20.0520   34.9740 C.3   145  ILE145      0.0252
     96  CG1       14.5670   21.0250   34.5230 C.3   145  ILE145      0.0019
     97  CG2       12.6590   19.5940   33.7800 C.3   145  ILE145      0.0019
     98  CD1       15.5890   20.4070   33.5990 C.3   145  ILE145      0.0001
     99  N         27.8530   26.1250   38.2240 N.3   155  LEU155     -0.1245
    100  CA        28.5200   24.8960   37.8210 C.3   155  LEU155      0.1561
    101  C         29.5160   25.1450   36.6960 C.2   155  LEU155      0.2260
    102  O         29.5320   26.2180   36.0910 O.2   155  LEU155     -0.2867
    103  CB        27.4940   23.8400   37.3930 C.3   155  LEU155      0.0270
    104  CG        26.8110   23.9490   36.0250 C.3   155  LEU155      0.0019
    105  CD1       26.0760   22.6550   35.7100 C.3   155  LEU155      0.0001
    106  CD2       25.8540   25.1300   35.9480 C.3   155  LEU155      0.0001
    107  N         30.8020   24.5170   33.0280 N.3   157  ASN157     -0.1240
    108  CA        30.4140   24.0710   31.6950 C.3   157  ASN157      0.1653
    109  C         31.5700   24.1780   30.7070 C.2   157  ASN157      0.2266
    110  O         32.5400   24.8980   30.9440 O.2   157  ASN157     -0.2867
    111  CB        29.2120   24.8650   31.1790 C.3   157  ASN157      0.1155
    112  CG        27.9150   24.4660   31.8560 C.2   157  ASN157      0.2627
    113  OD1       27.0470   25.3020   32.1020 O.2   157  ASN157     -0.2716
    114  ND2       27.7820   23.1830   32.1730 N.am  157  ASN157     -0.0877
    115  N         29.4410   28.8240   35.3110 N.3   167  ASN167     -0.1240
    116  CA        28.1070   29.1190   34.8120 C.3   167  ASN167      0.1653
    117  C         27.1250   29.4520   35.9300 C.2   167  ASN167      0.2266
    118  O         26.5740   28.5570   36.5710 O.2   167  ASN167     -0.2867
    119  CB        27.5810   27.9340   33.9960 C.3   167  ASN167      0.1155
    120  CG        26.3280   28.2700   33.2020 C.2   167  ASN167      0.2627
    121  OD1       25.6690   29.2810   33.4450 O.2   167  ASN167     -0.2716
    122  ND2       25.9910   27.4110   32.2490 N.am  167  ASN167     -0.0877
    123  N         23.9380   29.8050   36.4500 N.3   169  PHE169     -0.1241
    124  CA        22.7700   29.4160   35.6720 C.3   169  PHE169      0.1605
    125  C         21.4610   29.6610   36.4120 C.2   169  PHE169      0.2264
    126  O         21.3690   29.4510   37.6210 O.2   169  PHE169     -0.2867
    127  CB        22.8730   27.9400   35.2770 C.3   169  PHE169      0.0534
    128  CG        21.6100   27.3800   34.6950 C.ar  169  PHE169     -0.0203
    129  CD1       21.2110   27.7220   33.4150 C.ar  169  PHE169     -0.0042
    130  CD2       20.8220   26.5070   35.4270 C.ar  169  PHE169     -0.0042
    131  CE1       20.0470   27.2090   32.8790 C.ar  169  PHE169     -0.0003
    132  CE2       19.6570   25.9890   34.8930 C.ar  169  PHE169     -0.0003
    133  CZ        19.2700   26.3410   33.6170 C.ar  169  PHE169     -0.0000
    134  N         17.2020   28.8190   35.9860 N.3   171  LEU171     -0.1245
    135  CA        16.1250   28.1350   35.2870 C.3   171  LEU171      0.1561
    136  C         14.7860   28.7560   35.6620 C.2   171  LEU171      0.2260
    137  O         14.5830   29.1510   36.8060 O.2   171  LEU171     -0.2867
    138  CB        16.1360   26.6430   35.6190 C.3   171  LEU171      0.0270
    139  CG        15.0470   25.7800   34.9850 C.3   171  LEU171      0.0019
    140  CD1       15.2540   25.6820   33.4830 C.3   171  LEU171      0.0001
    141  CD2       15.0240   24.4040   35.6230 C.3   171  LEU171      0.0001
    142  N         10.7850   26.2420   29.0550 N.3   184  PHE184     -0.1227
    143  CA        11.7080   26.5450   30.1390 C.3   184  PHE184      0.1736
    144  C         12.7180   27.5810   29.6680 C.2   184  PHE184      0.2595
    145  O         13.1880   27.5310   28.5290 O.2   184  PHE184     -0.2718
    146  CB        12.4290   25.2880   30.6230 C.3   184  PHE184      0.0547
    147  CG        11.6680   24.5120   31.6600 C.ar  184  PHE184     -0.0202
    148  CD1       11.7640   24.8450   33.0020 C.ar  184  PHE184     -0.0042
    149  CD2       10.8670   23.4440   31.2960 C.ar  184  PHE184     -0.0042
    150  CE1       11.0690   24.1310   33.9590 C.ar  184  PHE184     -0.0003
    151  CE2       10.1700   22.7250   32.2490 C.ar  184  PHE184     -0.0003
    152  CZ        10.2710   23.0690   33.5820 C.ar  184  PHE184     -0.0000
    153  N         13.0400   28.5240   30.5450 N.am  185  ILE185     -0.1966
    154  CA        14.0300   29.5440   30.2340 C.3   185  ILE185      0.1727
    155  C         15.3150   29.2890   31.0110 C.2   185  ILE185      0.2616
    156  O         15.2890   29.1240   32.2320 O.2   185  ILE185     -0.2715
    157  CB        13.5070   30.9550   30.5540 C.3   185  ILE185      0.0290
    158  CG1       12.1910   31.2120   29.8170 C.3   185  ILE185      0.0022
    159  CG2       14.5430   32.0040   30.1860 C.3   185  ILE185      0.0023
    160  CD1       11.6390   32.6040   30.0210 C.3   185  ILE185      0.0001
    161  N         16.4370   29.2490   30.3000 N.am  186  GLY186     -0.1955
    162  CA        17.7240   29.0250   30.9300 C.3   186  GLY186      0.1869
    163  C         18.7200   30.1220   30.6120 C.2   186  GLY186      0.2309
    164  O         19.2100   30.2200   29.4880 O.2   186  GLY186     -0.2863
    165  N         22.3810   31.9320   31.2450 N.3   188  GLN188     -0.1245
    166  CA        23.7370   31.6030   31.6690 C.3   188  GLN188      0.1566
    167  C         24.6180   32.8410   31.7920 C.2   188  GLN188      0.2260
    168  O         24.7700   33.6020   30.8370 O.2   188  GLN188     -0.2867
    169  CB        24.3820   30.6140   30.6930 C.3   188  GLN188      0.0367
    170  CG        23.6580   29.2820   30.5640 C.3   188  GLN188      0.0905
    171  CD        22.4890   29.3360   29.5980 C.2   188  GLN188      0.2608
    172  OE1       22.2020   30.3780   29.0080 O.2   188  GLN188     -0.2717
    173  NE2       21.8060   28.2080   29.4340 N.am  188  GLN188     -0.0878
@<TRIPOS>BOND
     1    23    24    1
     2     6     5    1
     3    26    25    2
     4    24    25    1
     5    24    27    1
     6     5     2    1
     7     5     7    1
     8     2     3    1
     9     2     1    1
    10    17    18    2
    11    17    16    1
    12    25    31   am
    13     9    10    1
    14     9     8    1
    15     9    12    1
    16    10    11    2
    17     3     4    2
    18    27    28    1
    19    15    16    1
    20    16    19    1
    21    55    53    1
    22    14    12    1
    23    12    13    1
    24    31    32    1
    25    32    33    1
    26    32    35    1
    27    36    35    1
    28    46    45    1
    29    48    49    1
    30    53    54    1
    31    53    52    1
    32    28    30   am
    33    28    29    2
    34    21    20    2
    35    33    37   am
    36    33    34    2
    37    37    38    1
    38    42    43    1
    39    42    41    1
    40    19    20    1
    41    39    40    2
    42    39    38    1
    43    49    52    1
    44    49    50    1
    45    20    22   am
    46    43    44    1
    47   145   144    2
    48    45    44    2
    49    45    47    1
    50    38    41    1
    51   172   171    2
    52   142   143    1
    53    50    51    2
    54    50    56   am
    55   173   171   am
    56   164   163    2
    57   171   170    1
    58    59    58    2
    59   144   143    1
    60   144   153   am
    61   158   160    1
    62   158   157    1
    63    56    57    1
    64   143   146    1
    65   159   157    1
    66   154   153    1
    67   154   157    1
    68   154   155    1
    69   161   162    1
    70   161   155   am
    71   170   169    1
    72   163   162    1
    73   146   147    1
    74   169   166    1
    75   109   110    2
    76   109   108    1
    77    58    57    1
    78   168   167    2
    79   155   156    2
    80    57    60    1
    81   111   108    1
    82   111   112    1
    83   165   166    1
    84   149   147   ar
    85   149   151   ar
    86   147   148   ar
    87   166   167    1
    88   108   107    1
    89    60    61    1
    90   112   113    2
    91   112   114   am
    92   151   152   ar
    93   122   120   am
    94    61    62    1
    95    62    63    2
    96    62    64   am
    97   131   129   ar
    98   131   133   ar
    99   148   150   ar
   100   120   121    2
   101   120   119    1
   102   129   128   ar
   103   140   139    1
   104   152   150   ar
   105    98    96    1
   106   133   132   ar
   107    97    95    1
   108   119   116    1
   109    96    95    1
   110   128   127    1
   111   128   130   ar
   112   116   115    1
   113   116   117    1
   114   132   130   ar
   115    95    92    1
   116   139   138    1
   117   139   141    1
   118   127   124    1
   119   135   138    1
   120   135   136    1
   121   135   134    1
   122   136   137    2
   123   124   125    1
   124   124   123    1
   125   105   104    1
   126    78    76    1
   127    70    69    1
   128   117   118    2
   129   106   104    1
   130    94    93    2
   131   104   103    1
   132    92    93    1
   133    92    91    1
   134   102   101    2
   135    85    86    1
   136    85    84    1
   137   125   126    2
   138    79    77    1
   139    71    69    1
   140    87    86    1
   141    87    88    2
   142   101   100    1
   143    90    88    1
   144    76    77    1
   145    76    73    1
   146    69    66    1
   147    84    81    1
   148    81    80    1
   149    81    82    1
   150    88    89    1
   151    75    74    2
   152   103   100    1
   153    83    82    2
   154    74    80   am
   155    74    73    1
   156    68    67    2
   157   100    99    1
   158    66    67    1
   159    66    65    1
   160    73    72    1
