@<TRIPOS>MOLECULE
tmp/5hzkC01.pdb
 127 120 0 0 0
SMALL
GASTEIGER

@<TRIPOS>ATOM
      1  N        -35.3600  -35.6200   51.4280 N.3    10  GLY10      -0.1210
      2  CA       -34.4820  -34.5120   51.1090 C.3    10  GLY10       0.1956
      3  C        -35.0880  -33.5800   50.0760 C.2    10  GLY10       0.2612
      4  O        -35.8510  -34.0110   49.2120 O.2    10  GLY10      -0.2717
      5  N        -34.7510  -32.2980   50.1840 N.am   11  ALA11      -0.1965
      6  CA       -35.1750  -31.2760   49.2280 C.3    11  ALA11       0.1728
      7  C        -36.6920  -31.1890   49.0630 C.2    11  ALA11       0.2616
      8  O        -37.1840  -30.8600   47.9850 O.2    11  ALA11      -0.2715
      9  CB       -34.5150  -31.5180   47.8740 C.3    11  ALA11       0.0334
     10  N        -37.4310  -31.4860   50.1280 N.am   12  VAL12      -0.1963
     11  CA       -38.8810  -31.3230   50.1060 C.3    12  VAL12       0.1727
     12  C        -39.2560  -29.9440   50.6300 C.2    12  VAL12       0.2617
     13  O        -40.3780  -29.4780   50.4360 O.2    12  VAL12      -0.2715
     14  CB       -39.6030  -32.3980   50.9350 C.3    12  VAL12       0.0290
     15  CG1      -39.2500  -33.7810   50.4240 C.3    12  VAL12       0.0023
     16  CG2      -39.2610  -32.2590   52.4070 C.3    12  VAL12       0.0023
     17  N        -38.3120  -29.2990   51.3090 N.am   13  GLY13      -0.1940
     18  CA       -38.5080  -27.9420   51.7810 C.3    13  GLY13       0.2014
     19  C        -38.5830  -27.8180   53.2880 C.2    13  GLY13       0.2639
     20  O        -39.2180  -26.9000   53.8060 O.2    13  GLY13      -0.2714
     21  N        -37.9310  -28.7370   53.9940 N.am   14  LYS14      -0.1963
     22  CA       -37.9240  -28.7120   55.4520 C.3    14  LYS14       0.1728
     23  C        -37.1730  -27.4960   55.9780 C.2    14  LYS14       0.2617
     24  O        -37.7070  -26.7180   56.7690 O.2    14  LYS14      -0.2715
     25  CB       -37.2950  -29.9880   56.0130 C.3    14  LYS14       0.0311
     26  CG       -38.0850  -31.2530   55.7320 C.3    14  LYS14       0.0038
     27  CD       -37.5030  -32.4330   56.4890 C.3    14  LYS14       0.0206
     28  CE       -36.0590  -32.6920   56.0850 C.3    14  LYS14       0.1093
     29  NZ       -35.9500  -33.1800   54.6840 N.3    14  LYS14      -0.1314
     30  N        -35.9310  -27.3420   55.5310 N.am   15  THR15      -0.1937
     31  CA       -35.0860  -26.2440   55.9800 C.3    15  THR15       0.2028
     32  C        -35.6920  -24.8940   55.6080 C.2    15  THR15       0.2642
     33  O        -35.6680  -23.9570   56.4020 O.2    15  THR15      -0.2714
     34  CB       -33.6680  -26.3450   55.3840 C.3    15  THR15       0.1808
     35  OG1      -33.1530  -27.6660   55.5880 O.3    15  THR15      -0.2208
     36  CG2      -32.7380  -25.3330   56.0380 C.3    15  THR15       0.0379
     37  N        -36.2440  -24.8010   54.4030 N.am   16  CYS16      -0.1967
     38  CA       -36.8160  -23.5450   53.9290 C.3    16  CYS16       0.1712
     39  C        -38.0200  -23.0900   54.7500 C.2    16  CYS16       0.2296
     40  O        -38.1130  -21.9180   55.1090 O.2    16  CYS16      -0.2864
     41  CB       -37.2130  -23.6600   52.4550 C.3    16  CYS16       0.0983
     42  SG       -35.8610  -23.3560   51.2940 S.3    16  CYS16      -0.0798
     43  N        -37.9950  -15.8950   53.0360 N.3    26  PHE26      -0.1241
     44  CA       -37.5280  -17.0600   52.2960 C.3    26  PHE26       0.1605
     45  C        -36.0400  -16.9310   51.9740 C.2    26  PHE26       0.2264
     46  O        -35.5880  -15.8730   51.5360 O.2    26  PHE26      -0.2867
     47  CB       -38.3440  -17.2390   51.0130 C.3    26  PHE26       0.0534
     48  CG       -38.0050  -18.4860   50.2430 C.ar   26  PHE26      -0.0203
     49  CD1      -38.5520  -19.7070   50.6030 C.ar   26  PHE26      -0.0042
     50  CD2      -37.1460  -18.4360   49.1580 C.ar   26  PHE26      -0.0042
     51  CE1      -38.2460  -20.8550   49.8980 C.ar   26  PHE26      -0.0003
     52  CE2      -36.8360  -19.5810   48.4490 C.ar   26  PHE26      -0.0003
     53  CZ       -37.3870  -20.7920   48.8200 C.ar   26  PHE26      -0.0000
     54  N        -31.5450  -17.6980   47.0170 N.3    29  GLU29      -0.1245
     55  CA       -30.9080  -18.7880   46.2880 C.3    29  GLU29       0.1567
     56  C        -29.3910  -18.6510   46.2920 C.2    29  GLU29       0.2260
     57  O        -28.6650  -19.6420   46.2040 O.2    29  GLU29      -0.2867
     58  CB       -31.4150  -18.8270   44.8440 C.3    29  GLU29       0.0388
     59  CG       -32.9210  -18.9680   44.7040 C.3    29  GLU29       0.1160
     60  CD       -33.3660  -18.9930   43.2530 C.2    29  GLU29       0.3649
     61  OE1      -32.5650  -18.5970   42.3780 O.co2  29  GLU29      -0.2457
     62  OE2      -34.5150  -19.4040   42.9870 O.co2  29  GLU29      -0.2457
     63  N        -32.7950  -32.2040   58.4000 N.3    57  ALA57      -0.1245
     64  CA       -32.2590  -32.2340   57.0450 C.3    57  ALA57       0.1562
     65  C        -30.7920  -32.6540   57.0360 C.2    57  ALA57       0.2260
     66  O        -29.9910  -32.1590   57.8290 O.2    57  ALA57      -0.2867
     67  CB       -32.4260  -30.8780   56.3830 C.3    57  ALA57       0.0290
     68  N        -31.3900  -37.8070   56.5010 N.3    60  GLU60      -0.1245
     69  CA       -32.3460  -38.7030   55.8550 C.3    60  GLU60       0.1567
     70  C        -31.7500  -40.0510   55.4430 C.2    60  GLU60       0.2260
     71  O        -32.4320  -41.0740   55.4910 O.2    60  GLU60      -0.2867
     72  CB       -32.9550  -38.0190   54.6270 C.3    60  GLU60       0.0388
     73  CG       -33.6410  -36.6890   54.9160 C.3    60  GLU60       0.1160
     74  CD       -32.7030  -35.5040   54.7800 C.2    60  GLU60       0.3649
     75  OE1      -31.4730  -35.7170   54.7830 O.co2  60  GLU60      -0.2457
     76  OE2      -33.1950  -34.3600   54.6630 O.co2  60  GLU60      -0.2457
     77  N        -45.8130  -29.5510   51.3640 N.3   113  THR113     -0.1203
     78  CA       -44.9910  -28.3650   51.1570 C.3   113  THR113      0.1994
     79  C        -44.8450  -27.9920   49.6850 C.2   113  THR113      0.2617
     80  O        -45.1840  -28.7800   48.8010 O.2   113  THR113     -0.2717
     81  CB       -43.5900  -28.5620   51.7590 C.3   113  THR113      0.1784
     82  OG1      -42.9430  -29.6650   51.1140 O.3   113  THR113     -0.2211
     83  CG2      -43.6950  -28.8470   53.2460 C.3   113  THR113      0.0376
     84  N        -44.3370  -26.7850   49.4420 N.am  114  GLN114     -0.1979
     85  CA       -44.1250  -26.2600   48.0930 C.3   114  GLN114      0.1601
     86  C        -45.4120  -26.2130   47.2710 C.2   114  GLN114      0.2287
     87  O        -45.4120  -26.5500   46.0880 O.2   114  GLN114     -0.2864
     88  CB       -43.0670  -27.0840   47.3510 C.3   114  GLN114      0.0394
     89  CG       -41.6670  -26.9730   47.9300 C.3   114  GLN114      0.0908
     90  CD       -40.6380  -27.7350   47.1170 C.2   114  GLN114      0.2608
     91  OE1      -40.9850  -28.5770   46.2870 O.2   114  GLN114     -0.2717
     92  NE2      -39.3640  -27.4350   47.3430 N.am  114  GLN114     -0.0878
     93  N        -46.8690  -23.7870   46.1310 N.3   116  ASP116     -0.1225
     94  CA       -46.8280  -22.7160   45.1440 C.3   116  ASP116      0.1805
     95  C        -46.3710  -23.2550   43.7930 C.2   116  ASP116      0.2597
     96  O        -46.4940  -22.5800   42.7720 O.2   116  ASP116     -0.2718
     97  CB       -45.9100  -21.5850   45.6110 C.3   116  ASP116      0.1424
     98  CG       -44.4690  -22.0270   45.7640 C.2   116  ASP116      0.3668
     99  OD1      -44.1420  -22.6430   46.8010 O.co2 116  ASP116     -0.2456
    100  OD2      -43.6610  -21.7570   44.8500 O.co2 116  ASP116     -0.2456
    101  N        -45.8460  -24.4750   43.7960 N.am  117  LEU117     -0.1979
    102  CA       -45.3800  -25.1080   42.5700 C.3   117  LEU117      0.1596
    103  C        -46.4390  -26.0390   41.9880 C.2   117  LEU117      0.2287
    104  O        -46.2220  -26.6630   40.9510 O.2   117  LEU117     -0.2864
    105  CB       -44.0900  -25.8880   42.8280 C.3   117  LEU117      0.0297
    106  CG       -42.8700  -25.0870   43.2790 C.3   117  LEU117      0.0022
    107  CD1      -41.7170  -26.0220   43.6000 C.3   117  LEU117      0.0001
    108  CD2      -42.4660  -24.0850   42.2110 C.3   117  LEU117      0.0001
    109  N        -46.5120  -22.9870   51.8880 N.3   156  SER156     -0.1202
    110  CA       -45.4680  -22.6050   50.9540 C.3   156  SER156      0.2020
    111  C        -44.4530  -21.7380   51.6820 C.2   156  SER156      0.2619
    112  O        -44.7900  -20.6670   52.1710 O.2   156  SER156     -0.2717
    113  CB       -46.0520  -21.8560   49.7560 C.3   156  SER156      0.2103
    114  OG       -45.0230  -21.3250   48.9390 O.3   156  SER156     -0.2182
    115  N        -43.2130  -22.2060   51.7660 N.am  157  ALA157     -0.1965
    116  CA       -42.1560  -21.4340   52.4090 C.3   157  ALA157      0.1728
    117  C        -41.8590  -20.1690   51.6160 C.2   157  ALA157      0.2616
    118  O        -41.2960  -19.2100   52.1410 O.2   157  ALA157     -0.2715
    119  CB       -40.9010  -22.2700   52.5560 C.3   157  ALA157      0.0334
    120  N        -42.2470  -20.1790   50.3450 N.am  158  LEU158     -0.1977
    121  CA       -41.9910  -19.0640   49.4450 C.3   158  LEU158      0.1596
    122  C        -43.0570  -17.9800   49.5800 C.2   158  LEU158      0.2287
    123  O        -42.7460  -16.7910   49.6000 O.2   158  LEU158     -0.2864
    124  CB       -41.9230  -19.5670   48.0010 C.3   158  LEU158      0.0297
    125  CG       -41.4970  -18.5800   46.9180 C.3   158  LEU158      0.0022
    126  CD1      -40.1670  -17.9420   47.2760 C.3   158  LEU158      0.0001
    127  CD2      -41.4070  -19.2930   45.5810 C.3   158  LEU158      0.0001
@<TRIPOS>BOND
     1   104   103    2
     2   103   102    1
     3   108   106    1
     4    61    60   ar
     5   102   105    1
     6   102   101    1
     7    96    95    2
     8   105   106    1
     9    62    60   ar
    10    60    59    1
    11   106   107    1
    12    95   101   am
    13    95    94    1
    14    59    58    1
    15    58    55    1
    16   100    98   ar
    17    94    97    1
    18    94    93    1
    19   127   125    1
    20    97    98    1
    21    98    99   ar
    22    87    86    2
    23    57    56    2
    24    91    90    2
    25    55    56    1
    26    55    54    1
    27   125   126    1
    28   125   124    1
    29    90    92   am
    30    90    89    1
    31    86    85    1
    32    88    89    1
    33    88    85    1
    34     9     6    1
    35     8     7    2
    36   124   121    1
    37    85    84    1
    38    52    53   ar
    39    52    50   ar
    40    80    79    2
    41    53    51   ar
    42   114   113    1
    43     7     6    1
    44     7    10   am
    45    50    48   ar
    46     4     3    2
    47     6     5    1
    48    84    79   am
    49   121   122    1
    50   121   120    1
    51   122   123    2
    52    79    78    1
    53   113   110    1
    54    51    49   ar
    55     3     5   am
    56     3     2    1
    57    11    10    1
    58    11    12    1
    59    11    14    1
    60    48    49   ar
    61    48    47    1
    62   120   117   am
    63    15    14    1
    64    13    12    2
    65    12    17   am
    66    14    16    1
    67   110   111    1
    68   110   109    1
    69    47    44    1
    70     2     1    1
    71    82    81    1
    72    78    77    1
    73    78    81    1
    74    42    41    1
    75    17    18    1
    76    46    45    2
    77   117   118    2
    78   117   116    1
    79   111   115   am
    80   111   112    2
    81    81    83    1
    82   115   116    1
    83    18    19    1
    84    45    44    1
    85    44    43    1
    86   116   119    1
    87    41    38    1
    88    19    20    2
    89    19    21   am
    90    38    37    1
    91    38    39    1
    92    21    22    1
    93    37    32   am
    94    72    73    1
    95    72    69    1
    96    76    74   ar
    97    29    28    1
    98    39    40    2
    99    74    75   ar
   100    74    73    1
   101    34    35    1
   102    34    31    1
   103    34    36    1
   104    70    71    2
   105    70    69    1
   106    22    23    1
   107    22    25    1
   108    30    23   am
   109    30    31    1
   110    32    31    1
   111    32    33    2
   112    26    25    1
   113    26    27    1
   114    69    68    1
   115    23    24    2
   116    28    27    1
   117    67    64    1
   118    65    64    1
   119    65    66    2
   120    64    63    1
