@<TRIPOS>MOLECULE
tmp/5hzlA00.pdb
 114 115 0 0 0
SMALL
GASTEIGER

@<TRIPOS>ATOM
      1  N         58.4370   -9.8410   -1.1960 N.3   124  PHE124     -0.1241
      2  CA        59.3720   -8.7270   -1.4580 C.3   124  PHE124      0.1605
      3  C         60.5980   -8.6540   -0.5400 C.2   124  PHE124      0.2264
      4  O         61.4510   -7.7810   -0.7350 O.2   124  PHE124     -0.2867
      5  CB        58.6340   -7.3880   -1.4630 C.3   124  PHE124      0.0534
      6  CG        57.5990   -7.2840   -2.5460 C.ar  124  PHE124     -0.0203
      7  CD1       57.9880   -7.1010   -3.8690 C.ar  124  PHE124     -0.0042
      8  CD2       56.2460   -7.3500   -2.2510 C.ar  124  PHE124     -0.0042
      9  CE1       57.0430   -7.0040   -4.8800 C.ar  124  PHE124     -0.0003
     10  CE2       55.2950   -7.2490   -3.2570 C.ar  124  PHE124     -0.0003
     11  CZ        55.6910   -7.0790   -4.5730 C.ar  124  PHE124     -0.0000
     12  N         60.2440  -11.6480   -5.1350 N.3   144  SER144     -0.1202
     13  CA        59.4400  -10.7730   -5.9440 C.3   144  SER144      0.2020
     14  C         59.9040   -9.3430   -6.0340 C.2   144  SER144      0.2619
     15  O         60.6320   -8.8410   -5.1680 O.2   144  SER144     -0.2717
     16  CB        58.0430  -10.7460   -5.3150 C.3   144  SER144      0.2103
     17  OG        57.5350  -12.0560   -5.1060 O.3   144  SER144     -0.2182
     18  N         59.4350   -8.6920   -7.0950 N.am  145  GLY145     -0.1942
     19  CA        59.7120   -7.2930   -7.3380 C.3   145  GLY145      0.2014
     20  C         61.0270   -7.0030   -8.0040 C.2   145  GLY145      0.2638
     21  O         61.5900   -7.8440   -8.7010 O.2   145  GLY145     -0.2714
     22  N         61.4960   -5.7860   -7.7750 N.am  146  TYR146     -0.1973
     23  CA        62.7310   -5.2960   -8.3310 C.3   146  TYR146      0.1639
     24  C         63.9320   -5.5350   -7.4160 C.2   146  TYR146      0.2290
     25  O         63.8170   -5.4010   -6.2070 O.2   146  TYR146     -0.2864
     26  CB        62.5810   -3.7740   -8.5630 C.3   146  TYR146      0.0560
     27  CG        63.8060   -3.0920   -9.1430 C.ar  146  TYR146     -0.0198
     28  CD1       63.9860   -2.9910  -10.5220 C.ar  146  TYR146     -0.0009
     29  CD2       64.7790   -2.5520   -8.3160 C.ar  146  TYR146     -0.0009
     30  CE1       65.1070   -2.3800  -11.0600 C.ar  146  TYR146      0.0417
     31  CE2       65.9020   -1.9350   -8.8430 C.ar  146  TYR146      0.0417
     32  CZ        66.0610   -1.8540  -10.2120 C.ar  146  TYR146      0.1957
     33  OH        67.1730   -1.2410  -10.7150 O.3   146  TYR146     -0.2866
     34  N         59.6990  -14.5050   -8.9800 N.3   165  HIS165     -0.1241
     35  CA        58.7920  -13.5010   -9.5480 C.3   165  HIS165      0.1621
     36  C         59.4460  -12.1380   -9.6530 C.2   165  HIS165      0.2264
     37  O         58.8230  -11.1010   -9.3870 O.2   165  HIS165     -0.2867
     38  CB        57.5240  -13.3840   -8.6780 C.3   165  HIS165      0.0745
     39  CG        56.8840  -14.6970   -8.3560 C.ar  165  HIS165      0.0817
     40  ND1       56.3700  -15.5340   -9.3230 N.ar  165  HIS165     -0.2268
     41  CD2       56.6470  -15.3040   -7.1700 C.ar  165  HIS165      0.1154
     42  CE1       55.8670  -16.6100   -8.7490 C.ar  165  HIS165      0.1986
     43  NE2       56.0220  -16.4950   -7.4430 N.ar  165  HIS165     -0.2212
     44  N         61.2420   -8.8960  -11.5370 N.3   167  ILE167     -0.1245
     45  CA        61.0100   -8.0920  -12.7430 C.3   167  ILE167      0.1561
     46  C         62.2910   -7.3970  -13.1740 C.2   167  ILE167      0.2260
     47  O         62.2860   -6.5140  -14.0280 O.2   167  ILE167     -0.2867
     48  CB        59.9280   -7.0110  -12.5030 C.3   167  ILE167      0.0252
     49  CG1       60.4110   -5.9200  -11.5250 C.3   167  ILE167      0.0019
     50  CG2       58.6550   -7.6730  -12.0040 C.3   167  ILE167      0.0019
     51  CD1       59.4850   -4.7390  -11.3970 C.3   167  ILE167      0.0001
     52  N         58.1270  -14.9340  -13.2930 N.3   188  THR188     -0.1203
     53  CA        56.7340  -14.6170  -13.6340 C.3   188  THR188      0.1994
     54  C         56.1190  -13.7240  -12.5990 C.2   188  THR188      0.2618
     55  O         56.3670  -13.9090  -11.4220 O.2   188  THR188     -0.2717
     56  CB        55.8890  -15.8930  -13.7380 C.3   188  THR188      0.1784
     57  OG1       55.8040  -16.5330  -12.4510 O.3   188  THR188     -0.2211
     58  CG2       56.5190  -16.8360  -14.7480 C.3   188  THR188      0.0376
     59  N         55.3080  -12.7620  -13.0180 N.am  189  ALA189     -0.1965
     60  CA        54.6940  -11.8630  -12.0540 C.3   189  ALA189      0.1728
     61  C         53.4160  -11.2410  -12.5330 C.2   189  ALA189      0.2617
     62  O         53.2920  -10.8840  -13.6920 O.2   189  ALA189     -0.2715
     63  CB        55.6780  -10.7620  -11.6760 C.3   189  ALA189      0.0334
     64  N         52.4690  -11.1200  -11.6180 N.am  190  THR190     -0.1937
     65  CA        51.1900  -10.4910  -11.8960 C.3   190  THR190      0.2028
     66  C         51.2400   -9.1480  -11.1790 C.2   190  THR190      0.2642
     67  O         51.2970   -9.0920   -9.9480 O.2   190  THR190     -0.2714
     68  CB        50.0380  -11.3590  -11.3770 C.3   190  THR190      0.1808
     69  OG1       50.2070  -12.6850  -11.8870 O.3   190  THR190     -0.2208
     70  CG2       48.6790  -10.7930  -11.7990 C.3   190  THR190      0.0379
     71  N         51.2530   -8.0700  -11.9530 N.am  191  TYR191     -0.1960
     72  CA        51.3140   -6.7060  -11.3920 C.3   191  TYR191      0.1756
     73  C         50.0180   -6.2830  -10.7130 C.2   191  TYR191      0.2461
     74  O         48.9740   -6.8940  -10.9160 O.2   191  TYR191     -0.2730
     75  CB        51.7050   -5.6780  -12.4740 C.3   191  TYR191      0.0574
     76  CG        53.1870   -5.6610  -12.8510 C.ar  191  TYR191     -0.0198
     77  CD1       53.8060   -6.7830  -13.3960 C.ar  191  TYR191     -0.0009
     78  CD2       53.9550   -4.5000  -12.7050 C.ar  191  TYR191     -0.0009
     79  CE1       55.1520   -6.7600  -13.7570 C.ar  191  TYR191      0.0417
     80  CE2       55.3000   -4.4670  -13.0640 C.ar  191  TYR191      0.0417
     81  CZ        55.8940   -5.5980  -13.5890 C.ar  191  TYR191      0.1957
     82  OH        57.2160   -5.5980  -13.9550 O.3   191  TYR191     -0.2866
     83  N         50.0900   -5.2580   -9.8540 N.am  192  PRO192     -0.2727
     84  CA        48.8330   -4.8200   -9.2380 C.3   192  PRO192      0.1402
     85  C         47.8430   -4.3650  -10.3200 C.2   192  PRO192      0.2269
     86  O         48.2740   -3.9010  -11.3620 O.2   192  PRO192     -0.2865
     87  CB        49.2760   -3.6560   -8.3390 C.3   192  PRO192      0.0296
     88  CG        50.6920   -3.9800   -7.9840 C.3   192  PRO192      0.0237
     89  CD        51.2740   -4.6830   -9.1760 C.3   192  PRO192      0.0939
     90  N         56.1550   -0.8520  -16.0940 N.3   205  PHE205     -0.1241
     91  CA        57.5770   -0.8380  -15.6450 C.3   205  PHE205      0.1605
     92  C         58.1130   -2.2590  -15.6180 C.2   205  PHE205      0.2264
     93  O         57.7690   -3.0180  -14.7050 O.2   205  PHE205     -0.2867
     94  CB        57.6740   -0.1860  -14.2540 C.3   205  PHE205      0.0534
     95  CG        59.0540   -0.1840  -13.6590 C.ar  205  PHE205     -0.0203
     96  CD1       60.0400    0.6530  -14.1550 C.ar  205  PHE205     -0.0042
     97  CD2       59.3580   -0.9850  -12.5590 C.ar  205  PHE205     -0.0042
     98  CE1       61.3090    0.6700  -13.5960 C.ar  205  PHE205     -0.0003
     99  CE2       60.6260   -0.9700  -11.9950 C.ar  205  PHE205     -0.0003
    100  CZ        61.6020   -0.1430  -12.5150 C.ar  205  PHE205     -0.0000
    101  N         57.2810  -14.3520  -18.1100 N.3   266  TRP266     -0.1241
    102  CA        56.0020  -13.7240  -18.5080 C.3   266  TRP266      0.1605
    103  C         55.4550  -12.8210  -17.4050 C.2   266  TRP266      0.2264
    104  O         55.5890  -13.1240  -16.2270 O.2   266  TRP266     -0.2867
    105  CB        54.9240  -14.7100  -18.9930 C.3   266  TRP266      0.0550
    106  CG        54.5010  -15.8050  -18.0630 C.ar  266  TRP266      0.0003
    107  CD1       54.9200  -17.1110  -18.0950 C.ar  266  TRP266      0.0946
    108  CD2       53.5620  -15.7150  -16.9820 C.ar  266  TRP266      0.0152
    109  NE1       54.3040  -17.8320  -17.1060 N.ar  266  TRP266     -0.2442
    110  CE2       53.4710  -17.0030  -16.4010 C.ar  266  TRP266      0.0810
    111  CE3       52.8050  -14.6680  -16.4290 C.ar  266  TRP266      0.0012
    112  CZ2       52.6440  -17.2760  -15.2950 C.ar  266  TRP266      0.0191
    113  CZ3       51.9800  -14.9400  -15.3280 C.ar  266  TRP266      0.0001
    114  CH2       51.9060  -16.2390  -14.7790 C.ar  266  TRP266      0.0015
@<TRIPOS>BOND
     1   105   102    1
     2   105   106    1
     3   102   101    1
     4   102   103    1
     5   107   106   ar
     6   107   109   ar
     7   106   108   ar
     8   103   104    2
     9   109   110   ar
    10   108   111   ar
    11   108   110   ar
    12   111   113   ar
    13   110   112   ar
    14    90    91    1
    15    91    92    1
    16    91    94    1
    17    92    93    2
    18   113   114   ar
    19   112   114   ar
    20    58    56    1
    21    94    95    1
    22    96    95   ar
    23    96    98   ar
    24    47    46    2
    25    82    81    1
    26    79    81   ar
    27    79    77   ar
    28    56    53    1
    29    56    57    1
    30    62    61    2
    31    95    97   ar
    32    53    52    1
    33    53    54    1
    34    98   100   ar
    35    81    80   ar
    36    77    76   ar
    37    46    45    1
    38    80    78   ar
    39    59    54   am
    40    59    60    1
    41    76    78   ar
    42    76    75    1
    43    45    48    1
    44    45    44    1
    45    54    55    2
    46    97    99   ar
    47    61    60    1
    48    61    64   am
    49   100    99   ar
    50    48    50    1
    51    48    49    1
    52    75    72    1
    53    60    63    1
    54    71    72    1
    55    71    66   am
    56    65    64    1
    57    65    68    1
    58    65    66    1
    59    69    68    1
    60    70    68    1
    61    49    51    1
    62    72    73    1
    63    86    85    2
    64    66    67    2
    65    30    28   ar
    66    30    32   ar
    67    74    73    2
    68    33    32    1
    69    73    83   am
    70    28    27   ar
    71    85    84    1
    72    32    31   ar
    73    83    84    1
    74    83    89    1
    75    36    35    1
    76    36    37    2
    77    35    34    1
    78    35    38    1
    79    40    42   ar
    80    40    39   ar
    81    84    87    1
    82    89    88    1
    83    27    26    1
    84    27    29   ar
    85    31    29   ar
    86    42    43   ar
    87    21    20    2
    88    38    39    1
    89    26    23    1
    90    39    41   ar
    91    87    88    1
    92    23    22    1
    93    23    24    1
    94    20    22   am
    95    20    19    1
    96    43    41   ar
    97    24    25    2
    98    19    18    1
    99    18    14   am
   100    14    13    1
   101    14    15    2
   102    13    16    1
   103    13    12    1
   104    16    17    1
   105     9    11   ar
   106     9     7   ar
   107    11    10   ar
   108     7     6   ar
   109    10     8   ar
   110     6     8   ar
   111     6     5    1
   112     5     2    1
   113     2     1    1
   114     2     3    1
   115     4     3    2
