@<TRIPOS>MOLECULE
tmp/5hznH01.pdb
 89 86 0 0 0
SMALL
GASTEIGER

@<TRIPOS>ATOM
      1  N        100.2840    9.2930   42.7160 N.3    26  GLY26      -0.1210
      2  CA       100.9610    9.6280   43.9860 C.3    26  GLY26       0.1956
      3  C         99.9600    9.4700   45.1120 C.2    26  GLY26       0.2613
      4  O         99.4190    8.3750   45.3290 O.2    26  GLY26      -0.2717
      5  N         99.6770   10.5600   45.8260 N.am   27  SER27      -0.1938
      6  CA        98.6460   10.5110   46.8510 C.3    27  SER27       0.2055
      7  C         97.3010   10.4650   46.1210 C.2    27  SER27       0.2643
      8  O         97.1760   11.0050   45.0070 O.2    27  SER27      -0.2714
      9  CB        98.7090   11.7340   47.7740 C.3    27  SER27       0.2130
     10  OG        98.6050   12.9580   47.0530 O.3    27  SER27      -0.2179
     11  N         96.3160    9.8200   46.7420 N.am   28  PHE28      -0.1973
     12  CA        94.9730    9.7100   46.1740 C.3    28  PHE28       0.1639
     13  C         95.0020    9.0100   44.8090 C.2    28  PHE28       0.2290
     14  O         95.7020    8.0050   44.6710 O.2    28  PHE28      -0.2864
     15  CB        94.2750   11.0790   46.1700 C.3    28  PHE28       0.0560
     16  CG        94.1290   11.6800   47.5610 C.ar   28  PHE28      -0.0200
     17  CD1       93.0840   11.2940   48.3960 C.ar   28  PHE28      -0.0042
     18  CD2       95.0340   12.6270   48.0170 C.ar   28  PHE28      -0.0042
     19  CE1       92.9430   11.8290   49.6660 C.ar   28  PHE28      -0.0003
     20  CE2       94.9080   13.1770   49.2770 C.ar   28  PHE28      -0.0003
     21  CZ        93.8490   12.7860   50.1080 C.ar   28  PHE28      -0.0000
     22  N         88.5130   15.1110   52.4300 N.3    64  GLU64      -0.1245
     23  CA        89.9640   15.1970   52.6490 C.3    64  GLU64       0.1567
     24  C         90.7130   15.5820   51.3740 C.2    64  GLU64       0.2260
     25  O         91.5470   16.4800   51.3830 O.2    64  GLU64      -0.2867
     26  CB        90.5350   13.8960   53.1900 C.3    64  GLU64       0.0388
     27  CG        92.0090   14.0410   53.5430 C.3    64  GLU64       0.1160
     28  CD        92.7140   12.7150   53.7860 C.2    64  GLU64       0.3649
     29  OE1       92.3000   11.6780   53.1990 O.co2  64  GLU64      -0.2457
     30  OE2       93.7040   12.7110   54.5640 O.co2  64  GLU64      -0.2457
     31  N        100.4370   15.2520   49.6640 N.3   173  GLY173     -0.1210
     32  CA        99.3090   14.4860   50.1590 C.3   173  GLY173      0.1956
     33  C         99.5950   13.1210   50.7640 C.2   173  GLY173      0.2612
     34  O         98.7650   12.6090   51.5040 O.2   173  GLY173     -0.2717
     35  N        100.7480   12.5230   50.4540 N.am  174  MET174     -0.1965
     36  CA       101.0410   11.1340   50.8640 C.3   174  MET174      0.1736
     37  C        100.9670   10.8280   52.3770 C.2   174  MET174      0.2617
     38  O        100.5850    9.7240   52.7550 O.2   174  MET174     -0.2715
     39  CB       102.3940   10.6410   50.3150 C.3   174  MET174      0.0427
     40  CG       102.3950   10.1690   48.8680 C.3   174  MET174      0.0599
     41  SD       101.3300    8.7360   48.3900 S.3   174  MET174     -0.1393
     42  CE       101.4930    7.6500   49.6250 C.3   174  MET174      0.0692
     43  N        101.3390   11.7850   53.2270 N.am  175  THR175     -0.1937
     44  CA       101.5230   11.4980   54.6610 C.3   175  THR175      0.2028
     45  C        100.4620   12.1360   55.5440 C.2   175  THR175      0.2642
     46  O        100.4610   11.9320   56.7610 O.2   175  THR175     -0.2714
     47  CB       102.9150   11.9520   55.1650 C.3   175  THR175      0.1808
     48  OG1      103.0220   13.3760   55.0540 O.3   175  THR175     -0.2208
     49  CG2      104.0420   11.4130   54.2690 C.3   175  THR175      0.0379
     50  N         99.5820   12.9220   54.9310 N.am  176  ARG176     -0.1963
     51  CA        98.5290   13.6120   55.6590 C.3   176  ARG176      0.1729
     52  C         97.3960   12.6560   56.0170 C.2   176  ARG176      0.2616
     53  O         96.9130   11.8920   55.1810 O.2   176  ARG176     -0.2715
     54  CB        98.0480   14.8350   54.8730 C.3   176  ARG176      0.0348
     55  CG        98.8550   16.0740   55.2340 C.3   176  ARG176      0.0492
     56  CD        98.9210   17.1680   54.1890 C.3   176  ARG176      0.2205
     57  NE       100.2950   17.6770   54.1470 N.pl3 176  ARG176     -0.0865
     58  CZ       100.7170   18.7770   54.7470 C.cat 176  ARG176      0.5346
     59  NH1       99.8810   19.5490   55.4200 N.pl3 176  ARG176      0.1354
     60  NH2      101.9770   19.1170   54.6520 N.pl3 176  ARG176      0.1354
     61  N         97.0150   12.6590   57.2880 N.am  177  ASP177     -0.1971
     62  CA        95.9540   11.7670   57.7540 C.3   177  ASP177      0.1709
     63  C         94.6760   12.5590   57.9750 C.2   177  ASP177      0.2293
     64  O         94.7250   13.7360   58.3320 O.2   177  ASP177     -0.2864
     65  CB        96.3630   11.0370   59.0350 C.3   177  ASP177      0.1436
     66  CG        95.4500    9.8610   59.3510 C.2   177  ASP177      0.3671
     67  OD1       94.8320    9.3110   58.4060 O.co2 177  ASP177     -0.2456
     68  OD2       95.2740    9.4160   60.5020 O.co2 177  ASP177     -0.2456
     69  N         99.1710    3.7650   61.8680 N.3   189  LYS189     -0.1231
     70  CA        99.6270    3.1960   60.5840 C.3   189  LYS189      0.1693
     71  C         99.7770    4.2500   59.4650 C.2   189  LYS189      0.2593
     72  O         99.6270    3.9420   58.2680 O.2   189  LYS189     -0.2718
     73  CB        98.7050    2.0450   60.1240 C.3   189  LYS189      0.0285
     74  CG        98.7450    0.8420   61.0000 C.3   189  LYS189      0.0035
     75  CD        99.9970    0.0350   60.8450 C.3   189  LYS189      0.0206
     76  CE        99.9850   -1.2160   61.7580 C.3   189  LYS189      0.1093
     77  NZ       100.2920   -0.9390   63.1690 N.3   189  LYS189     -0.1314
     78  N        100.0850    5.4880   59.8540 N.am  190  GLY190     -0.1942
     79  CA       100.3270    6.5450   58.8760 C.3   190  GLY190      0.2014
     80  C        101.6370    6.2790   58.1730 C.2   190  GLY190      0.2638
     81  O        102.5150    5.6390   58.7490 O.2   190  GLY190     -0.2714
     82  N        101.7650    6.7710   56.9350 N.am  191  LEU191     -0.1977
     83  CA       102.9850    6.5800   56.1380 C.3   191  LEU191      0.1596
     84  C        104.0720    7.5490   56.5790 C.2   191  LEU191      0.2287
     85  O        103.8350    8.7410   56.6670 O.2   191  LEU191     -0.2864
     86  CB       102.7120    6.7360   54.6370 C.3   191  LEU191      0.0297
     87  CG       101.7620    5.7640   53.9220 C.3   191  LEU191      0.0022
     88  CD1      101.5940    6.2040   52.4730 C.3   191  LEU191      0.0001
     89  CD2      102.2960    4.3570   53.9690 C.3   191  LEU191      0.0001
@<TRIPOS>BOND
     1     1     2    1
     2     2     3    1
     3    14    13    2
     4    13    12    1
     5     8     7    2
     6     3     4    2
     7     3     5   am
     8     5     6    1
     9     7    11   am
    10     7     6    1
    11    15    12    1
    12    15    16    1
    13    12    11    1
    14     6     9    1
    15    10     9    1
    16    16    18   ar
    17    16    17   ar
    18    18    20   ar
    19    41    40    1
    20    41    42    1
    21    17    19   ar
    22    40    39    1
    23    20    21   ar
    24    31    32    1
    25    19    21   ar
    26    32    33    1
    27    39    36    1
    28    35    33   am
    29    35    36    1
    30    33    34    2
    31    36    37    1
    32    24    25    2
    33    24    23    1
    34    37    38    2
    35    37    43   am
    36    22    23    1
    37    88    87    1
    38    23    26    1
    39    26    27    1
    40    29    28   ar
    41    43    44    1
    42    27    28    1
    43    28    30   ar
    44    87    89    1
    45    87    86    1
    46    57    56    1
    47    57    58    2
    48    56    55    1
    49    49    47    1
    50    86    83    1
    51    60    58    1
    52    44    47    1
    53    44    45    1
    54    58    59    1
    55    54    55    1
    56    54    51    1
    57    50    45   am
    58    50    51    1
    59    48    47    1
    60    53    52    2
    61    45    46    2
    62    51    52    1
    63    52    61   am
    64    83    84    1
    65    83    82    1
    66    84    85    2
    67    82    80   am
    68    61    62    1
    69    62    63    1
    70    62    65    1
    71    63    64    2
    72    80    81    2
    73    80    79    1
    74    72    71    2
    75    67    66   ar
    76    79    78    1
    77    65    66    1
    78    66    68   ar
    79    71    78   am
    80    71    70    1
    81    73    70    1
    82    73    74    1
    83    70    69    1
    84    75    74    1
    85    75    76    1
    86    76    77    1
