@<TRIPOS>MOLECULE
tmp/5hznH00.pdb
 209 198 0 0 0
SMALL
GASTEIGER

@<TRIPOS>ATOM
      1  N         99.4170    9.7320   33.8310 N.3    23  LEU23      -0.1231
      2  CA       100.7270   10.2670   34.2040 C.3    23  LEU23       0.1693
      3  C        101.3200    9.4910   35.3760 C.2    23  LEU23       0.2593
      4  O        102.5240    9.2780   35.4410 O.2    23  LEU23      -0.2718
      5  CB       100.6520   11.7740   34.4870 C.3    23  LEU23       0.0284
      6  CG       100.3510   12.6630   33.2620 C.3    23  LEU23       0.0019
      7  CD1      100.3670   14.1270   33.6540 C.3    23  LEU23       0.0001
      8  CD2      101.3440   12.4190   32.1090 C.3    23  LEU23       0.0001
      9  N        100.4700    9.0400   36.2840 N.am   24  GLY24      -0.1942
     10  CA       100.9310    8.2660   37.4330 C.3    24  GLY24       0.2014
     11  C        100.0990    8.5150   38.6690 C.2    24  GLY24       0.2639
     12  O         99.2730    9.4270   38.7020 O.2    24  GLY24      -0.2714
     13  N        100.3050    7.6910   39.6870 N.am   25  GLN25      -0.1963
     14  CA        99.5600    7.8220   40.9230 C.3    25  GLN25       0.1733
     15  C        100.5360    8.1720   42.0330 C.2    25  GLN25       0.2617
     16  O        101.5160    7.4590   42.2270 O.2    25  GLN25      -0.2715
     17  CB        98.8210    6.5250   41.2640 C.3    25  GLN25       0.0408
     18  CG        97.9540    6.6380   42.5330 C.3    25  GLN25       0.0908
     19  CD        97.1710    5.3900   42.8390 C.2    25  GLN25       0.2608
     20  OE1       97.6340    4.2780   42.5670 O.2    25  GLN25      -0.2717
     21  NE2       95.9730    5.5600   43.4150 N.am   25  GLN25      -0.0878
     22  N        100.2840    9.2930   42.7160 N.am   26  GLY26      -0.1940
     23  CA       100.9610    9.6280   43.9860 C.3    26  GLY26       0.2014
     24  C         99.9600    9.4700   45.1120 C.2    26  GLY26       0.2640
     25  O         99.4190    8.3750   45.3290 O.2    26  GLY26      -0.2714
     26  N         99.6770   10.5600   45.8260 N.am   27  SER27      -0.1935
     27  CA        98.6460   10.5110   46.8510 C.3    27  SER27       0.2055
     28  C         97.3010   10.4650   46.1210 C.2    27  SER27       0.2643
     29  O         97.1760   11.0050   45.0070 O.2    27  SER27      -0.2714
     30  CB        98.7090   11.7340   47.7740 C.3    27  SER27       0.2130
     31  OG        98.6050   12.9580   47.0530 O.3    27  SER27      -0.2179
     32  N         96.3160    9.8200   46.7420 N.am   28  PHE28      -0.1973
     33  CA        94.9730    9.7100   46.1740 C.3    28  PHE28       0.1639
     34  C         95.0020    9.0100   44.8090 C.2    28  PHE28       0.2290
     35  O         95.7020    8.0050   44.6710 O.2    28  PHE28      -0.2864
     36  CB        94.2750   11.0790   46.1700 C.3    28  PHE28       0.0560
     37  CG        94.1290   11.6800   47.5610 C.ar   28  PHE28      -0.0200
     38  CD1       93.0840   11.2940   48.3960 C.ar   28  PHE28      -0.0042
     39  CD2       95.0340   12.6270   48.0170 C.ar   28  PHE28      -0.0042
     40  CE1       92.9430   11.8290   49.6660 C.ar   28  PHE28      -0.0003
     41  CE2       94.9080   13.1770   49.2770 C.ar   28  PHE28      -0.0003
     42  CZ        93.8490   12.7860   50.1080 C.ar   28  PHE28      -0.0000
     43  N         96.7770   10.4670   38.2610 N.3    31  VAL31      -0.1245
     44  CA        96.9090   11.7610   37.5830 C.3    31  VAL31       0.1561
     45  C         96.9110   11.4990   36.0710 C.2    31  VAL31       0.2260
     46  O         97.5700   10.5660   35.6000 O.2    31  VAL31      -0.2867
     47  CB        98.2200   12.5440   38.0110 C.3    31  VAL31       0.0252
     48  CG1       98.4010   13.8620   37.2190 C.3    31  VAL31       0.0019
     49  CG2       98.2280   12.8320   39.5310 C.3    31  VAL31       0.0019
     50  N         97.4570   18.9710   34.1280 N.3    49  ALA49      -0.1245
     51  CA        97.4110   17.6960   34.8260 C.3    49  ALA49       0.1562
     52  C         96.1070   17.6620   35.6150 C.2    49  ALA49       0.2260
     53  O         95.6780   18.6820   36.1740 O.2    49  ALA49      -0.2867
     54  CB        98.5980   17.5410   35.7530 C.3    49  ALA49       0.0290
     55  N         94.2270   15.5750   38.5640 N.3    51  LYS51      -0.1245
     56  CA        94.3490   14.6230   39.6350 C.3    51  LYS51       0.1561
     57  C         92.9760   14.1530   40.0890 C.2    51  LYS51       0.2260
     58  O         92.1140   14.9700   40.4210 O.2    51  LYS51      -0.2867
     59  CB        95.1180   15.2400   40.8050 C.3    51  LYS51       0.0271
     60  CG        95.4290   14.2680   41.9080 C.3    51  LYS51       0.0035
     61  CD        96.4450   14.9000   42.8520 C.3    51  LYS51       0.0206
     62  CE        96.9750   13.9080   43.8470 C.3    51  LYS51       0.1093
     63  NZ        98.2160   14.4580   44.4630 N.3    51  LYS51      -0.1314
     64  N         90.4200   14.8780   50.2900 N.3    65  PHE65      -0.1241
     65  CA        90.9700   15.1770   48.9750 C.3    65  PHE65       0.1605
     66  C         90.8220   16.6570   48.6050 C.2    65  PHE65       0.2264
     67  O         91.8040   17.3210   48.2250 O.2    65  PHE65      -0.2867
     68  CB        90.2820   14.2950   47.9240 C.3    65  PHE65       0.0534
     69  CG        90.7670   14.5190   46.5200 C.ar   65  PHE65      -0.0203
     70  CD1       92.0780   14.2130   46.1640 C.ar   65  PHE65      -0.0042
     71  CD2       89.9030   15.0190   45.5420 C.ar   65  PHE65      -0.0042
     72  CE1       92.5300   14.4010   44.8530 C.ar   65  PHE65      -0.0003
     73  CE2       90.3360   15.2080   44.2250 C.ar   65  PHE65      -0.0003
     74  CZ        91.6600   14.9000   43.8790 C.ar   65  PHE65      -0.0000
     75  N         92.7600   19.1110   50.9580 N.3    68  GLU68      -0.1231
     76  CA        94.1910   19.1860   50.6960 C.3    68  GLU68       0.1699
     77  C         94.4200   20.0100   49.4330 C.2    68  GLU68       0.2592
     78  O         95.2780   20.8860   49.4090 O.2    68  GLU68      -0.2718
     79  CB        94.8280   17.8010   50.6420 C.3    68  GLU68       0.0402
     80  CG        94.8450   17.1050   52.0090 C.3    68  GLU68       0.1161
     81  CD        95.5550   15.7520   52.0050 C.2    68  GLU68       0.3649
     82  OE1       96.5740   15.6330   51.3030 O.co2  68  GLU68      -0.2457
     83  OE2       95.1240   14.8130   52.7270 O.co2  68  GLU68      -0.2457
     84  N         93.5930   19.7780   48.4170 N.am   69  ALA69      -0.1980
     85  CA        93.6680   20.5590   47.1930 C.3    69  ALA69       0.1597
     86  C         93.4790   22.0490   47.4800 C.2    69  ALA69       0.2287
     87  O         94.1780   22.8760   46.9120 O.2    69  ALA69      -0.2864
     88  CB        92.6380   20.0720   46.1790 C.3    69  ALA69       0.0319
     89  N         96.3140   24.6190   48.1640 N.3    72  MET72      -0.1245
     90  CA        96.9780   25.1850   46.9820 C.3    72  MET72       0.1570
     91  C         96.3740   26.5040   46.4600 C.2    72  MET72       0.2261
     92  O         97.0670   27.2740   45.7810 O.2    72  MET72      -0.2867
     93  CB        97.0510   24.1550   45.8490 C.3    72  MET72       0.0387
     94  CG        97.9160   22.9440   46.1450 C.3    72  MET72       0.0595
     95  SD        97.8140   21.6960   44.8290 S.3    72  MET72      -0.1393
     96  CE        98.9390   22.4060   43.5860 C.3    72  MET72       0.0692
     97  N        104.2770   24.0030   42.0000 N.3    81  VAL81      -0.1245
     98  CA       103.2340   23.6340   41.0400 C.3    81  VAL81       0.1561
     99  C        101.8980   24.3090   41.4020 C.2    81  VAL81       0.2260
    100  O        101.4170   24.2170   42.5420 O.2    81  VAL81      -0.2867
    101  CB       103.0380   22.1060   40.9200 C.3    81  VAL81       0.0252
    102  CG1      102.0060   21.7670   39.8120 C.3    81  VAL81       0.0019
    103  CG2      104.3690   21.4030   40.6490 C.3    81  VAL81       0.0019
    104  N         91.0330   17.5470   40.4050 N.3    95  VAL95      -0.1245
    105  CA        91.7670   18.7420   40.7200 C.3    95  VAL95       0.1561
    106  C         92.6250   19.0360   39.4980 C.2    95  VAL95       0.2260
    107  O         93.3390   18.1570   39.0160 O.2    95  VAL95      -0.2867
    108  CB        92.6120   18.5260   42.0010 C.3    95  VAL95       0.0252
    109  CG1       93.6800   19.5640   42.1310 C.3    95  VAL95       0.0019
    110  CG2       91.6940   18.4940   43.2360 C.3    95  VAL95       0.0019
    111  N         95.6120   21.0270   37.5620 N.3    97  MET97      -0.1230
    112  CA        96.8970   21.6380   37.9110 C.3    97  MET97       0.1702
    113  C         97.7460   22.0090   36.7060 C.2    97  MET97       0.2592
    114  O         97.6170   21.4130   35.6290 O.2    97  MET97      -0.2718
    115  CB        97.7300   20.6860   38.7810 C.3    97  MET97       0.0401
    116  CG        97.0940   20.2770   40.0910 C.3    97  MET97       0.0596
    117  SD        98.0400   18.9420   40.8780 S.3    97  MET97      -0.1393
    118  CE        97.7160   17.5870   39.7610 C.3    97  MET97       0.0692
    119  N         98.6310   22.9870   36.9220 N.am   98  GLU98      -0.1966
    120  CA        99.7870   23.2380   36.0540 C.3    98  GLU98       0.1733
    121  C        100.4220   21.9160   35.6170 C.2    98  GLU98       0.2616
    122  O        100.7620   21.0770   36.4560 O.2    98  GLU98      -0.2715
    123  CB       100.8310   24.0790   36.8100 C.3    98  GLU98       0.0429
    124  CG       102.1260   24.3340   36.0480 C.3    98  GLU98       0.1163
    125  CD       103.1360   25.1730   36.8240 C.2    98  GLU98       0.3649
    126  OE1      102.8940   25.4960   38.0200 O.co2  98  GLU98      -0.2457
    127  OE2      104.1900   25.5030   36.2390 O.co2  98  GLU98      -0.2457
    128  N        100.5870   21.7370   34.3090 N.am   99  LEU99      -0.1963
    129  CA       101.1590   20.5180   33.7790 C.3    99  LEU99       0.1728
    130  C        102.6770   20.5900   33.7930 C.2    99  LEU99       0.2616
    131  O        103.2750   21.5110   33.2280 O.2    99  LEU99      -0.2715
    132  CB       100.6470   20.2260   32.3600 C.3    99  LEU99       0.0311
    133  CG       101.1750   18.9600   31.6690 C.3    99  LEU99       0.0022
    134  CD1      100.7140   17.7100   32.3740 C.3    99  LEU99       0.0001
    135  CD2      100.7250   18.9240   30.2060 C.3    99  LEU99       0.0001
    136  N        103.2850   19.6090   34.4550 N.am  100  MET100     -0.1977
    137  CA       104.7280   19.4870   34.5210 C.3   100  MET100      0.1605
    138  C        105.1040   18.3590   33.5470 C.2   100  MET100      0.2287
    139  O        104.9110   17.1740   33.8510 O.2   100  MET100     -0.2864
    140  CB       105.1490   19.1700   35.9680 C.3   100  MET100      0.0413
    141  CG       104.6620   20.1880   37.0040 C.3   100  MET100      0.0598
    142  SD       105.2930   21.8770   36.7060 S.3   100  MET100     -0.1393
    143  CE       107.0190   21.6760   37.1640 C.3   100  MET100      0.0692
    144  N        107.8270   15.3170   34.3040 N.3   103  GLY103     -0.1210
    145  CA       107.5990   14.3630   35.3970 C.3   103  GLY103      0.1956
    146  C        108.3480   14.6600   36.6920 C.2   103  GLY103      0.2611
    147  O        108.8590   15.7650   36.8890 O.2   103  GLY103     -0.2717
    148  N        108.4190   13.6630   37.5700 N.am  104  ASP104     -0.1973
    149  CA       108.9690   13.8620   38.9020 C.3   104  ASP104      0.1709
    150  C        110.4880   13.9050   38.8420 C.2   104  ASP104      0.2293
    151  O        111.1100   13.3300   37.9450 O.2   104  ASP104     -0.2864
    152  CB       108.4920   12.7790   39.8810 C.3   104  ASP104      0.1436
    153  CG       109.1540   11.4320   39.6320 C.2   104  ASP104      0.3671
    154  OD1      108.7280   10.7050   38.7100 O.co2 104  ASP104     -0.2456
    155  OD2      110.1090   11.0170   40.3040 O.co2 104  ASP104     -0.2456
    156  N        111.0080   12.5010   44.5340 N.3   157  ARG157     -0.1231
    157  CA       109.7520   11.9640   43.9500 C.3   157  ARG157      0.1694
    158  C        108.5860   12.9500   43.9860 C.2   157  ARG157      0.2592
    159  O        107.6090   12.7750   43.2530 O.2   157  ARG157     -0.2718
    160  CB       109.3140   10.6680   44.6400 C.3   157  ARG157      0.0321
    161  CG       108.9970   10.8500   46.1150 C.3   157  ARG157      0.0489
    162  CD       108.5100    9.6030   46.8540 C.3   157  ARG157      0.2205
    163  NE       108.3870    9.9190   48.2860 N.pl3 157  ARG157     -0.0865
    164  CZ       109.3780    9.8380   49.1740 C.cat 157  ARG157      0.5346
    165  NH1      110.5910    9.4440   48.8060 N.pl3 157  ARG157      0.1354
    166  NH2      109.1590   10.1830   50.4360 N.pl3 157  ARG157      0.1354
    167  N        108.6900   13.9580   44.8550 N.am  158  ASN158     -0.1974
    168  CA       107.6170   14.9210   45.1020 C.3   158  ASN158      0.1688
    169  C        107.9700   16.3230   44.6060 C.2   158  ASN158      0.2292
    170  O        107.2680   17.2960   44.8950 O.2   158  ASN158     -0.2864
    171  CB       107.2630   14.9490   46.6050 C.3   158  ASN158      0.1181
    172  CG       106.4970   13.7080   47.0530 C.2   158  ASN158      0.2629
    173  OD1      105.8240   13.0590   46.2550 O.2   158  ASN158     -0.2716
    174  ND2      106.5900   13.3760   48.3330 N.am  158  ASN158     -0.0877
    175  N        108.7290   18.2540   40.8970 N.3   160  MET160     -0.1245
    176  CA       108.3110   18.0840   39.4970 C.3   160  MET160      0.1570
    177  C        109.1630   18.9380   38.5510 C.2   160  MET160      0.2261
    178  O        109.6390   19.9980   38.9340 O.2   160  MET160     -0.2867
    179  CB       106.8350   18.4410   39.3260 C.3   160  MET160      0.0387
    180  CG       105.8950   17.5640   40.1120 C.3   160  MET160      0.0595
    181  SD       105.8620   15.8350   39.5840 S.3   160  MET160     -0.1393
    182  CE       105.3530   15.9960   37.8970 C.3   160  MET160      0.0692
    183  N        105.9680   19.6800   44.5270 N.3   170  GLY170     -0.1210
    184  CA       104.7360   18.9710   44.2100 C.3   170  GLY170      0.1956
    185  C        104.0570   18.3030   45.4030 C.2   170  GLY170      0.2612
    186  O        104.0270   18.8470   46.5050 O.2   170  GLY170     -0.2717
    187  N        103.5510   17.1000   45.1430 N.am  171  ASP171     -0.1959
    188  CA       102.6960   16.3020   46.0180 C.3   171  ASP171      0.1840
    189  C        103.0520   16.2790   47.5260 C.2   171  ASP171      0.2622
    190  O        104.1210   15.7920   47.9350 O.2   171  ASP171     -0.2715
    191  CB       102.6640   14.8810   45.4210 C.3   171  ASP171      0.1450
    192  CG       101.5340   14.0160   45.9550 C.2   171  ASP171      0.3671
    193  OD1      100.7540   14.4210   46.8500 O.co2 171  ASP171     -0.2456
    194  OD2      101.3650   12.8720   45.5200 O.co2 171  ASP171     -0.2456
    195  N        102.1510   16.8160   48.3420 N.am  172  PHE172     -0.1960
    196  CA       102.3040   16.8150   49.8100 C.3   172  PHE172      0.1771
    197  C        101.2380   15.9340   50.4840 C.2   172  PHE172      0.2620
    198  O        101.1350   15.8840   51.7220 O.2   172  PHE172     -0.2715
    199  CB       102.2290   18.2420   50.3460 C.3   172  PHE172      0.0574
    200  CG       101.0150   18.9780   49.8900 C.ar  172  PHE172     -0.0200
    201  CD1      101.0290   19.7000   48.7070 C.ar  172  PHE172     -0.0042
    202  CD2       99.8410   18.9330   50.6340 C.ar  172  PHE172     -0.0042
    203  CE1       99.9000   20.3660   48.2760 C.ar  172  PHE172     -0.0003
    204  CE2       98.7070   19.6070   50.2080 C.ar  172  PHE172     -0.0003
    205  CZ        98.7310   20.3230   49.0420 C.ar  172  PHE172     -0.0000
    206  N        100.4370   15.2520   49.6640 N.am  173  GLY173     -0.1954
    207  CA        99.3090   14.4860   50.1590 C.3   173  GLY173      0.1869
    208  C         99.5950   13.1210   50.7640 C.2   173  GLY173      0.2309
    209  O         98.7650   12.6090   51.5040 O.2   173  GLY173     -0.2863
@<TRIPOS>BOND
     1   135   133    1
     2   133   132    1
     3   133   134    1
     4     8     6    1
     5   132   129    1
     6   131   130    2
     7     6     7    1
     8     6     5    1
     9   138   139    2
    10   138   137    1
    11   129   130    1
    12   129   128    1
    13   130   136   am
    14     1     2    1
    15    50    51    1
    16     2     5    1
    17     2     3    1
    18   144   145    1
    19   128   121   am
    20   136   137    1
    21   137   140    1
    22    51    52    1
    23    51    54    1
    24     3     4    2
    25     3     9   am
    26   145   146    1
    27    46    45    2
    28    52    53    2
    29   121   120    1
    30   121   122    2
    31   114   113    2
    32   140   141    1
    33   124   123    1
    34   124   125    1
    35   120   123    1
    36   120   119    1
    37    45    44    1
    38   127   125   ar
    39     9    10    1
    40   146   147    2
    41   146   148   am
    42   113   119   am
    43   113   112    1
    44   142   141    1
    45   142   143    1
    46   125   126   ar
    47    48    47    1
    48    10    11    1
    49   111   112    1
    50   148   149    1
    51    44    47    1
    52    44    43    1
    53   182   181    1
    54   112   115    1
    55   151   150    2
    56    47    49    1
    57   177   178    2
    58   177   176    1
    59    55    56    1
    60    11    12    2
    61    11    13   am
    62   154   153   ar
    63   115   116    1
    64   150   149    1
    65   149   152    1
    66   107   106    2
    67   179   176    1
    68   179   180    1
    69   176   175    1
    70   106   105    1
    71   181   180    1
    72   153   152    1
    73   153   155   ar
    74    56    57    1
    75    56    59    1
    76    13    14    1
    77   118   117    1
    78   102   101    1
    79    57    58    2
    80   116   117    1
    81   104   105    1
    82   103   101    1
    83   105   108    1
    84    59    60    1
    85   101    98    1
    86    14    17    1
    87    14    15    1
    88    98    99    1
    89    98    97    1
    90    17    18    1
    91    99   100    2
    92    60    61    1
    93   108   109    1
    94   108   110    1
    95    15    16    2
    96    15    22   am
    97    18    19    1
    98    20    19    2
    99    22    23    1
   100    19    21   am
   101    61    62    1
   102   159   158    2
   103    96    95    1
   104    62    63    1
   105    74    73   ar
   106    74    72   ar
   107   157   158    1
   108   157   156    1
   109   157   160    1
   110    23    24    1
   111   158   167   am
   112   184   183    1
   113   184   185    1
   114    73    71   ar
   115   169   170    2
   116   169   168    1
   117   160   161    1
   118    35    34    2
   119    34    33    1
   120    95    94    1
   121    72    70   ar
   122   167   168    1
   123    29    28    2
   124   168   171    1
   125    24    25    2
   126    24    26   am
   127   187   185   am
   128   187   188    1
   129   185   186    2
   130   191   192    1
   131   191   188    1
   132   194   192   ar
   133    71    69   ar
   134    92    91    2
   135    26    27    1
   136    93    94    1
   137    93    90    1
   138   192   193   ar
   139   188   189    1
   140   161   162    1
   141    28    32   am
   142    28    27    1
   143    70    69   ar
   144    36    33    1
   145    36    37    1
   146    33    32    1
   147    88    85    1
   148   173   172    2
   149    91    90    1
   150    69    68    1
   151   171   172    1
   152    27    30    1
   153   162   163    1
   154    87    86    2
   155    90    89    1
   156    31    30    1
   157   172   174   am
   158    85    86    1
   159    85    84    1
   160   189   190    2
   161   189   195   am
   162    37    39   ar
   163    37    38   ar
   164    68    65    1
   165    39    41   ar
   166    67    66    2
   167   203   201   ar
   168   203   205   ar
   169   163   164    2
   170   195   196    1
   171    38    40   ar
   172    84    77   am
   173    66    65    1
   174   201   200   ar
   175   165   164    1
   176    65    64    1
   177   205   204   ar
   178   164   166    1
   179    41    42   ar
   180    78    77    2
   181    77    76    1
   182   206   207    1
   183   206   197   am
   184    40    42   ar
   185   196   199    1
   186   196   197    1
   187   200   199    1
   188   200   202   ar
   189   207   208    1
   190   204   202   ar
   191   197   198    2
   192    79    76    1
   193    79    80    1
   194    76    75    1
   195   208   209    2
   196    82    81   ar
   197    81    80    1
   198    81    83   ar
