@<TRIPOS>MOLECULE
tmp/5hzoB00.pdb
 95 93 0 0 0
SMALL
GASTEIGER

@<TRIPOS>ATOM
      1  N         32.7930   33.6660   66.8960 N.3    77  ARG77      -0.1231
      2  CA        31.4670   33.0660   67.1290 C.3    77  ARG77       0.1694
      3  C         30.4390   34.0700   67.6410 C.2    77  ARG77       0.2592
      4  O         29.2830   33.7350   67.8560 O.2    77  ARG77      -0.2718
      5  CB        31.5870   31.9150   68.1200 C.3    77  ARG77       0.0321
      6  CG        32.5420   30.8090   67.6920 C.3    77  ARG77       0.0489
      7  CD        31.9700   29.9680   66.5640 C.3    77  ARG77       0.2205
      8  NE        30.7470   29.2940   66.9860 N.pl3  77  ARG77      -0.0865
      9  CZ        29.9500   28.5950   66.1800 C.cat  77  ARG77       0.5346
     10  NH1       30.2590   28.4560   64.8970 N.pl3  77  ARG77       0.1354
     11  NH2       28.8390   28.0280   66.6600 N.pl3  77  ARG77       0.1354
     12  N         30.8910   35.3000   67.8330 N.am   78  HIS78      -0.1976
     13  CA        30.0710   36.4200   68.2630 C.3    78  HIS78       0.1656
     14  C         29.7730   37.3460   67.1030 C.2    78  HIS78       0.2291
     15  O         29.4700   38.5110   67.2980 O.2    78  HIS78      -0.2864
     16  CB        30.8100   37.1700   69.3800 C.3    78  HIS78       0.0771
     17  CG        30.9750   36.3470   70.6220 C.ar   78  HIS78       0.0820
     18  ND1       30.0380   36.3350   71.6290 N.ar   78  HIS78      -0.2267
     19  CD2       31.9160   35.4410   70.9780 C.ar   78  HIS78       0.1154
     20  CE1       30.4250   35.5060   72.5820 C.ar   78  HIS78       0.1986
     21  NE2       31.5520   34.9340   72.2010 N.ar   78  HIS78      -0.2212
     22  N         22.4690   40.7510   72.5470 N.3   151  ALA151     -0.1245
     23  CA        21.5350   39.8330   71.9090 C.3   151  ALA151      0.1562
     24  C         19.9970   40.2010   71.9860 C.2   151  ALA151      0.2260
     25  O         19.5430   40.9890   72.7990 O.2   151  ALA151     -0.2867
     26  CB        21.7940   38.4190   72.4460 C.3   151  ALA151      0.0290
     27  N         17.2970   37.2100   71.9560 N.3   153  LYS153     -0.1245
     28  CA        16.9580   35.7790   71.7300 C.3   153  LYS153      0.1561
     29  C         15.5810   35.6530   71.0710 C.2   153  LYS153      0.2260
     30  O         15.4180   34.8310   70.1560 O.2   153  LYS153     -0.2867
     31  CB        17.0030   34.9440   73.0230 C.3   153  LYS153      0.0271
     32  CG        18.2770   35.2100   73.7830 C.3   153  LYS153      0.0035
     33  CD        19.2470   34.2150   73.1540 C.3   153  LYS153      0.0206
     34  CE        20.2600   33.9330   74.2530 C.3   153  LYS153      0.1093
     35  NZ        21.2980   34.9990   74.3370 N.3   153  LYS153     -0.1314
     36  N         22.0970   31.3870   62.9540 N.3   190  VAL190     -0.1231
     37  CA        22.7310   32.7030   63.1140 C.3   190  VAL190      0.1692
     38  C         23.3270   32.7980   64.5330 C.2   190  VAL190      0.2592
     39  O         22.8960   32.0870   65.4370 O.2   190  VAL190     -0.2718
     40  CB        21.7360   33.8730   62.9520 C.3   190  VAL190      0.0266
     41  CG1       21.2600   33.9720   61.5300 C.3   190  VAL190      0.0020
     42  CG2       20.5750   33.7230   63.9190 C.3   190  VAL190      0.0020
     43  N         24.3070   33.6740   64.7300 N.am  191  LEU191     -0.1966
     44  CA        25.0350   33.7080   65.9900 C.3   191  LEU191      0.1728
     45  C         24.5220   34.8650   66.8460 C.2   191  LEU191      0.2616
     46  O         24.6110   36.0400   66.4470 O.2   191  LEU191     -0.2715
     47  CB        26.5520   33.8150   65.7410 C.3   191  LEU191      0.0311
     48  CG        27.1220   32.7140   64.8370 C.3   191  LEU191      0.0022
     49  CD1       28.5700   33.0020   64.5650 C.3   191  LEU191      0.0001
     50  CD2       27.0100   31.3300   65.4400 C.3   191  LEU191      0.0001
     51  N         23.9630   34.5190   68.0110 N.am  192  LEU192     -0.1964
     52  CA        23.5210   35.5100   69.0060 C.3   192  LEU192      0.1713
     53  C         24.6870   35.7260   69.9590 C.2   192  LEU192      0.2458
     54  O         25.0520   34.8030   70.6650 O.2   192  LEU192     -0.2730
     55  CB        22.2530   35.0580   69.7650 C.3   192  LEU192      0.0310
     56  CG        21.1250   34.6250   68.8260 C.3   192  LEU192      0.0022
     57  CD1       19.8600   34.2570   69.5720 C.3   192  LEU192      0.0001
     58  CD2       20.8350   35.6880   67.7650 C.3   192  LEU192      0.0001
     59  N         25.2830   36.9480   69.9530 N.am  193  PRO193     -0.2716
     60  CA        26.4650   37.2550   70.7420 C.3   193  PRO193      0.1536
     61  C         26.2030   37.5190   72.2140 C.2   193  PRO193      0.2599
     62  O         25.0830   37.8860   72.5960 O.2   193  PRO193     -0.2715
     63  CB        26.9520   38.5500   70.0970 C.3   193  PRO193      0.0310
     64  CG        25.6970   39.2320   69.7120 C.3   193  PRO193      0.0237
     65  CD        24.9320   38.1050   69.1020 C.3   193  PRO193      0.0939
     66  N         27.2390   37.2670   73.0140 N.am  194  ASP194     -0.1958
     67  CA        27.4550   37.9500   74.2710 C.3   194  ASP194      0.1840
     68  C         27.6490   39.4500   73.9350 C.2   194  ASP194      0.2622
     69  O         28.0630   39.7960   72.8430 O.2   194  ASP194     -0.2715
     70  CB        28.6980   37.3700   74.9890 C.3   194  ASP194      0.1450
     71  CG        28.7850   37.7730   76.4940 C.2   194  ASP194      0.3671
     72  OD1       27.7310   38.1260   77.0960 O.co2 194  ASP194     -0.2456
     73  OD2       29.9140   37.7130   77.0840 O.co2 194  ASP194     -0.2456
     74  N         27.3490   40.3250   74.8850 N.am  195  ASN195     -0.1972
     75  CA        27.4800   41.7550   74.7030 C.3   195  ASN195      0.1688
     76  C         28.9080   42.1190   74.3290 C.2   195  ASN195      0.2292
     77  O         29.8660   41.5130   74.8340 O.2   195  ASN195     -0.2864
     78  CB        27.1660   42.4990   76.0060 C.3   195  ASN195      0.1181
     79  CG        25.7130   42.4210   76.4270 C.2   195  ASN195      0.2629
     80  OD1       24.9710   41.5060   76.0710 O.2   195  ASN195     -0.2716
     81  ND2       25.3120   43.3790   77.2370 N.am  195  ASN195     -0.0877
     82  N         36.8330   35.8320   77.1000 N.3   228  HIS228     -0.1226
     83  CA        36.5170   34.6930   78.0050 C.3   228  HIS228      0.1752
     84  C         36.5090   33.2660   77.4330 C.2   228  HIS228      0.2596
     85  O         37.0940   32.3690   78.0560 O.2   228  HIS228     -0.2718
     86  CB        35.2170   34.9330   78.7650 C.3   228  HIS228      0.0759
     87  CG        34.0290   35.1500   77.8940 C.ar  228  HIS228      0.0818
     88  ND1       33.4800   36.3980   77.6910 N.ar  228  HIS228     -0.2268
     89  CD2       33.2750   34.2850   77.1810 C.ar  228  HIS228      0.1154
     90  CE1       32.4390   36.2920   76.8850 C.ar  228  HIS228      0.1986
     91  NE2       32.2970   35.0210   76.5550 N.ar  228  HIS228     -0.2212
     92  N         35.8470   33.0350   76.2970 N.am  229  GLY229     -0.1957
     93  CA        35.8090   31.6910   75.6580 C.3   229  GLY229      0.1869
     94  C         34.4900   30.9520   75.8220 C.2   229  GLY229      0.2309
     95  O         33.4130   31.5370   75.6570 O.2   229  GLY229     -0.2863
@<TRIPOS>BOND
     1    41    40    1
     2    40    37    1
     3    40    42    1
     4    36    37    1
     5    37    38    1
     6    38    43   am
     7    38    39    2
     8    49    48    1
     9    43    44    1
    10    48    50    1
    11    48    47    1
    12    10     9    1
    13    47    44    1
    14    44    45    1
    15     9    11    1
    16     9     8    2
    17    46    45    2
    18     7     8    1
    19     7     6    1
    20    45    51   am
    21     1     2    1
    22    14    15    2
    23    14    13    1
    24     2     3    1
    25     2     5    1
    26     3    12   am
    27     3     4    2
    28     6     5    1
    29    58    56    1
    30    12    13    1
    31    51    52    1
    32    13    16    1
    33    56    57    1
    34    56    55    1
    35    52    55    1
    36    52    53    1
    37    65    64    1
    38    65    59    1
    39    16    17    1
    40    64    63    1
    41    59    53   am
    42    59    60    1
    43    53    54    2
    44    63    60    1
    45    30    29    2
    46    17    19   ar
    47    17    18   ar
    48    60    61    1
    49    19    21   ar
    50    29    28    1
    51    18    20   ar
    52    28    27    1
    53    28    31    1
    54    23    24    1
    55    23    26    1
    56    23    22    1
    57    24    25    2
    58    21    20   ar
    59    61    62    2
    60    61    66   am
    61    69    68    2
    62    66    67    1
    63    31    32    1
    64    33    32    1
    65    33    34    1
    66    68    67    1
    67    68    74   am
    68    34    35    1
    69    67    70    1
    70    76    75    1
    71    76    77    2
    72    75    74    1
    73    75    78    1
    74    70    71    1
    75    95    94    2
    76    93    94    1
    77    93    92    1
    78    78    79    1
    79    80    79    2
    80    92    84   am
    81    79    81   am
    82    71    73   ar
    83    71    72   ar
    84    91    90   ar
    85    91    89   ar
    86    90    88   ar
    87    82    83    1
    88    89    87   ar
    89    84    83    1
    90    84    85    2
    91    88    87   ar
    92    87    86    1
    93    83    86    1
