@<TRIPOS>MOLECULE
tmp/5hzoB01.pdb
 120 116 0 0 0
SMALL
GASTEIGER

@<TRIPOS>ATOM
      1  N         27.2720   63.7360   56.9330 N.3    58  PRO58      -0.2116
      2  CA        27.7000   62.9680   58.0930 C.3    58  PRO58       0.1372
      3  C         26.5140   62.2710   58.7690 C.2    58  PRO58       0.2244
      4  O         26.6660   61.1570   59.2870 O.2    58  PRO58      -0.2868
      5  CB        28.3100   64.0340   59.0120 C.3    58  PRO58       0.0268
      6  CG        28.6290   65.1960   58.1360 C.3    58  PRO58       0.0207
      7  CD        27.5260   65.1760   57.1240 C.3    58  PRO58       0.0892
      8  N         25.6510   58.7370   57.3580 N.3    61  VAL61      -0.1231
      9  CA        26.7720   57.7880   57.2700 C.3    61  VAL61       0.1692
     10  C         26.5320   56.4240   57.9310 C.2    61  VAL61       0.2592
     11  O         26.8900   55.3780   57.3830 O.2    61  VAL61      -0.2718
     12  CB        28.0100   58.4120   57.9260 C.3    61  VAL61       0.0266
     13  CG1       29.0960   57.3780   58.1640 C.3    61  VAL61       0.0020
     14  CG2       28.5270   59.5400   57.0700 C.3    61  VAL61       0.0020
     15  N         25.9950   56.4570   59.1520 N.am   62  THR62      -0.1953
     16  CA        25.7210   55.2370   59.9040 C.3    62  THR62       0.1897
     17  C         24.6530   54.4500   59.1870 C.2    62  THR62       0.2313
     18  O         24.6290   53.2240   59.2280 O.2    62  THR62      -0.2863
     19  CB        25.2120   55.5390   61.3100 C.3    62  THR62       0.1794
     20  OG1       24.1880   56.5100   61.2370 O.3    62  THR62      -0.2208
     21  CG2       26.3160   56.0970   62.1560 C.3    62  THR62       0.0378
     22  N         29.9360   69.7440   60.7210 N.3   139  GLU139     -0.1245
     23  CA        31.1720   69.6700   59.9450 C.3   139  GLU139      0.1567
     24  C         31.3070   68.3610   59.1880 C.2   139  GLU139      0.2260
     25  O         30.9140   67.2860   59.6580 O.2   139  GLU139     -0.2867
     26  CB        32.3890   69.8330   60.8470 C.3   139  GLU139      0.0388
     27  CG        32.5470   71.2420   61.3840 C.3   139  GLU139      0.1160
     28  CD        33.6190   71.3250   62.4390 C.2   139  GLU139      0.3649
     29  OE1       34.1940   70.2520   62.7220 O.co2 139  GLU139     -0.2457
     30  OE2       33.8630   72.4430   62.9780 O.co2 139  GLU139     -0.2457
     31  N         33.1440   65.7580   58.7220 N.3   141  ASN141     -0.1225
     32  CA        34.2080   64.9050   59.2430 C.3   141  ASN141      0.1785
     33  C         33.6340   63.6740   59.8610 C.2   141  ASN141      0.2597
     34  O         32.4210   63.6340   60.1550 O.2   141  ASN141     -0.2718
     35  CB        35.0450   65.6350   60.2800 C.3   141  ASN141      0.1169
     36  CG        34.1990   66.4140   61.2410 C.2   141  ASN141      0.2627
     37  OD1       33.1760   65.9230   61.7200 O.2   141  ASN141     -0.2716
     38  ND2       34.5960   67.6490   61.5090 N.am  141  ASN141     -0.0877
     39  N         34.5080   62.6760   60.0190 N.am  142  TYR142     -0.1962
     40  CA        34.1550   61.4000   60.6250 C.3   142  TYR142      0.1771
     41  C         34.8890   61.3200   61.9360 C.2   142  TYR142      0.2619
     42  O         36.0000   61.8620   62.0470 O.2   142  TYR142     -0.2715
     43  CB        34.5870   60.2560   59.7240 C.3   142  TYR142      0.0574
     44  CG        34.1520   58.8410   60.1280 C.ar  142  TYR142     -0.0198
     45  CD1       34.4940   58.2810   61.3690 C.ar  142  TYR142     -0.0009
     46  CD2       33.4590   58.0280   59.2230 C.ar  142  TYR142     -0.0009
     47  CE1       34.1400   56.9790   61.7040 C.ar  142  TYR142      0.0417
     48  CE2       33.0960   56.7190   59.5590 C.ar  142  TYR142      0.0417
     49  CZ        33.4430   56.1990   60.7920 C.ar  142  TYR142      0.1957
     50  OH        33.0770   54.9060   61.1050 O.3   142  TYR142     -0.2866
     51  N         34.2830   60.6310   62.9100 N.am  143  ASN143     -0.1972
     52  CA        34.8840   60.3850   64.2160 C.3   143  ASN143      0.1688
     53  C         34.8630   58.9360   64.7110 C.2   143  ASN143      0.2292
     54  O         34.0440   58.1210   64.3260 O.2   143  ASN143     -0.2864
     55  CB        34.1660   61.2250   65.2120 C.3   143  ASN143      0.1181
     56  CG        34.9100   62.4720   65.5330 C.2   143  ASN143      0.2629
     57  OD1       35.9120   62.4150   66.2430 O.2   143  ASN143     -0.2716
     58  ND2       34.4220   63.6200   65.0400 N.am  143  ASN143     -0.0877
     59  N         33.9130   55.9620   67.1190 N.3   145  HIS145     -0.1241
     60  CA        32.8160   55.6160   67.9980 C.3   145  HIS145      0.1621
     61  C         32.9050   54.1510   68.3580 C.2   145  HIS145      0.2264
     62  O         33.5690   53.3610   67.6740 O.2   145  HIS145     -0.2867
     63  CB        31.4690   55.9330   67.3440 C.3   145  HIS145      0.0745
     64  CG        31.1750   57.3930   67.2870 C.ar  145  HIS145      0.0817
     65  ND1       31.5850   58.2020   66.2460 N.ar  145  HIS145     -0.2268
     66  CD2       30.5610   58.2040   68.1700 C.ar  145  HIS145      0.1154
     67  CE1       31.2080   59.4440   66.4790 C.ar  145  HIS145      0.1986
     68  NE2       30.5970   59.4720   67.6470 N.ar  145  HIS145     -0.2212
     69  N         26.1100   59.0990   68.2360 N.3   164  ILE164     -0.1231
     70  CA        26.9900   59.8060   67.3260 C.3   164  ILE164      0.1692
     71  C         27.1300   61.2790   67.8080 C.2   164  ILE164      0.2592
     72  O         26.1750   61.9390   68.1670 O.2   164  ILE164     -0.2718
     73  CB        26.5150   59.7050   65.8490 C.3   164  ILE164      0.0266
     74  CG1       26.4210   58.2440   65.4080 C.3   164  ILE164      0.0019
     75  CG2       27.4450   60.4890   64.9340 C.3   164  ILE164      0.0020
     76  CD1       27.7500   57.5410   65.3360 C.3   164  ILE164      0.0001
     77  N         28.3460   61.7730   67.7320 N.am  165  ARG165     -0.1966
     78  CA        28.7060   63.0790   68.1690 C.3   165  ARG165      0.1729
     79  C         29.1740   63.7920   66.9220 C.2   165  ARG165      0.2616
     80  O         30.3260   63.7060   66.5260 O.2   165  ARG165     -0.2715
     81  CB        29.8350   62.9730   69.1980 C.3   165  ARG165      0.0348
     82  CG        29.4010   62.3070   70.4960 C.3   165  ARG165      0.0492
     83  CD        30.6030   61.9940   71.3740 C.3   165  ARG165      0.2205
     84  NE        31.3190   60.7910   70.9420 N.pl3 165  ARG165     -0.0865
     85  CZ        32.5270   60.7530   70.3600 C.cat 165  ARG165      0.5346
     86  NH1       33.2390   61.8550   70.0980 N.pl3 165  ARG165      0.1354
     87  NH2       33.0430   59.5770   70.0300 N.pl3 165  ARG165      0.1354
     88  N         28.2530   64.4510   66.2610 N.am  166  HIS166     -0.1959
     89  CA        28.6250   65.3210   65.1690 C.3   166  HIS166      0.1787
     90  C         29.1900   66.6000   65.7330 C.2   166  HIS166      0.2620
     91  O         28.7500   67.1090   66.7590 O.2   166  HIS166     -0.2715
     92  CB        27.4190   65.6740   64.3380 C.3   166  HIS166      0.0785
     93  CG        26.7160   64.4910   63.7960 C.ar  166  HIS166      0.0821
     94  ND1       27.2650   63.6900   62.8300 N.ar  166  HIS166     -0.2267
     95  CD2       25.5040   63.9700   64.0790 C.ar  166  HIS166      0.1154
     96  CE1       26.4220   62.7200   62.5340 C.ar  166  HIS166      0.1986
     97  NE2       25.3430   62.8690   63.2780 N.ar  166  HIS166     -0.2212
     98  N         30.1640   67.1180   65.0280 N.am  167  ASN167     -0.1972
     99  CA        30.7160   68.3970   65.3350 C.3   167  ASN167      0.1688
    100  C         29.9120   69.4560   64.6370 C.2   167  ASN167      0.2292
    101  O         29.7070   69.3810   63.4300 O.2   167  ASN167     -0.2864
    102  CB        32.1410   68.4380   64.8350 C.3   167  ASN167      0.1181
    103  CG        32.9320   67.2560   65.3270 C.2   167  ASN167      0.2629
    104  OD1       33.1130   67.0870   66.5410 O.2   167  ASN167     -0.2716
    105  ND2       33.3710   66.3940   64.3910 N.am  167  ASN167     -0.0877
    106  N         35.0970   52.1270   65.7940 N.3   200  THR200     -0.1218
    107  CA        35.2290   52.6970   64.4400 C.3   200  THR200      0.1862
    108  C         36.2560   53.8060   64.3220 C.2   200  THR200      0.2287
    109  O         36.4400   54.6020   65.2390 O.2   200  THR200     -0.2866
    110  CB        33.9350   53.3370   63.9430 C.3   200  THR200      0.1770
    111  OG1       33.8210   54.6520   64.5130 O.3   200  THR200     -0.2211
    112  CG2       32.7580   52.4800   64.3030 C.3   200  THR200      0.0375
    113  N         35.7940   61.3190   55.9120 N.3   204  LEU204     -0.1245
    114  CA        34.9970   61.7840   54.7980 C.3   204  LEU204      0.1561
    115  C         35.9030   62.6130   53.8960 C.2   204  LEU204      0.2260
    116  O         36.7560   63.3680   54.3910 O.2   204  LEU204     -0.2867
    117  CB        33.8340   62.6610   55.2870 C.3   204  LEU204      0.0270
    118  CG        33.0210   62.1350   56.4640 C.3   204  LEU204      0.0019
    119  CD1       31.7290   62.8850   56.4540 C.3   204  LEU204      0.0001
    120  CD2       32.7550   60.6440   56.3890 C.3   204  LEU204      0.0001
@<TRIPOS>BOND
     1   115   116    2
     2   115   114    1
     3   114   117    1
     4   114   113    1
     5   117   118    1
     6   120   118    1
     7   119   118    1
     8     1     7    1
     9     1     2    1
    10    14    12    1
    11     7     6    1
    12     9     8    1
    13     9    12    1
    14     9    10    1
    15    11    10    2
    16    12    13    1
    17    10    15   am
    18     2     3    1
    19     2     5    1
    20     6     5    1
    21    31    32    1
    22     3     4    2
    23    15    16    1
    24    17    18    2
    25    17    16    1
    26    24    25    2
    27    24    23    1
    28    46    48   ar
    29    46    44   ar
    30    32    33    1
    31    32    35    1
    32    48    49   ar
    33    43    44    1
    34    43    40    1
    35    33    39   am
    36    33    34    2
    37    16    19    1
    38    23    22    1
    39    23    26    1
    40    39    40    1
    41    44    45   ar
    42    35    36    1
    43    40    41    1
    44    49    50    1
    45    49    47   ar
    46    26    27    1
    47    20    19    1
    48    36    38   am
    49    36    37    2
    50    19    21    1
    51    45    47   ar
    52    27    28    1
    53    41    42    2
    54    41    51   am
    55    28    29   ar
    56    28    30   ar
    57    96    94   ar
    58    96    97   ar
    59    94    93   ar
    60    51    52    1
    61    97    95   ar
    62   101   100    2
    63    93    95   ar
    64    93    92    1
    65   110   112    1
    66   110   107    1
    67   110   111    1
    68    52    53    1
    69    52    55    1
    70   108   107    1
    71   108   109    2
    72    54    53    2
    73    92    89    1
    74   105   103   am
    75   107   106    1
    76   100    99    1
    77   102   103    1
    78   102    99    1
    79    75    73    1
    80    98    99    1
    81    98    90   am
    82    58    56   am
    83    89    90    1
    84    89    88    1
    85    55    56    1
    86   103   104    2
    87    76    74    1
    88    74    73    1
    89    56    57    2
    90    90    91    2
    91    73    70    1
    92    65    67   ar
    93    65    64   ar
    94    88    79   am
    95    67    68   ar
    96    80    79    2
    97    79    78    1
    98    59    60    1
    99    64    63    1
   100    64    66   ar
   101    70    71    1
   102    70    69    1
   103    63    60    1
   104    68    66   ar
   105    62    61    2
   106    77    71   am
   107    77    78    1
   108    71    72    2
   109    60    61    1
   110    78    81    1
   111    81    82    1
   112    87    85    1
   113    86    85    1
   114    85    84    2
   115    82    83    1
   116    84    83    1
