@<TRIPOS>MOLECULE
tmp/5hzqA00.pdb
 172 157 0 0 0
SMALL
GASTEIGER

@<TRIPOS>ATOM
      1  N         15.7210   -6.8500   -6.7140 N.3    17  PHE17      -0.1241
      2  CA        15.7200   -6.7020   -8.1670 C.3    17  PHE17       0.1605
      3  C         17.0780   -6.3150   -8.7010 C.2    17  PHE17       0.2264
      4  O         17.6560   -7.0370   -9.5480 O.2    17  PHE17      -0.2867
      5  CB        14.6490   -5.7210   -8.6550 C.3    17  PHE17       0.0534
      6  CG        14.6210   -5.5880  -10.1500 C.ar   17  PHE17      -0.0203
      7  CD1       14.3810   -6.7040  -10.9450 C.ar   17  PHE17      -0.0042
      8  CD2       14.9240   -4.3900  -10.7570 C.ar   17  PHE17      -0.0042
      9  CE1       14.3890   -6.6100  -12.3360 C.ar   17  PHE17      -0.0003
     10  CE2       14.9220   -4.2720  -12.1400 C.ar   17  PHE17      -0.0003
     11  CZ        14.6500   -5.3730  -12.9310 C.ar   17  PHE17      -0.0000
     12  N         20.0970   -8.5180  -11.0470 N.3    21  LEU21      -0.1245
     13  CA        20.7900   -8.0600  -12.2420 C.3    21  LEU21       0.1561
     14  C         22.2980   -7.9840  -12.0370 C.2    21  LEU21       0.2260
     15  O         23.0680   -8.2900  -12.9560 O.2    21  LEU21      -0.2867
     16  CB        20.2860   -6.6700  -12.6650 C.3    21  LEU21       0.0270
     17  CG        18.7860   -6.5800  -12.9650 C.3    21  LEU21       0.0019
     18  CD1       18.4380   -5.2070  -13.4900 C.3    21  LEU21       0.0001
     19  CD2       18.3150   -7.6700  -13.9270 C.3    21  LEU21       0.0001
     20  N         24.9970   -7.6180  -15.1210 N.3    26  VAL26      -0.1245
     21  CA        24.4930   -6.4180  -15.7930 C.3    26  VAL26       0.1561
     22  C         25.2400   -5.1780  -15.2770 C.2    26  VAL26       0.2260
     23  O         25.3330   -4.9480  -14.0750 O.2    26  VAL26      -0.2867
     24  CB        22.9670   -6.2500  -15.6000 C.3    26  VAL26       0.0252
     25  CG1       22.4730   -4.9860  -16.2890 C.3    26  VAL26       0.0019
     26  CG2       22.2240   -7.4810  -16.1140 C.3    26  VAL26       0.0019
     27  N         23.2200    0.2530  -16.9790 N.3    30  LEU30      -0.1245
     28  CA        22.0110   -0.4740  -17.3890 C.3    30  LEU30       0.1561
     29  C         21.1270   -0.9100  -16.2200 C.2    30  LEU30       0.2260
     30  O         19.9140   -0.9810  -16.3720 O.2    30  LEU30      -0.2867
     31  CB        22.3590   -1.7240  -18.2070 C.3    30  LEU30       0.0270
     32  CG        22.9000   -1.5220  -19.6310 C.3    30  LEU30       0.0019
     33  CD1       23.5100   -2.8090  -20.1520 C.3    30  LEU30       0.0001
     34  CD2       21.8020   -1.0550  -20.5750 C.3    30  LEU30       0.0001
     35  N         17.2150    0.0030  -15.7470 N.3    34  ALA34      -0.1245
     36  CA        16.2750   -1.0720  -15.3990 C.3    34  ALA34       0.1562
     37  C         15.4850   -0.8140  -14.1250 C.2    34  ALA34       0.2260
     38  O         14.2620   -1.0480  -14.0640 O.2    34  ALA34      -0.2867
     39  CB        17.0140   -2.4010  -15.2480 C.3    34  ALA34       0.0290
     40  N         12.9210    1.8290  -14.6950 N.3    37  ALA37      -0.1231
     41  CA        11.8490    1.2090  -15.4800 C.3    37  ALA37       0.1694
     42  C         10.9360    0.3250  -14.6320 C.2    37  ALA37       0.2591
     43  O          9.7220    0.3290  -14.8030 O.2    37  ALA37      -0.2718
     44  CB        12.4260    0.3970  -16.6260 C.3    37  ALA37       0.0304
     45  N         11.5350   -0.4130  -13.7060 N.am   38  ALA38      -0.1980
     46  CA        10.8360   -1.4170  -12.9250 C.3    38  ALA38       0.1597
     47  C         10.1190   -0.8630  -11.6910 C.2    38  ALA38       0.2287
     48  O          9.4330   -1.6010  -11.0010 O.2    38  ALA38      -0.2864
     49  CB        11.8150   -2.5070  -12.5170 C.3    38  ALA38       0.0319
     50  N          5.8930   -0.2720  -13.1480 N.3    41  PRO41      -0.2116
     51  CA         5.4860   -0.8930  -14.4010 C.3    41  PRO41       0.1372
     52  C          3.9740   -1.1070  -14.4630 C.2    41  PRO41       0.2244
     53  O          3.3350   -1.1520  -13.4200 O.2    41  PRO41      -0.2868
     54  CB         6.1950   -2.2450  -14.3460 C.3    41  PRO41       0.0268
     55  CG         6.2070   -2.5770  -12.8910 C.3    41  PRO41       0.0207
     56  CD         6.3870   -1.2640  -12.1810 C.3    41  PRO41       0.0892
     57  N          1.2730   -3.8550  -15.4800 N.3    43  VAL43      -0.1245
     58  CA         1.1540   -5.3010  -15.7090 C.3    43  VAL43       0.1561
     59  C         -0.3120   -5.6570  -15.9630 C.2    43  VAL43       0.2260
     60  O         -1.1930   -5.3350  -15.1390 O.2    43  VAL43      -0.2867
     61  CB         1.6710   -6.0980  -14.5040 C.3    43  VAL43       0.0252
     62  CG1        1.3970   -7.5860  -14.6730 C.3    43  VAL43       0.0019
     63  CG2        3.1580   -5.8290  -14.3040 C.3    43  VAL43       0.0019
     64  N          3.8160   -6.5300  -19.7510 N.3    56  THR56      -0.1218
     65  CA         4.4980   -5.7480  -18.7380 C.3    56  THR56       0.1862
     66  C          5.0770   -4.5680  -19.4950 C.2    56  THR56       0.2287
     67  O          5.8530   -4.7720  -20.4480 O.2    56  THR56      -0.2866
     68  CB         5.6110   -6.5700  -18.0750 C.3    56  THR56       0.1770
     69  OG1        5.0680   -7.7970  -17.5580 O.3    56  THR56      -0.2211
     70  CG2        6.2630   -5.8100  -16.9490 C.3    56  THR56       0.0375
     71  N          6.8790   -0.6890  -19.3880 N.3    58  THR58      -0.1218
     72  CA         7.6820    0.2880  -18.6530 C.3    58  THR58       0.1862
     73  C          7.9450    1.4120  -19.6340 C.2    58  THR58       0.2287
     74  O          7.5070    1.3490  -20.7940 O.2    58  THR58      -0.2866
     75  CB         9.0230   -0.3060  -18.1760 C.3    58  THR58       0.1770
     76  OG1        9.8740   -0.5730  -19.3010 O.3    58  THR58      -0.2211
     77  CG2        8.8080   -1.6100  -17.3910 C.3    58  THR58       0.0375
     78  N         10.6670    2.2240  -21.0660 N.3    60  VAL60      -0.1231
     79  CA        11.6120    1.8630  -22.1130 C.3    60  VAL60       0.1692
     80  C         11.2520    0.5610  -22.8300 C.2    60  VAL60       0.2591
     81  O         11.7740    0.3130  -23.9050 O.2    60  VAL60      -0.2718
     82  CB        13.0610    1.7800  -21.5770 C.3    60  VAL60       0.0266
     83  CG1       13.5250    3.1570  -21.1130 C.3    60  VAL60       0.0020
     84  CG2       13.1930    0.7700  -20.4470 C.3    60  VAL60       0.0020
     85  N         10.3350   -0.2280  -22.2670 N.am   61  ARG61      -0.1980
     86  CA        10.1650   -1.6160  -22.6910 C.3    61  ARG61       0.1597
     87  C          8.7270   -2.1190  -22.5570 C.2    61  ARG61       0.2287
     88  O          8.0570   -1.8410  -21.5590 O.2    61  ARG61      -0.2864
     89  CB        11.0920   -2.5130  -21.8610 C.3    61  ARG61       0.0334
     90  CG        11.1480   -3.9640  -22.2970 C.3    61  ARG61       0.0492
     91  CD        12.2280   -4.7200  -21.5280 C.3    61  ARG61       0.2205
     92  NE        13.5380   -4.5680  -22.1600 N.pl3  61  ARG61      -0.0865
     93  CZ        14.2210   -5.5400  -22.7750 C.cat  61  ARG61       0.5346
     94  NH1       13.7540   -6.7860  -22.8340 N.pl3  61  ARG61       0.1354
     95  NH2       15.3970   -5.2650  -23.3290 N.pl3  61  ARG61       0.1354
     96  N         15.7700  -12.7950  -17.6660 N.3    78  VAL78      -0.1231
     97  CA        15.6360  -11.4460  -17.0970 C.3    78  VAL78       0.1692
     98  C         16.7500  -10.5060  -17.5870 C.2    78  VAL78       0.2592
     99  O         16.5380   -9.2940  -17.7230 O.2    78  VAL78      -0.2718
    100  CB        15.6000  -11.5010  -15.5440 C.3    78  VAL78       0.0266
    101  CG1       16.9540  -11.9110  -14.9720 C.3    78  VAL78       0.0020
    102  CG2       15.1540  -10.1720  -14.9480 C.3    78  VAL78       0.0020
    103  N         17.9220  -11.0650  -17.8700 N.am   79  ASP79      -0.1960
    104  CA        19.0410  -10.2710  -18.3800 C.3    79  ASP79       0.1840
    105  C         19.1480  -10.2600  -19.9170 C.2    79  ASP79       0.2622
    106  O         20.1350   -9.7780  -20.4610 O.2    79  ASP79      -0.2715
    107  CB        20.3650  -10.7200  -17.7340 C.3    79  ASP79       0.1450
    108  CG        20.7170  -12.1640  -18.0340 C.2    79  ASP79       0.3671
    109  OD1       19.8210  -13.0420  -17.9720 O.co2  79  ASP79      -0.2456
    110  OD2       21.9100  -12.4250  -18.2880 O.co2  79  ASP79      -0.2456
    111  N         18.1470  -10.7970  -20.6150 N.am   80  GLY80      -0.1954
    112  CA        18.0610  -10.6970  -22.0860 C.3    80  GLY80       0.1869
    113  C         18.6930  -11.7650  -22.9680 C.2    80  GLY80       0.2309
    114  O         19.0350  -11.5000  -24.1240 O.2    80  GLY80      -0.2863
    115  N          4.9320  -17.5440  -10.5650 N.3   113  ARG113     -0.1245
    116  CA         3.8260  -16.6320  -10.3010 C.3   113  ARG113      0.1563
    117  C          2.7570  -17.3700   -9.5040 C.2   113  ARG113      0.2260
    118  O          2.3450  -18.4890   -9.8740 O.2   113  ARG113     -0.2867
    119  CB         3.2300  -16.0520  -11.5960 C.3   113  ARG113      0.0307
    120  CG         4.1000  -15.0030  -12.2770 C.3   113  ARG113      0.0489
    121  CD         3.4150  -14.4540  -13.5320 C.3   113  ARG113      0.2205
    122  NE         4.0670  -13.2340  -14.0520 N.pl3 113  ARG113     -0.0865
    123  CZ         5.0750  -13.2010  -14.9260 C.cat 113  ARG113      0.5346
    124  NH1        5.6290  -14.3190  -15.4080 N.pl3 113  ARG113      0.1354
    125  NH2        5.5560  -12.0140  -15.3280 N.pl3 113  ARG113      0.1354
    126  N         -0.6760  -11.1270   -6.0760 N.3   121  LEU121     -0.1245
    127  CA         0.1010  -11.8140   -7.0910 C.3   121  LEU121      0.1561
    128  C          1.5560  -11.6970   -6.6700 C.2   121  LEU121      0.2260
    129  O          2.0420  -10.5870   -6.3890 O.2   121  LEU121     -0.2867
    130  CB        -0.1430  -11.1950   -8.4640 C.3   121  LEU121      0.0270
    131  CG         0.8350  -11.5200   -9.6010 C.3   121  LEU121      0.0019
    132  CD1        0.8050  -12.9870   -9.9160 C.3   121  LEU121      0.0001
    133  CD2        0.5380  -10.7180  -10.8620 C.3   121  LEU121      0.0001
    134  N          5.3710  -12.6700   -7.8420 N.3   123  LEU123     -0.1245
    135  CA         6.3240  -13.0710   -8.8630 C.3   123  LEU123      0.1561
    136  C          7.6740  -13.2770   -8.1960 C.2   123  LEU123      0.2260
    137  O          8.1160  -12.4250   -7.4180 O.2   123  LEU123     -0.2867
    138  CB         6.4620  -11.9920   -9.9230 C.3   123  LEU123      0.0270
    139  CG         7.6700  -12.0740  -10.8690 C.3   123  LEU123      0.0019
    140  CD1        7.4960  -13.2170  -11.8550 C.3   123  LEU123      0.0001
    141  CD2        7.8000  -10.7540  -11.6230 C.3   123  LEU123      0.0001
    142  N         11.7690  -14.3320   -9.4800 N.3   125  MET125     -0.1245
    143  CA        12.7200  -14.5520  -10.5650 C.3   125  MET125      0.1570
    144  C         14.0190  -14.9490   -9.8820 C.2   125  MET125      0.2261
    145  O         14.4530  -14.3020   -8.9020 O.2   125  MET125     -0.2867
    146  CB        12.9240  -13.2970  -11.3960 C.3   125  MET125      0.0387
    147  CG        11.6680  -12.7850  -12.0700 C.3   125  MET125      0.0595
    148  SD        11.9270  -11.1890  -12.8770 S.3   125  MET125     -0.1393
    149  CE        12.0820  -10.1180  -11.4550 C.3   125  MET125      0.0692
    150  N          8.5420   -9.9670   -6.1320 N.3   134  ARG134     -0.1245
    151  CA         7.7050   -8.7990   -6.3600 C.3   134  ARG134      0.1563
    152  C          6.2660   -9.1510   -6.0260 C.2   134  ARG134      0.2260
    153  O          5.7840  -10.2130   -6.3940 O.2   134  ARG134     -0.2867
    154  CB         7.8020   -8.3560   -7.8030 C.3   134  ARG134      0.0307
    155  CG         9.2100   -8.3680   -8.3620 C.3   134  ARG134      0.0489
    156  CD         9.8100   -7.0010   -8.4200 C.3   134  ARG134      0.2205
    157  NE         9.3040   -6.2460   -9.5480 N.pl3 134  ARG134     -0.0865
    158  CZ         9.6540   -4.9860   -9.7910 C.cat 134  ARG134      0.5346
    159  NH1        9.1440   -4.3540  -10.8280 N.pl3 134  ARG134      0.1354
    160  NH2       10.5330   -4.3710   -9.0020 N.pl3 134  ARG134      0.1354
    161  N          2.1850   -7.8540   -6.0810 N.3   136  TYR136     -0.1241
    162  CA         1.1960   -7.0020   -6.7300 C.3   136  TYR136      0.1605
    163  C         -0.2590   -7.2080   -6.2050 C.2   136  TYR136      0.2264
    164  O         -0.5900   -8.2490   -5.6770 O.2   136  TYR136     -0.2867
    165  CB         1.1580   -7.3190   -8.2430 C.3   136  TYR136      0.0534
    166  CG         2.4500   -7.0570   -8.9820 C.ar  136  TYR136     -0.0201
    167  CD1        2.6230   -5.8860   -9.7050 C.ar  136  TYR136     -0.0009
    168  CD2        3.4990   -7.9690   -8.9530 C.ar  136  TYR136     -0.0009
    169  CE1        3.8050   -5.6210  -10.3730 C.ar  136  TYR136      0.0417
    170  CE2        4.6900   -7.7160   -9.6190 C.ar  136  TYR136      0.0417
    171  CZ         4.8380   -6.5320  -10.3250 C.ar  136  TYR136      0.1957
    172  OH         6.0650   -6.2260  -10.9840 O.3   136  TYR136     -0.2866
@<TRIPOS>BOND
     1   114   113    2
     2    81    80    2
     3    95    93    1
     4   113   112    1
     5    94    93    1
     6    80    85   am
     7    80    79    1
     8    93    92    2
     9    86    87    1
    10    86    85    1
    11    86    89    1
    12    87    88    2
    13    90    89    1
    14    90    91    1
    15    92    91    1
    16    79    82    1
    17    79    78    1
    18   112   111    1
    19    82    83    1
    20    82    84    1
    21    74    73    2
    22   111   105   am
    23    34    32    1
    24   106   105    2
    25    67    66    2
    26    33    32    1
    27   105   104    1
    28    64    65    1
    29    73    72    1
    30    32    31    1
    31    66    65    1
    32    71    72    1
    33    76    75    1
    34    65    68    1
    35    72    75    1
    36   104   103    1
    37   104   107    1
    38   110   108   ar
    39    31    28    1
    40    75    77    1
    41    68    69    1
    42    68    70    1
    43   108   109   ar
    44   108   107    1
    45   103    98   am
    46    99    98    2
    47    96    97    1
    48    98    97    1
    49    28    27    1
    50    28    29    1
    51    97   100    1
    52    44    41    1
    53    30    29    2
    54    25    24    1
    55    26    24    1
    56    59    58    1
    57    59    60    2
    58    21    24    1
    59    21    22    1
    60    21    20    1
    61    35    36    1
    62    58    57    1
    63    58    61    1
    64   100   101    1
    65   100   102    1
    66    41    40    1
    67    41    42    1
    68   124   123    1
    69    36    39    1
    70    36    37    1
    71   125   123    1
    72    22    23    2
    73   123   122    2
    74    43    42    2
    75    62    61    1
    76    42    45   am
    77    61    63    1
    78    52    51    1
    79    52    53    2
    80    51    54    1
    81    51    50    1
    82    54    55    1
    83    37    38    2
    84   122   121    1
    85    19    17    1
    86    45    46    1
    87   121   120    1
    88    18    17    1
    89    50    56    1
    90    17    16    1
    91    15    14    2
    92    11     9   ar
    93    11    10   ar
    94    46    49    1
    95    46    47    1
    96    55    56    1
    97   148   147    1
    98   148   149    1
    99    16    13    1
   100     9     7   ar
   101   120   119    1
   102    13    14    1
   103    13    12    1
   104    10     8   ar
   105   147   146    1
   106   140   139    1
   107    47    48    2
   108   141   139    1
   109   119   116    1
   110   146   143    1
   111   172   171    1
   112     7     6   ar
   113   139   138    1
   114   133   131    1
   115   159   158    1
   116     8     6   ar
   117   115   116    1
   118   143   144    1
   119   143   142    1
   120   169   171   ar
   121   169   167   ar
   122   171   170   ar
   123   116   117    1
   124     6     5    1
   125   138   135    1
   126   132   131    1
   127   144   145    2
   128   118   117    2
   129   158   157    2
   130   158   160    1
   131   167   166   ar
   132   170   168   ar
   133   131   130    1
   134     4     3    2
   135   157   156    1
   136   166   168   ar
   137   166   165    1
   138   135   136    1
   139   135   134    1
   140     3     2    1
   141     5     2    1
   142   130   127    1
   143   156   155    1
   144   155   154    1
   145   165   162    1
   146   136   137    2
   147     2     1    1
   148   154   151    1
   149   127   128    1
   150   127   126    1
   151   162   163    1
   152   162   161    1
   153   128   129    2
   154   153   152    2
   155   151   150    1
   156   151   152    1
   157   163   164    2
