@<TRIPOS>MOLECULE
tmp/5hzrA03.pdb
 133 131 0 0 0
SMALL
GASTEIGER

@<TRIPOS>ATOM
      1  N         49.6710    9.0690   11.4680 N.3    29  PHE29      -0.1241
      2  CA        48.6170   10.0080   11.8410 C.3    29  PHE29       0.1605
      3  C         47.3920    9.2820   12.3820 C.2    29  PHE29       0.2264
      4  O         46.8080    9.7000   13.3870 O.2    29  PHE29      -0.2867
      5  CB        48.2250   10.8840   10.6490 C.3    29  PHE29       0.0534
      6  CG        46.9550   11.6610   10.8710 C.ar   29  PHE29      -0.0203
      7  CD1       46.9770   12.8640   11.5580 C.ar   29  PHE29      -0.0042
      8  CD2       45.7360   11.1790   10.4130 C.ar   29  PHE29      -0.0042
      9  CE1       45.8100   13.5740   11.7750 C.ar   29  PHE29      -0.0003
     10  CE2       44.5650   11.8860   10.6270 C.ar   29  PHE29      -0.0003
     11  CZ        44.6020   13.0860   11.3110 C.ar   29  PHE29      -0.0000
     12  N         48.1150    7.6280   15.7410 N.3    32  GLN32      -0.1231
     13  CA        48.1100    8.6300   16.7980 C.3    32  GLN32       0.1698
     14  C         46.6870    9.0430   17.1490 C.2    32  GLN32       0.2592
     15  O         46.3320    9.1510   18.3270 O.2    32  GLN32      -0.2718
     16  CB        48.9410    9.8390   16.3630 C.3    32  GLN32       0.0381
     17  CG        49.6350   10.5710   17.4970 C.3    32  GLN32       0.0905
     18  CD        48.6580   11.2470   18.4360 C.2    32  GLN32       0.2608
     19  OE1       47.6550   11.8190   18.0000 O.2    32  GLN32      -0.2717
     20  NE2       48.9370   11.1750   19.7360 N.am   32  GLN32      -0.0878
     21  N         45.8560    9.2790   16.1340 N.am   33  LEU33      -0.1980
     22  CA        44.4700    9.6550   16.3880 C.3    33  LEU33       0.1596
     23  C         43.7490    8.5890   17.2030 C.2    33  LEU33       0.2287
     24  O         42.9530    8.9080   18.0930 O.2    33  LEU33      -0.2864
     25  CB        43.7500    9.8970   15.0640 C.3    33  LEU33       0.0297
     26  CG        42.2940   10.3460   15.1390 C.3    33  LEU33       0.0022
     27  CD1       42.1630   11.5690   16.0230 C.3    33  LEU33       0.0001
     28  CD2       41.7800   10.6400   13.7430 C.3    33  LEU33       0.0001
     29  N         39.1050   20.6140   18.6240 N.3    80  ASN80      -0.1225
     30  CA        40.3130   21.2240   18.0700 C.3    80  ASN80       0.1785
     31  C         40.6460   20.6490   16.6890 C.2    80  ASN80       0.2597
     32  O         41.7900   20.2950   16.4010 O.2    80  ASN80      -0.2718
     33  CB        41.4920   21.0580   19.0450 C.3    80  ASN80       0.1169
     34  CG        42.5860   22.0710   18.8130 C.2    80  ASN80       0.2627
     35  OD1       42.3220   23.1900   18.3730 O.2    80  ASN80      -0.2716
     36  ND2       43.8260   21.6860   19.1020 N.am   80  ASN80      -0.0877
     37  N         39.6320   20.5640   15.8250 N.am   81  LEU81      -0.1966
     38  CA        39.7670   19.9550   14.5070 C.3    81  LEU81       0.1728
     39  C         39.5340   20.9690   13.3930 C.2    81  LEU81       0.2616
     40  O         38.9040   22.0090   13.5970 O.2    81  LEU81      -0.2715
     41  CB        38.7750   18.8020   14.3220 C.3    81  LEU81       0.0311
     42  CG        38.6880   17.7630   15.4370 C.3    81  LEU81       0.0022
     43  CD1       37.5470   16.7840   15.1490 C.3    81  LEU81       0.0001
     44  CD2       40.0150   17.0280   15.5840 C.3    81  LEU81       0.0001
     45  N         40.0710   20.6530   12.2100 N.am   82  ASN82      -0.1972
     46  CA        39.6530   21.2300   10.9390 C.3    82  ASN82       0.1688
     47  C         38.6920   20.2760   10.2360 C.2    82  ASN82       0.2292
     48  O         38.6460   19.0790   10.5350 O.2    82  ASN82      -0.2864
     49  CB        40.8580   21.5060   10.0420 C.3    82  ASN82       0.1181
     50  CG        41.8350   22.4650   10.6760 C.2    82  ASN82       0.2629
     51  OD1       41.4360   23.3480   11.4290 O.2    82  ASN82      -0.2716
     52  ND2       43.1200   22.3000   10.3780 N.am   82  ASN82      -0.0877
     53  N         45.8260   30.9920   11.1540 N.3   207  THR207     -0.1203
     54  CA        44.4490   30.8170   11.5870 C.3   207  THR207      0.1994
     55  C         44.4080   29.7090   12.6240 C.2   207  THR207      0.2618
     56  O         45.2590   28.8170   12.6260 O.2   207  THR207     -0.2717
     57  CB        43.5270   30.4810   10.4040 C.3   207  THR207      0.1784
     58  OG1       42.1810   30.3170   10.8690 O.3   207  THR207     -0.2211
     59  CG2       44.0010   29.2070    9.7140 C.3   207  THR207      0.0376
     60  N         43.4210   29.7780   13.5200 N.am  208  ARG208     -0.1965
     61  CA        43.2880   28.7310   14.5240 C.3   208  ARG208      0.1729
     62  C         42.4070   27.5800   14.0680 C.2   208  ARG208      0.2616
     63  O         42.6120   26.4500   14.5200 O.2   208  ARG208     -0.2715
     64  CB        42.7530   29.3100   15.8460 C.3   208  ARG208      0.0348
     65  CG        43.8600   29.9350   16.7020 C.3   208  ARG208      0.0492
     66  CD        43.4870   30.0120   18.1660 C.3   208  ARG208      0.2205
     67  NE        42.7800   28.8170   18.6260 N.pl3 208  ARG208     -0.0865
     68  CZ        43.3600   27.6540   18.9160 C.cat 208  ARG208      0.5346
     69  NH1       44.6750   27.5060   18.7870 N.pl3 208  ARG208      0.1354
     70  NH2       42.6200   26.6320   19.3320 N.pl3 208  ARG208      0.1354
     71  N         41.4410   27.8290   13.1810 N.am  209  PHE209     -0.1960
     72  CA        40.5540   26.7830   12.6910 C.3   209  PHE209      0.1771
     73  C         40.3760   26.9310   11.1890 C.2   209  PHE209      0.2619
     74  O         40.5290   28.0230   10.6270 O.2   209  PHE209     -0.2715
     75  CB        39.1880   26.8170   13.3960 C.3   209  PHE209      0.0574
     76  CG        39.2490   26.4190   14.8450 C.ar  209  PHE209     -0.0200
     77  CD1       39.2830   25.0810   15.2070 C.ar  209  PHE209     -0.0042
     78  CD2       39.2720   27.3780   15.8440 C.ar  209  PHE209     -0.0042
     79  CE1       39.3370   24.7050   16.5400 C.ar  209  PHE209     -0.0003
     80  CE2       39.3250   27.0060   17.1780 C.ar  209  PHE209     -0.0003
     81  CZ        39.3580   25.6690   17.5260 C.ar  209  PHE209     -0.0000
     82  N         40.0420   25.8110   10.5420 N.am  210  ARG210     -0.1977
     83  CA        39.8500   25.7900    9.0990 C.3   210  ARG210      0.1597
     84  C         38.6360   24.9530    8.7390 C.2   210  ARG210      0.2287
     85  O         38.3980   23.9040    9.3450 O.2   210  ARG210     -0.2864
     86  CB        41.0630   25.2230    8.3680 C.3   210  ARG210      0.0334
     87  CG        42.3330   25.9950    8.5900 C.3   210  ARG210      0.0492
     88  CD        43.5180   25.2380    8.0510 C.3   210  ARG210      0.2205
     89  NE        44.7370   26.0380    8.0800 N.pl3 210  ARG210     -0.0865
     90  CZ        45.8750   25.6730    7.5000 C.cat 210  ARG210      0.5346
     91  NH1       45.9550   24.5200    6.8440 N.pl3 210  ARG210      0.1354
     92  NH2       46.9360   26.4630    7.5670 N.pl3 210  ARG210      0.1354
     93  N         43.4430   20.7050    5.3580 N.3   232  VAL232     -0.1231
     94  CA        42.7550   20.2630    6.5660 C.3   232  VAL232      0.1692
     95  C         43.7470   19.7030    7.5750 C.2   232  VAL232      0.2592
     96  O         43.6540   19.9910    8.7730 O.2   232  VAL232     -0.2718
     97  CB        41.6570   19.2400    6.2120 C.3   232  VAL232      0.0266
     98  CG1       40.9410   18.7650    7.4560 C.3   232  VAL232      0.0020
     99  CG2       40.6540   19.8490    5.2300 C.3   232  VAL232      0.0020
    100  N         44.7190   18.9120    7.1140 N.am  233  LEU233     -0.1966
    101  CA        45.6860   18.2400    7.9800 C.3   233  LEU233      0.1713
    102  C         47.1030   18.6220    7.5600 C.2   233  LEU233      0.2458
    103  O         47.8690   17.7810    7.0700 O.2   233  LEU233     -0.2730
    104  CB        45.4930   16.7260    7.9300 C.3   233  LEU233      0.0310
    105  CG        44.0760   16.2500    8.2450 C.3   233  LEU233      0.0022
    106  CD1       43.8670   14.8320    7.7780 C.3   233  LEU233      0.0001
    107  CD2       43.8090   16.3460    9.7220 C.3   233  LEU233      0.0001
    108  N         47.4930   19.8820    7.7630 N.am  234  PRO234     -0.2716
    109  CA        48.7690   20.3520    7.1940 C.3   234  PRO234      0.1536
    110  C         50.0040   19.7090    7.7960 C.2   234  PRO234      0.2598
    111  O         51.0490   19.7030    7.1380 O.2   234  PRO234     -0.2715
    112  CB        48.7460   21.8600    7.4730 C.3   234  PRO234      0.0310
    113  CG        47.8490   22.0030    8.6680 C.3   234  PRO234      0.0237
    114  CD        46.7970   20.9350    8.5220 C.3   234  PRO234      0.0939
    115  N         49.9350   19.1640    9.0080 N.am  235  ASN235     -0.1973
    116  CA        51.1620   18.7220    9.6590 C.3   235  ASN235      0.1688
    117  C         51.6040   17.3290    9.2480 C.2   235  ASN235      0.2292
    118  O         52.7100   16.9240    9.6170 O.2   235  ASN235     -0.2864
    119  CB        51.0120   18.7770   11.1780 C.3   235  ASN235      0.1181
    120  CG        51.0520   20.1840   11.6970 C.2   235  ASN235      0.2629
    121  OD1       51.9870   20.9310   11.4090 O.2   235  ASN235     -0.2716
    122  ND2       50.0230   20.5720   12.4390 N.am  235  ASN235     -0.0877
    123  N         36.7780   13.8020    9.3360 N.3   277  PHE277     -0.1241
    124  CA        36.6890   15.2540    9.3350 C.3   277  PHE277      0.1605
    125  C         35.7420   15.7610    8.2630 C.2   277  PHE277      0.2264
    126  O         35.7540   16.9550    7.9440 O.2   277  PHE277     -0.2867
    127  CB        38.0870   15.8530    9.1650 C.3   277  PHE277      0.0534
    128  CG        39.1060   15.2540   10.0950 C.ar  277  PHE277     -0.0203
    129  CD1       39.1820   15.6650   11.4190 C.ar  277  PHE277     -0.0042
    130  CD2       39.9630   14.2550    9.6550 C.ar  277  PHE277     -0.0042
    131  CE1       40.1130   15.1060   12.2860 C.ar  277  PHE277     -0.0003
    132  CE2       40.8940   13.6870   10.5130 C.ar  277  PHE277     -0.0003
    133  CZ        40.9690   14.1100   11.8320 C.ar  277  PHE277     -0.0000
@<TRIPOS>BOND
     1    99    97    1
     2    93    94    1
     3    97    94    1
     4    97    98    1
     5    94    95    1
     6    91    90    1
     7   103   102    2
     8   100    95   am
     9   100   101    1
    10   111   110    2
    11   109   112    1
    12   109   108    1
    13   109   110    1
    14   112   113    1
    15    90    92    1
    16    90    89    2
    17   102   108   am
    18   102   101    1
    19    95    96    2
    20   108   114    1
    21   106   105    1
    22   110   115   am
    23   104   101    1
    24   104   105    1
    25   126   125    2
    26    88    89    1
    27    88    87    1
    28   105   107    1
    29   125   124    1
    30    86    87    1
    31    86    83    1
    32   114   113    1
    33    84    83    1
    34    84    85    2
    35   115   116    1
    36    83    82    1
    37   127   124    1
    38   127   128    1
    39   117   118    2
    40   117   116    1
    41   124   123    1
    42   130   128   ar
    43   130   132   ar
    44   116   119    1
    45    59    57    1
    46    49    50    1
    47    49    46    1
    48   128   129   ar
    49    47    48    2
    50    47    46    1
    51    52    50   am
    52    57    58    1
    53    57    54    1
    54     8    10   ar
    55     8     6   ar
    56   132   133   ar
    57    82    73   am
    58    74    73    2
    59    10    11   ar
    60     5     6    1
    61     5     2    1
    62    50    51    2
    63     6     7   ar
    64    46    45    1
    65    53    54    1
    66   119   120    1
    67    73    72    1
    68    11     9   ar
    69   121   120    2
    70   129   131   ar
    71     1     2    1
    72     7     9   ar
    73    54    55    1
    74   120   122   am
    75   133   131   ar
    76     2     3    1
    77    45    39   am
    78     3     4    2
    79    55    56    2
    80    55    60   am
    81    72    71    1
    82    72    75    1
    83    71    62   am
    84    39    40    2
    85    39    38    1
    86    75    76    1
    87    60    61    1
    88    28    26    1
    89    62    63    2
    90    62    61    1
    91    41    38    1
    92    41    42    1
    93    38    37    1
    94    61    64    1
    95    76    77   ar
    96    76    78   ar
    97    25    26    1
    98    25    22    1
    99    26    27    1
   100    43    42    1
   101    77    79   ar
   102    42    44    1
   103    12    13    1
   104    37    31   am
   105    78    80   ar
   106    64    65    1
   107    21    22    1
   108    21    14   am
   109    16    13    1
   110    16    17    1
   111    22    23    1
   112    32    31    2
   113    79    81   ar
   114    31    30    1
   115    65    66    1
   116    13    14    1
   117    14    15    2
   118    80    81   ar
   119    23    24    2
   120    17    18    1
   121    19    18    2
   122    30    29    1
   123    30    33    1
   124    66    67    1
   125    35    34    2
   126    18    20   am
   127    67    68    2
   128    69    68    1
   129    34    33    1
   130    34    36   am
   131    68    70    1
