@<TRIPOS>MOLECULE
tmp/5hzrA00.pdb
 91 86 0 0 0
SMALL
GASTEIGER

@<TRIPOS>ATOM
      1  N         14.0400   41.2650  -32.7110 N.3   355  ASN355     -0.1225
      2  CA        14.9630   40.2670  -33.2110 C.3   355  ASN355      0.1785
      3  C         15.9310   39.9130  -32.0890 C.2   355  ASN355      0.2597
      4  O         15.7410   40.3020  -30.9310 O.2   355  ASN355     -0.2718
      5  CB        15.6780   40.7740  -34.4780 C.3   355  ASN355      0.1169
      6  CG        16.3680   42.1200  -34.2750 C.2   355  ASN355      0.2627
      7  OD1       16.9200   42.3850  -33.2140 O.2   355  ASN355     -0.2716
      8  ND2       16.3140   42.9820  -35.2860 N.am  355  ASN355     -0.0877
      9  N         17.0040   39.2030  -32.4480 N.am  356  ASP356     -0.1960
     10  CA        17.9580   38.7330  -31.4420 C.3   356  ASP356      0.1840
     11  C         18.6980   39.8670  -30.7360 C.2   356  ASP356      0.2621
     12  O         19.3200   39.6290  -29.6920 O.2   356  ASP356     -0.2715
     13  CB        18.9700   37.7740  -32.0640 C.3   356  ASP356      0.1450
     14  CG        18.3980   36.3900  -32.3010 C.2   356  ASP356      0.3671
     15  OD1       17.2900   36.0940  -31.8080 O.co2 356  ASP356     -0.2456
     16  OD2       19.0750   35.5830  -32.9630 O.co2 356  ASP356     -0.2456
     17  N         18.6390   41.0930  -31.2650 N.am  357  LEU357     -0.1977
     18  CA        19.2000   42.2300  -30.5400 C.3   357  LEU357      0.1596
     19  C         18.5590   42.4090  -29.1720 C.2   357  LEU357      0.2287
     20  O         19.1850   42.9720  -28.2680 O.2   357  LEU357     -0.2864
     21  CB        19.0250   43.5210  -31.3330 C.3   357  LEU357      0.0297
     22  CG        19.8670   43.7920  -32.5700 C.3   357  LEU357      0.0022
     23  CD1       19.3230   45.0430  -33.2400 C.3   357  LEU357      0.0001
     24  CD2       21.3420   43.9520  -32.1930 C.3   357  LEU357      0.0001
     25  N         20.7200   39.7770  -27.1480 N.3   360  ARG360     -0.1245
     26  CA        22.1690   39.8220  -27.3070 C.3   360  ARG360      0.1563
     27  C         22.7780   41.1000  -26.7380 C.2   360  ARG360      0.2260
     28  O         23.9730   41.1140  -26.4320 O.2   360  ARG360     -0.2867
     29  CB        22.5590   39.6740  -28.7860 C.3   360  ARG360      0.0307
     30  CG        22.1260   38.3490  -29.4240 C.3   360  ARG360      0.0489
     31  CD        22.7790   38.1030  -30.7950 C.3   360  ARG360      0.2205
     32  NE        24.2210   37.9050  -30.6800 N.pl3 360  ARG360     -0.0865
     33  CZ        25.1370   38.7440  -31.1560 C.cat 360  ARG360      0.5346
     34  NH1       24.7640   39.8390  -31.8040 N.pl3 360  ARG360      0.1354
     35  NH2       26.4270   38.4870  -30.9830 N.pl3 360  ARG360      0.1354
     36  N          8.5210   37.7650  -28.8630 N.3   401  PHE401     -0.1241
     37  CA         9.4410   37.3140  -29.8980 C.3   401  PHE401      0.1605
     38  C          9.8210   35.8520  -29.6970 C.2   401  PHE401      0.2264
     39  O          9.9750   35.1050  -30.6690 O.2   401  PHE401     -0.2867
     40  CB        10.6680   38.2290  -29.8970 C.3   401  PHE401      0.0534
     41  CG        11.7810   37.7750  -30.7820 C.ar  401  PHE401     -0.0203
     42  CD1       11.6470   37.8000  -32.1620 C.ar  401  PHE401     -0.0042
     43  CD2       12.9860   37.3590  -30.2310 C.ar  401  PHE401     -0.0042
     44  CE1       12.6890   37.3900  -32.9790 C.ar  401  PHE401     -0.0003
     45  CE2       14.0350   36.9500  -31.0400 C.ar  401  PHE401     -0.0003
     46  CZ        13.8890   36.9650  -32.4140 C.ar  401  PHE401     -0.0000
     47  N         23.0920   28.8700  -35.5720 N.3   517  ILE517     -0.1231
     48  CA        23.6810   30.1960  -35.3950 C.3   517  ILE517      0.1692
     49  C         24.6250   30.2080  -34.1950 C.2   517  ILE517      0.2592
     50  O         25.8270   30.4680  -34.3380 O.2   517  ILE517     -0.2718
     51  CB        22.5880   31.2680  -35.2230 C.3   517  ILE517      0.0266
     52  CG1       21.5900   31.2250  -36.3860 C.3   517  ILE517      0.0019
     53  CG2       23.2120   32.6530  -35.0810 C.3   517  ILE517      0.0020
     54  CD1       22.1560   31.6680  -37.7030 C.3   517  ILE517      0.0001
     55  N         24.0890   29.9300  -33.0040 N.am  518  TYR518     -0.1976
     56  CA        24.8190   30.1250  -31.7570 C.3   518  TYR518      0.1639
     57  C         25.4900   28.8650  -31.2310 C.2   518  TYR518      0.2290
     58  O         26.2910   28.9610  -30.2970 O.2   518  TYR518     -0.2864
     59  CB        23.8750   30.6980  -30.6900 C.3   518  TYR518      0.0560
     60  CG        23.2560   31.9890  -31.1640 C.ar  518  TYR518     -0.0198
     61  CD1       24.0050   33.1570  -31.1940 C.ar  518  TYR518     -0.0009
     62  CD2       21.9470   32.0330  -31.6350 C.ar  518  TYR518     -0.0009
     63  CE1       23.4660   34.3380  -31.6570 C.ar  518  TYR518      0.0417
     64  CE2       21.3970   33.2150  -32.0970 C.ar  518  TYR518      0.0417
     65  CZ        22.1680   34.3630  -32.1090 C.ar  518  TYR518      0.1957
     66  OH        21.6510   35.5520  -32.5590 O.3   518  TYR518     -0.2866
     67  N         27.7610   27.9220  -36.5340 N.3   525  GLN525     -0.1245
     68  CA        28.5050   29.1590  -36.7450 C.3   525  GLN525      0.1566
     69  C         29.3090   29.5650  -35.5160 C.2   525  GLN525      0.2260
     70  O         30.3430   30.2300  -35.6470 O.2   525  GLN525     -0.2867
     71  CB        27.5490   30.2860  -37.1390 C.3   525  GLN525      0.0367
     72  CG        26.7690   30.0380  -38.4170 C.3   525  GLN525      0.0905
     73  CD        25.8550   31.2000  -38.7630 C.2   525  GLN525      0.2608
     74  OE1       26.0460   32.3160  -38.2780 O.2   525  GLN525     -0.2717
     75  NE2       24.8510   30.9430  -39.5980 N.am  525  GLN525     -0.0878
     76  N         28.4190   31.7420  -33.3130 N.3   527  VAL527     -0.1245
     77  CA        28.2070   33.1680  -33.0410 C.3   527  VAL527      0.1561
     78  C         28.0660   33.3810  -31.5400 C.2   527  VAL527      0.2260
     79  O         27.3370   32.6190  -30.8730 O.2   527  VAL527     -0.2867
     80  CB        26.9600   33.6750  -33.7860 C.3   527  VAL527      0.0252
     81  CG1       26.6110   35.0870  -33.3520 C.3   527  VAL527      0.0019
     82  CG2       27.1740   33.6070  -35.2950 C.3   527  VAL527      0.0019
     83  N         31.2030   43.8090  -33.2230 N.3   535  GLU535     -0.1245
     84  CA        29.9030   44.0880  -33.8200 C.3   535  GLU535      0.1567
     85  C         29.5000   45.5510  -33.7020 C.2   535  GLU535      0.2260
     86  O         28.5220   45.9560  -34.3380 O.2   535  GLU535     -0.2867
     87  CB        28.8350   43.2050  -33.1740 C.3   535  GLU535      0.0388
     88  CG        29.1060   41.7200  -33.3140 C.3   535  GLU535      0.1160
     89  CD        28.0710   40.8900  -32.5910 C.2   535  GLU535      0.3649
     90  OE1       28.4370   40.1840  -31.6230 O.co2 535  GLU535     -0.2457
     91  OE2       26.8900   40.9650  -32.9890 O.co2 535  GLU535     -0.2457
@<TRIPOS>BOND
     1    75    73   am
     2    73    72    1
     3    73    74    2
     4    72    71    1
     5    54    52    1
     6    71    68    1
     7    68    67    1
     8    68    69    1
     9    52    51    1
    10    70    69    2
    11    47    48    1
    12    48    51    1
    13    48    49    1
    14    82    80    1
    15     8     6   am
    16    51    53    1
    17     5     6    1
    18     5     2    1
    19    86    85    2
    20    50    49    2
    21     6     7    2
    22    49    55   am
    23    84    85    1
    24    84    83    1
    25    84    87    1
    26    80    81    1
    27    80    77    1
    28    88    87    1
    29    88    89    1
    30    76    77    1
    31    23    22    1
    32     2     1    1
    33     2     3    1
    34    77    78    1
    35    55    56    1
    36    91    89   ar
    37    44    46   ar
    38    44    42   ar
    39    16    14   ar
    40    89    90   ar
    41    22    24    1
    42    22    21    1
    43    66    65    1
    44     9     3   am
    45     9    10    1
    46    46    45   ar
    47    14    13    1
    48    14    15   ar
    49    42    41   ar
    50    65    64   ar
    51    65    63   ar
    52    64    62   ar
    53     3     4    2
    54    13    10    1
    55    34    33    1
    56    56    57    1
    57    56    59    1
    58    63    61   ar
    59    62    60   ar
    60    78    79    2
    61    10    11    1
    62    21    18    1
    63    17    11   am
    64    17    18    1
    65    57    58    2
    66    61    60   ar
    67    60    59    1
    68    33    35    1
    69    33    32    2
    70    45    43   ar
    71    31    32    1
    72    31    30    1
    73    41    43   ar
    74    41    40    1
    75    11    12    2
    76    39    38    2
    77    18    19    1
    78    37    40    1
    79    37    38    1
    80    37    36    1
    81    30    29    1
    82    19    20    2
    83    29    26    1
    84    26    25    1
    85    26    27    1
    86    27    28    2
