@<TRIPOS>MOLECULE
tmp/5hzvA00.pdb
 160 158 0 0 0
SMALL
GASTEIGER

@<TRIPOS>ATOM
      1  N         13.7500   76.4610   63.4900 N.3    12  ASN12      -0.1240
      2  CA        13.5810   77.6900   64.2490 C.3    12  ASN12       0.1653
      3  C         12.4980   77.5190   65.3110 C.2    12  ASN12       0.2266
      4  O         11.5030   76.8170   65.1100 O.2    12  ASN12      -0.2867
      5  CB        13.2240   78.8450   63.3150 C.3    12  ASN12       0.1155
      6  CG        13.8350   80.1630   63.7520 C.2    12  ASN12       0.2627
      7  OD1       14.9460   80.2030   64.2830 O.2    12  ASN12      -0.2716
      8  ND2       13.1080   81.2530   63.5270 N.am   12  ASN12      -0.0877
      9  N         10.2080   79.4520   66.4630 N.3    14  ASP14      -0.1225
     10  CA         8.8660   79.9390   66.1560 C.3    14  ASP14       0.1805
     11  C          8.0660   78.9170   65.3600 C.2    14  ASP14       0.2597
     12  O          6.8330   78.8920   65.4490 O.2    14  ASP14      -0.2718
     13  CB         8.9410   81.2590   65.3850 C.3    14  ASP14       0.1424
     14  CG         9.8100   81.1660   64.1370 C.2    14  ASP14       0.3668
     15  OD1       10.2440   80.0500   63.7880 O.co2  14  ASP14      -0.2456
     16  OD2       10.0530   82.2130   63.4970 O.co2  14  ASP14      -0.2456
     17  N          8.7410   78.0760   64.5830 N.am   15  LYS15      -0.1979
     18  CA         8.0680   77.0770   63.7690 C.3    15  LYS15       0.1596
     19  C          7.6890   75.8810   64.6250 C.2    15  LYS15       0.2287
     20  O          8.3510   75.5710   65.6210 O.2    15  LYS15      -0.2864
     21  CB         8.9690   76.6270   62.6240 C.3    15  LYS15       0.0298
     22  CG         9.7160   77.7750   61.9870 C.3    15  LYS15       0.0038
     23  CD         9.8020   77.6550   60.4870 C.3    15  LYS15       0.0206
     24  CE        10.3560   78.9340   59.8820 C.3    15  LYS15       0.1093
     25  NZ         9.5570   80.1340   60.2610 N.3    15  LYS15      -0.1314
     26  N         20.8010   78.9940   61.9170 N.3    44  GLU44      -0.1245
     27  CA        21.2590   79.2910   60.5640 C.3    44  GLU44       0.1567
     28  C         22.7140   79.7430   60.5650 C.2    44  GLU44       0.2260
     29  O         23.4940   79.3470   59.6910 O.2    44  GLU44      -0.2867
     30  CB        20.3580   80.3450   59.9100 C.3    44  GLU44       0.0388
     31  CG        20.5480   81.7930   60.3690 C.3    44  GLU44       0.1160
     32  CD        20.0790   82.0370   61.7920 C.2    44  GLU44       0.3649
     33  OE1       19.6580   81.0670   62.4550 O.co2  44  GLU44      -0.2457
     34  OE2       20.1220   83.2010   62.2460 O.co2  44  GLU44      -0.2457
     35  N         15.1940   75.6760   57.3030 N.3    62  TRP62      -0.1227
     36  CA        15.3450   77.1240   57.2600 C.3    62  TRP62       0.1737
     37  C         14.7820   77.6270   55.9350 C.2    62  TRP62       0.2595
     38  O         14.3690   76.8440   55.0740 O.2    62  TRP62      -0.2718
     39  CB        16.8150   77.5190   57.4350 C.3    62  TRP62       0.0564
     40  CG        17.0180   78.9670   57.7280 C.ar   62  TRP62       0.0003
     41  CD1       17.4450   79.9270   56.8590 C.ar   62  TRP62       0.0946
     42  CD2       16.7960   79.6270   58.9780 C.ar   62  TRP62       0.0152
     43  NE1       17.5020   81.1450   57.4900 N.ar   62  TRP62      -0.2442
     44  CE2       17.1100   80.9880   58.7930 C.ar   62  TRP62       0.0810
     45  CE3       16.3620   79.2000   60.2360 C.ar   62  TRP62       0.0012
     46  CZ2       17.0050   81.9230   59.8190 C.ar   62  TRP62       0.0191
     47  CZ3       16.2590   80.1300   61.2530 C.ar   62  TRP62       0.0001
     48  CH2       16.5790   81.4750   61.0390 C.ar   62  TRP62       0.0015
     49  N         14.7660   78.9480   55.7800 N.am   63  ALA63      -0.1980
     50  CA        14.4400   79.5520   54.5000 C.3    63  ALA63       0.1597
     51  C         15.5170   79.2160   53.4760 C.2    63  ALA63       0.2287
     52  O         16.6810   78.9910   53.8180 O.2    63  ALA63      -0.2864
     53  CB        14.3000   81.0680   54.6460 C.3    63  ALA63       0.0319
     54  N         17.0890   80.9110   51.2180 N.3    65  ASP65      -0.1225
     55  CA        18.1630   81.8520   50.9090 C.3    65  ASP65       0.1805
     56  C         19.4920   81.4280   51.5250 C.2    65  ASP65       0.2597
     57  O         20.5560   81.6380   50.9300 O.2    65  ASP65      -0.2718
     58  CB        17.7830   83.2540   51.3890 C.3    65  ASP65       0.1424
     59  CG        17.5700   83.3190   52.8910 C.2    65  ASP65       0.3668
     60  OD1       17.0680   82.3310   53.4650 O.co2  65  ASP65      -0.2456
     61  OD2       17.9030   84.3590   53.4960 O.co2  65  ASP65      -0.2456
     62  N         19.4530   80.8230   52.7150 N.am   66  ARG66      -0.1979
     63  CA        20.6800   80.4470   53.4050 C.3    66  ARG66       0.1597
     64  C         21.3340   79.2020   52.8260 C.2    66  ARG66       0.2287
     65  O         22.5150   78.9590   53.0970 O.2    66  ARG66      -0.2864
     66  CB        20.4040   80.2120   54.8950 C.3    66  ARG66       0.0334
     67  CG        20.1150   81.4680   55.6950 C.3    66  ARG66       0.0492
     68  CD        21.2780   82.4370   55.6530 C.3    66  ARG66       0.2205
     69  NE        21.0770   83.5770   56.5400 N.pl3  66  ARG66      -0.0865
     70  CZ        21.8710   83.9180   57.5500 C.cat  66  ARG66       0.5346
     71  NH1       22.9630   83.2220   57.8320 N.pl3  66  ARG66       0.1354
     72  NH2       21.5690   84.9830   58.2800 N.pl3  66  ARG66       0.1354
     73  N          6.6800   80.9300   52.6530 N.3   111  GLU111     -0.1245
     74  CA         6.4620   81.8770   53.7370 C.3   111  GLU111      0.1567
     75  C          6.5630   83.3020   53.2140 C.2   111  GLU111      0.2260
     76  O          7.5580   83.6670   52.5790 O.2   111  GLU111     -0.2867
     77  CB         7.4810   81.6610   54.8580 C.3   111  GLU111      0.0388
     78  CG         7.4500   80.2680   55.4630 C.3   111  GLU111      0.1160
     79  CD         8.5300   80.0610   56.5080 C.2   111  GLU111      0.3649
     80  OE1        9.6680   80.5320   56.2910 O.co2 111  GLU111     -0.2457
     81  OE2        8.2400   79.4340   57.5490 O.co2 111  GLU111     -0.2457
     82  N         14.9670   92.8640   62.7020 N.3   153  GLU153     -0.1231
     83  CA        15.2490   92.0030   61.5620 C.3   153  GLU153      0.1684
     84  C         14.7780   92.6850   60.2850 C.2   153  GLU153      0.2434
     85  O         13.5750   92.9690   60.1530 O.2   153  GLU153     -0.2733
     86  CB        14.5700   90.6440   61.7240 C.3   153  GLU153      0.0402
     87  CG        15.2610   89.7340   62.7200 C.3   153  GLU153      0.1161
     88  CD        16.6710   89.3540   62.2950 C.2   153  GLU153      0.3649
     89  OE1       16.9730   89.4250   61.0860 O.co2 153  GLU153     -0.2457
     90  OE2       17.4800   88.9830   63.1730 O.co2 153  GLU153     -0.2457
     91  N         15.6600   92.9770   59.3260 N.am  154  PRO154     -0.2718
     92  CA        15.2100   93.6730   58.1070 C.3   154  PRO154      0.1535
     93  C         14.1810   92.8970   57.3020 C.2   154  PRO154      0.2599
     94  O         13.4910   93.4930   56.4680 O.2   154  PRO154     -0.2715
     95  CB        16.5100   93.8670   57.3160 C.3   154  PRO154      0.0310
     96  CG        17.4060   92.7810   57.7960 C.3   154  PRO154      0.0237
     97  CD        17.0800   92.5940   59.2460 C.3   154  PRO154      0.0939
     98  N         14.0550   91.5910   57.5270 N.am  155  TYR155     -0.1960
     99  CA        13.0250   90.8000   56.8650 C.3   155  TYR155      0.1771
    100  C         11.6610   91.4640   56.9910 C.2   155  TYR155      0.2619
    101  O         10.8650   91.4600   56.0450 O.2   155  TYR155     -0.2715
    102  CB        13.0050   89.3970   57.4740 C.3   155  TYR155      0.0574
    103  CG        12.0520   88.4200   56.8340 C.ar  155  TYR155     -0.0198
    104  CD1       12.4270   87.6910   55.7160 C.ar  155  TYR155     -0.0009
    105  CD2       10.7900   88.1980   57.3690 C.ar  155  TYR155     -0.0009
    106  CE1       11.5680   86.7830   55.1370 C.ar  155  TYR155      0.0417
    107  CE2        9.9230   87.2890   56.7980 C.ar  155  TYR155      0.0417
    108  CZ        10.3180   86.5850   55.6800 C.ar  155  TYR155      0.1957
    109  OH         9.4650   85.6780   55.0980 O.3   155  TYR155     -0.2866
    110  N         11.3750   92.0420   58.1570 N.am  156  PHE156     -0.1974
    111  CA        10.0890   92.6880   58.3890 C.3   156  PHE156      0.1639
    112  C         10.0390   94.1000   57.8200 C.2   156  PHE156      0.2290
    113  O          8.9500   94.6000   57.5190 O.2   156  PHE156     -0.2864
    114  CB         9.7880   92.6950   59.8900 C.3   156  PHE156      0.0560
    115  CG         9.7340   91.3200   60.4910 C.ar  156  PHE156     -0.0200
    116  CD1       10.8960   90.6750   60.8760 C.ar  156  PHE156     -0.0042
    117  CD2        8.5260   90.6620   60.6440 C.ar  156  PHE156     -0.0042
    118  CE1       10.8550   89.4070   61.4120 C.ar  156  PHE156     -0.0003
    119  CE2        8.4800   89.3910   61.1820 C.ar  156  PHE156     -0.0003
    120  CZ         9.6470   88.7630   61.5660 C.ar  156  PHE156     -0.0000
    121  N          3.4710   81.3550   60.9960 N.3   230  TRP230     -0.1241
    122  CA         3.8050   80.6950   62.2530 C.3   230  TRP230      0.1605
    123  C          3.1630   81.3900   63.4460 C.2   230  TRP230      0.2264
    124  O          2.8140   80.7340   64.4340 O.2   230  TRP230     -0.2867
    125  CB         5.3250   80.6490   62.4250 C.3   230  TRP230      0.0550
    126  CG         5.9800   81.9860   62.2720 C.ar  230  TRP230      0.0003
    127  CD1        6.1060   82.9480   63.2280 C.ar  230  TRP230      0.0946
    128  CD2        6.5970   82.5120   61.0900 C.ar  230  TRP230      0.0152
    129  NE1        6.7640   84.0410   62.7180 N.ar  230  TRP230     -0.2442
    130  CE2        7.0770   83.7980   61.4080 C.ar  230  TRP230      0.0810
    131  CE3        6.7920   82.0200   59.7950 C.ar  230  TRP230      0.0012
    132  CZ2        7.7380   84.6000   60.4790 C.ar  230  TRP230      0.0191
    133  CZ3        7.4500   82.8180   58.8740 C.ar  230  TRP230      0.0001
    134  CH2        7.9140   84.0930   59.2210 C.ar  230  TRP230      0.0015
    135  N         10.4500   83.6770   51.4890 N.3   260  GLY260     -0.1225
    136  CA        11.2590   82.5080   51.7410 C.3   260  GLY260      0.1811
    137  C         10.4700   81.2290   51.5360 C.2   260  GLY260      0.2280
    138  O          9.2560   81.1860   51.7150 O.2   260  GLY260     -0.2866
    139  N         13.3070   85.1930   47.5280 N.3   330  MET330     -0.1245
    140  CA        14.6470   85.5780   47.9410 C.3   330  MET330      0.1570
    141  C         15.6870   84.9050   47.0520 C.2   330  MET330      0.2261
    142  O         15.5730   83.7060   46.7730 O.2   330  MET330     -0.2867
    143  CB        14.8890   85.1890   49.3970 C.3   330  MET330      0.0387
    144  CG        14.2760   86.1310   50.4030 C.3   330  MET330      0.0595
    145  SD        14.8210   85.7600   52.0790 S.3   330  MET330     -0.1393
    146  CE        14.0690   84.1570   52.3330 C.3   330  MET330      0.0692
    147  N         21.9050   90.5120   54.0760 N.3   340  TRP340     -0.1241
    148  CA        21.0580   90.5920   55.2620 C.3   340  TRP340      0.1605
    149  C         21.7880   91.2700   56.4150 C.2   340  TRP340      0.2264
    150  O         21.2320   92.1450   57.0900 O.2   340  TRP340     -0.2867
    151  CB        20.5940   89.1940   55.6710 C.3   340  TRP340      0.0550
    152  CG        19.4390   88.6670   54.8720 C.ar  340  TRP340      0.0003
    153  CD1       19.3630   87.4620   54.2330 C.ar  340  TRP340      0.0946
    154  CD2       18.1900   89.3270   54.6340 C.ar  340  TRP340      0.0152
    155  NE1       18.1420   87.3320   53.6160 N.ar  340  TRP340     -0.2442
    156  CE2       17.4050   88.4640   53.8460 C.ar  340  TRP340      0.0810
    157  CE3       17.6620   90.5640   55.0090 C.ar  340  TRP340      0.0012
    158  CZ2       16.1200   88.7990   53.4280 C.ar  340  TRP340      0.0191
    159  CZ3       16.3880   90.8940   54.5960 C.ar  340  TRP340      0.0001
    160  CH2       15.6300   90.0170   53.8140 C.ar  340  TRP340      0.0015
@<TRIPOS>BOND
     1   142   141    2
     2   141   140    1
     3   139   140    1
     4   140   143    1
     5   143   144    1
     6   144   145    1
     7    55    54    1
     8    55    58    1
     9    55    56    1
    10    57    56    2
    11    58    59    1
    12   135   136    1
    13    56    62   am
    14   137   138    2
    15   137   136    1
    16   145   146    1
    17    76    75    2
    18    73    74    1
    19    62    63    1
    20    64    65    2
    21    64    63    1
    22    59    60   ar
    23    59    61   ar
    24    75    74    1
    25    63    66    1
    26   158   160   ar
    27   158   156   ar
    28    51    52    2
    29    51    50    1
    30   155   156   ar
    31   155   153   ar
    32    74    77    1
    33   160   159   ar
    34   156   154   ar
    35   147   148    1
    36   153   152   ar
    37    50    53    1
    38    50    49    1
    39   159   157   ar
    40   154   152   ar
    41   154   157   ar
    42    77    78    1
    43   152   151    1
    44    66    67    1
    45    38    37    2
    46   109   108    1
    47   106   108   ar
    48   106   104   ar
    49   148   151    1
    50   148   149    1
    51    78    79    1
    52    68    67    1
    53    68    69    1
    54   108   107   ar
    55   104   103   ar
    56    49    37   am
    57    37    36    1
    58   101   100    2
    59    80    79   ar
    60   149   150    2
    61    94    93    2
    62    79    81   ar
    63    69    70    2
    64   107   105   ar
    65   103   105   ar
    66   103   102    1
    67    41    43   ar
    68    41    40   ar
    69    99   100    1
    70    99   102    1
    71    99    98    1
    72   100   110   am
    73    36    35    1
    74    36    39    1
    75    93    98   am
    76    93    92    1
    77    95    96    1
    78    95    92    1
    79    39    40    1
    80    43    44   ar
    81   113   112    2
    82    70    71    1
    83    70    72    1
    84    40    42   ar
    85    96    97    1
    86   112   111    1
    87    92    91    1
    88   110   111    1
    89   111   114    1
    90    44    42   ar
    91    44    46   ar
    92   133   134   ar
    93   133   131   ar
    94    42    45   ar
    95   134   132   ar
    96    97    91    1
    97    91    84   am
    98    29    28    2
    99   131   128   ar
   100    46    48   ar
   101    24    25    1
   102    24    23    1
   103   114   115    1
   104    30    31    1
   105    30    27    1
   106    85    84    2
   107    45    47   ar
   108    84    83    1
   109    31    32    1
   110   132   130   ar
   111    23    22    1
   112   115   117   ar
   113   115   116   ar
   114    27    28    1
   115    27    26    1
   116   117   119   ar
   117   116   118   ar
   118   121   122    1
   119    48    47   ar
   120    89    88   ar
   121   128   130   ar
   122   128   126   ar
   123   119   120   ar
   124   130   129   ar
   125   118   120   ar
   126    83    86    1
   127    83    82    1
   128    86    87    1
   129    32    34   ar
   130    32    33   ar
   131    22    21    1
   132   122   125    1
   133   122   123    1
   134   126   125    1
   135   126   127   ar
   136    88    87    1
   137    88    90   ar
   138    21    18    1
   139   129   127   ar
   140     5     6    1
   141     5     2    1
   142   123   124    2
   143     1     2    1
   144    16    14   ar
   145     8     6   am
   146     6     7    2
   147    18    17    1
   148    18    19    1
   149    15    14   ar
   150    14    13    1
   151     2     3    1
   152    17    11   am
   153    19    20    2
   154     4     3    2
   155    11    12    2
   156    11    10    1
   157    13    10    1
   158    10     9    1
