@<TRIPOS>MOLECULE
tmp/5hzxB00.pdb
 151 146 0 0 0
SMALL
GASTEIGER

@<TRIPOS>ATOM
      1  N        -15.3430  -24.1990   -6.3650 N.3     5  LEU5       -0.1231
      2  CA       -15.9750  -23.3380   -5.3690 C.3     5  LEU5        0.1693
      3  C        -17.4640  -23.1600   -5.6550 C.2     5  LEU5        0.2593
      4  O        -17.8880  -23.2610   -6.8180 O.2     5  LEU5       -0.2718
      5  CB       -15.3090  -21.9750   -5.3640 C.3     5  LEU5        0.0284
      6  CG       -13.8150  -21.9780   -5.0540 C.3     5  LEU5        0.0019
      7  CD1      -13.1420  -20.7690   -5.6730 C.3     5  LEU5        0.0001
      8  CD2      -13.5710  -22.0130   -3.5590 C.3     5  LEU5        0.0001
      9  N        -18.2320  -22.8970   -4.5920 N.am    6  THR6       -0.1939
     10  CA       -19.6690  -22.6860   -4.6560 C.3     6  THR6        0.2028
     11  C        -20.0350  -21.2740   -4.1860 C.2     6  THR6        0.2642
     12  O        -19.3760  -20.7340   -3.2940 O.2     6  THR6       -0.2714
     13  CB       -20.4070  -23.6730   -3.7040 C.3     6  THR6        0.1808
     14  OG1      -20.5000  -23.1030   -2.3940 O.3     6  THR6       -0.2208
     15  CG2      -19.6710  -24.9850   -3.5890 C.3     6  THR6        0.0379
     16  N        -21.1170  -20.7130   -4.7350 N.am    7  LEU7       -0.1977
     17  CA       -21.6380  -19.4020   -4.3010 C.3     7  LEU7        0.1596
     18  C        -23.1680  -19.3960   -4.3670 C.2     7  LEU7        0.2287
     19  O        -23.7470  -19.8000   -5.3700 O.2     7  LEU7       -0.2864
     20  CB       -21.0730  -18.2960   -5.1800 C.3     7  LEU7        0.0297
     21  CG       -21.4350  -16.8610   -4.8120 C.3     7  LEU7        0.0022
     22  CD1      -20.8260  -16.4700   -3.4770 C.3     7  LEU7        0.0001
     23  CD2      -20.9770  -15.8880   -5.8900 C.3     7  LEU7        0.0001
     24  N        -17.8350  -10.6820    4.7300 N.3    21  LYS21      -0.1245
     25  CA       -16.8930  -11.7380    5.0810 C.3    21  LYS21       0.1561
     26  C        -15.9330  -11.1790    6.1280 C.2    21  LYS21       0.2260
     27  O        -15.3520  -10.1070    5.9410 O.2    21  LYS21      -0.2867
     28  CB       -16.1600  -12.2660    3.8460 C.3    21  LYS21       0.0271
     29  CG       -15.3890  -13.5410    4.1060 C.3    21  LYS21       0.0035
     30  CD       -15.0390  -14.2810    2.8340 C.3    21  LYS21       0.0206
     31  CE       -14.3000  -15.5720    3.1500 C.3    21  LYS21       0.1093
     32  NZ       -13.8430  -16.2530    1.9120 N.3    21  LYS21      -0.1314
     33  N         -9.9590  -15.1900    2.7180 N.3    25  PHE25      -0.1241
     34  CA        -9.8410  -14.6860    1.3530 C.3    25  PHE25       0.1605
     35  C        -11.0800  -13.8760    0.9550 C.2    25  PHE25       0.2264
     36  O        -12.1880  -14.4080    0.9400 O.2    25  PHE25      -0.2867
     37  CB        -9.6540  -15.8830    0.4070 C.3    25  PHE25       0.0534
     38  CG        -9.2990  -15.4980   -0.9910 C.ar   25  PHE25      -0.0203
     39  CD1       -7.9930  -15.2190   -1.3320 C.ar   25  PHE25      -0.0042
     40  CD2      -10.2770  -15.3960   -1.9620 C.ar   25  PHE25      -0.0042
     41  CE1       -7.6570  -14.8550   -2.6280 C.ar   25  PHE25      -0.0003
     42  CE2       -9.9540  -15.0280   -3.2630 C.ar   25  PHE25      -0.0003
     43  CZ        -8.6410  -14.7550   -3.5940 C.ar   25  PHE25      -0.0000
     44  N        -20.6240  -10.5580   -0.2000 N.3    31  ASN31      -0.1240
     45  CA       -20.7790  -11.6010   -1.2210 C.3    31  ASN31       0.1653
     46  C        -21.9530  -12.5150   -0.8520 C.2    31  ASN31       0.2266
     47  O        -22.5530  -12.3720    0.2180 O.2    31  ASN31      -0.2867
     48  CB       -19.4730  -12.4210   -1.3000 C.3    31  ASN31       0.1155
     49  CG       -19.2780  -13.1540   -2.6340 C.2    31  ASN31       0.2627
     50  OD1      -20.1430  -13.1580   -3.5270 O.2    31  ASN31      -0.2716
     51  ND2      -18.1320  -13.8180   -2.7520 N.am   31  ASN31      -0.0877
     52  N        -20.8660  -19.4800    0.5700 N.3    34  GLY34      -0.1210
     53  CA       -20.2160  -20.5610   -0.1200 C.3    34  GLY34       0.1956
     54  C        -18.8260  -20.8630    0.3630 C.2    34  GLY34       0.2612
     55  O        -18.5100  -20.6810    1.5490 O.2    34  GLY34      -0.2717
     56  N        -18.0000  -21.3460   -0.5590 N.am   35  GLY35      -0.1956
     57  CA       -16.6730  -21.8310   -0.2340 C.3    35  GLY35       0.1869
     58  C        -16.2730  -23.0070   -1.1020 C.2    35  GLY35       0.2309
     59  O        -16.8030  -23.1890   -2.2050 O.2    35  GLY35      -0.2863
     60  N        -12.1860  -17.9960  -13.0020 N.3    70  PHE70      -0.1241
     61  CA       -11.3810  -16.8240  -12.7350 C.3    70  PHE70       0.1605
     62  C         -9.9100  -17.2060  -12.7700 C.2    70  PHE70       0.2264
     63  O         -9.4750  -18.1840  -12.1370 O.2    70  PHE70      -0.2867
     64  CB       -11.7110  -16.2240  -11.3650 C.3    70  PHE70       0.0534
     65  CG       -13.1120  -15.7110  -11.2420 C.ar   70  PHE70      -0.0203
     66  CD1      -13.4210  -14.4050  -11.5870 C.ar   70  PHE70      -0.0042
     67  CD2      -14.1180  -16.5250  -10.7590 C.ar   70  PHE70      -0.0042
     68  CE1      -14.7130  -13.9140  -11.4610 C.ar   70  PHE70      -0.0003
     69  CE2      -15.4130  -16.0470  -10.6230 C.ar   70  PHE70      -0.0003
     70  CZ       -15.7130  -14.7440  -10.9730 C.ar   70  PHE70      -0.0000
     71  N         -6.0880  -15.4650  -12.2350 N.3    72  PHE72      -0.1241
     72  CA        -5.2450  -14.3680  -11.7690 C.3    72  PHE72       0.1605
     73  C         -4.0060  -14.4010  -12.6140 C.2    72  PHE72       0.2264
     74  O         -3.3140  -15.4160  -12.6580 O.2    72  PHE72      -0.2867
     75  CB        -4.8880  -14.5220  -10.2850 C.3    72  PHE72       0.0534
     76  CG        -6.0630  -14.2850   -9.3780 C.ar   72  PHE72      -0.0203
     77  CD1       -6.5110  -12.9910   -9.1390 C.ar   72  PHE72      -0.0042
     78  CD2       -6.7600  -15.3420   -8.8120 C.ar   72  PHE72      -0.0042
     79  CE1       -7.5950  -12.7510   -8.3180 C.ar   72  PHE72      -0.0003
     80  CE2       -7.8570  -15.1090   -7.9930 C.ar   72  PHE72      -0.0003
     81  CZ        -8.2800  -13.8140   -7.7500 C.ar   72  PHE72      -0.0000
     82  N         -9.8850  -20.4990  -10.2650 N.3    79  MET79      -0.1245
     83  CA       -11.0410  -20.6790   -9.4050 C.3    79  MET79       0.1570
     84  C        -12.2330  -21.0000  -10.2970 C.2    79  MET79       0.2261
     85  O        -12.5530  -20.2120  -11.1860 O.2    79  MET79      -0.2867
     86  CB       -11.3300  -19.3980   -8.6210 C.3    79  MET79       0.0387
     87  CG       -10.2500  -19.0290   -7.6170 C.3    79  MET79       0.0595
     88  SD       -10.5370  -17.4300   -6.8170 S.3    79  MET79      -0.1393
     89  CE       -12.0430  -17.7050   -5.9030 C.3    79  MET79       0.0692
     90  N        -15.9880  -21.3440  -10.1850 N.3    81  VAL81      -0.1245
     91  CA       -17.0620  -20.9330   -9.2780 C.3    81  VAL81       0.1561
     92  C        -18.4230  -21.3090   -9.8560 C.2    81  VAL81       0.2260
     93  O        -18.7530  -20.9140  -10.9780 O.2    81  VAL81      -0.2867
     94  CB       -17.0200  -19.4020   -9.0130 C.3    81  VAL81       0.0252
     95  CG1      -18.1720  -18.9600   -8.1260 C.3    81  VAL81       0.0019
     96  CG2      -15.6930  -19.0120   -8.3890 C.3    81  VAL81       0.0019
     97  N        -16.7080   -8.1800   -4.8280 N.3   115  TRP115     -0.1241
     98  CA       -15.7390   -8.5520   -5.8560 C.3   115  TRP115      0.1605
     99  C        -16.0750   -7.7840   -7.1470 C.2   115  TRP115      0.2264
    100  O        -17.2380   -7.5760   -7.4720 O.2   115  TRP115     -0.2867
    101  CB       -15.7450  -10.0590   -6.0960 C.3   115  TRP115      0.0550
    102  CG       -15.0240  -10.8370   -5.0620 C.ar  115  TRP115      0.0003
    103  CD1      -15.5780  -11.5730   -4.0560 C.ar  115  TRP115      0.0946
    104  CD2      -13.6010  -10.9480   -4.9070 C.ar  115  TRP115      0.0152
    105  NE1      -14.5930  -12.1550   -3.3000 N.ar  115  TRP115     -0.2442
    106  CE2      -13.3700  -11.7840   -3.7920 C.ar  115  TRP115      0.0810
    107  CE3      -12.5040  -10.4200   -5.5960 C.ar  115  TRP115      0.0012
    108  CZ2      -12.0820  -12.1210   -3.3610 C.ar  115  TRP115      0.0191
    109  CZ3      -11.2220  -10.7450   -5.1640 C.ar  115  TRP115      0.0001
    110  CH2      -11.0270  -11.5880   -4.0470 C.ar  115  TRP115      0.0015
    111  N        -16.1830   -8.3940  -10.1960 N.3   117  ASP117     -0.1225
    112  CA       -16.9980   -9.0670  -11.2110 C.3   117  ASP117      0.1805
    113  C        -18.5000   -8.9990  -11.0020 C.2   117  ASP117      0.2597
    114  O        -19.2550   -9.1230  -11.9670 O.2   117  ASP117     -0.2718
    115  CB       -16.5870  -10.5410  -11.3660 C.3   117  ASP117      0.1424
    116  CG       -16.4240  -11.2530  -10.0370 C.2   117  ASP117      0.3668
    117  OD1      -15.4280  -10.9650   -9.3310 O.co2 117  ASP117     -0.2456
    118  OD2      -17.2530  -12.1210   -9.7150 O.co2 117  ASP117     -0.2456
    119  N        -18.9400   -8.8300   -9.7600 N.am  118  ASP118     -0.1974
    120  CA       -20.3580   -9.0170   -9.4240 C.3   118  ASP118      0.1709
    121  C        -21.2680   -8.0930  -10.2190 C.2   118  ASP118      0.2293
    122  O        -22.3430   -8.4830  -10.6650 O.2   118  ASP118     -0.2864
    123  CB       -20.6030   -8.7890   -7.9160 C.3   118  ASP118      0.1436
    124  CG       -19.9620   -9.8560   -7.0450 C.2   118  ASP118      0.3671
    125  OD1      -19.0720  -10.5860   -7.5440 O.co2 118  ASP118     -0.2456
    126  OD2      -20.3480   -9.9670   -5.8580 O.co2 118  ASP118     -0.2456
    127  N        -22.1040   -9.6240  -13.7650 N.3   121  TRP121     -0.1241
    128  CA       -22.9790  -10.8100  -13.9000 C.3   121  TRP121      0.1605
    129  C        -24.2540  -10.7790  -13.0910 C.2   121  TRP121      0.2264
    130  O        -25.1400  -11.5920  -13.3490 O.2   121  TRP121     -0.2867
    131  CB       -22.2320  -12.1220  -13.6420 C.3   121  TRP121      0.0550
    132  CG       -21.5900  -12.2740  -12.3020 C.ar  121  TRP121      0.0003
    133  CD1      -20.2530  -12.0850  -12.0000 C.ar  121  TRP121      0.0946
    134  CD2      -22.2080  -12.7210  -11.1010 C.ar  121  TRP121      0.0152
    135  NE1      -20.0230  -12.3550  -10.6790 N.ar  121  TRP121     -0.2442
    136  CE2      -21.2030  -12.7590  -10.1030 C.ar  121  TRP121      0.0810
    137  CE3      -23.5130  -13.0940  -10.7600 C.ar  121  TRP121      0.0012
    138  CZ2      -21.4720  -13.1420   -8.7860 C.ar  121  TRP121      0.0191
    139  CZ3      -23.7790  -13.4710   -9.4420 C.ar  121  TRP121      0.0001
    140  CH2      -22.7610  -13.4900   -8.4790 C.ar  121  TRP121      0.0015
    141  N         -8.0550  -11.5280  -13.9330 N.3   137  PHE137     -0.1241
    142  CA        -7.7950  -10.4820  -12.9450 C.3   137  PHE137      0.1605
    143  C         -6.3110  -10.1600  -12.8420 C.2   137  PHE137      0.2264
    144  O         -5.4690  -11.0280  -12.9780 O.2   137  PHE137     -0.2867
    145  CB        -8.2390  -10.9170  -11.5430 C.3   137  PHE137      0.0534
    146  CG        -9.6490  -10.5950  -11.2230 C.ar  137  PHE137     -0.0203
    147  CD1      -10.6840  -11.2550  -11.8680 C.ar  137  PHE137     -0.0042
    148  CD2       -9.9520   -9.6270  -10.2660 C.ar  137  PHE137     -0.0042
    149  CE1      -12.0010  -10.9580  -11.5710 C.ar  137  PHE137     -0.0003
    150  CE2      -11.2730   -9.3300   -9.9590 C.ar  137  PHE137     -0.0003
    151  CZ       -12.2940   -9.9890  -10.6140 C.ar  137  PHE137     -0.0000
@<TRIPOS>BOND
     1   141   142    1
     2   128   127    1
     3   128   131    1
     4   128   129    1
     5   131   132    1
     6   130   129    2
     7    60    61    1
     8   144   143    2
     9   142   143    1
    10   142   145    1
    11    62    61    1
    12    62    63    2
    13    61    64    1
    14    74    73    2
    15    73    72    1
    16   132   133   ar
    17   132   134   ar
    18    71    72    1
    19   133   135   ar
    20   114   113    2
    21   147   149   ar
    22   147   146   ar
    23    72    75    1
    24    66    68   ar
    25    66    65   ar
    26   149   151   ar
    27   145   146    1
    28    68    70   ar
    29   115   112    1
    30   115   116    1
    31    64    65    1
    32    65    67   ar
    33   146   148   ar
    34   112   113    1
    35   112   111    1
    36    85    84    2
    37   134   137   ar
    38   134   136   ar
    39   113   119   am
    40    93    92    2
    41    70    69   ar
    42   137   139   ar
    43    67    69   ar
    44   135   136   ar
    45   122   121    2
    46   151   150   ar
    47    84    83    1
    48    75    76    1
    49   148   150   ar
    50    82    83    1
    51   121   120    1
    52    90    91    1
    53   136   138   ar
    54   116   118   ar
    55   116   117   ar
    56    92    91    1
    57   119   120    1
    58   139   140   ar
    59   120   123    1
    60    83    86    1
    61    76    77   ar
    62    76    78   ar
    63    91    94    1
    64    77    79   ar
    65    94    96    1
    66    94    95    1
    67    78    80   ar
    68   138   140   ar
    69    86    87    1
    70    79    81   ar
    71    80    81   ar
    72   123   124    1
    73    87    88    1
    74   125   124   ar
    75   100    99    2
    76    99    98    1
    77   124   126   ar
    78     4     3    2
    79    88    89    1
    80     1     2    1
    81   101    98    1
    82   101   102    1
    83    23    21    1
    84    98    97    1
    85     7     6    1
    86     3     2    1
    87     3     9   am
    88   107   109   ar
    89   107   104   ar
    90    19    18    2
    91     2     5    1
    92     5     6    1
    93    20    21    1
    94    20    17    1
    95   109   110   ar
    96   102   104   ar
    97   102   103   ar
    98     6     8    1
    99   104   106   ar
   100    21    22    1
   101    16    17    1
   102    16    11   am
   103    10     9    1
   104    10    11    1
   105    10    13    1
   106    18    17    1
   107    11    12    2
   108   103   105   ar
   109   110   108   ar
   110   106   108   ar
   111   106   105   ar
   112    13    15    1
   113    13    14    1
   114    43    42   ar
   115    43    41   ar
   116    50    49    2
   117    42    40   ar
   118    51    49   am
   119    49    48    1
   120    41    39   ar
   121    59    58    2
   122    40    38   ar
   123    39    38   ar
   124    48    45    1
   125    45    46    1
   126    45    44    1
   127    58    57    1
   128    38    37    1
   129    46    47    2
   130    56    57    1
   131    56    54   am
   132    53    54    1
   133    53    52    1
   134    54    55    2
   135    37    34    1
   136    36    35    2
   137    35    34    1
   138    34    33    1
   139    32    31    1
   140    30    31    1
   141    30    29    1
   142    28    29    1
   143    28    25    1
   144    24    25    1
   145    25    26    1
   146    27    26    2
