@<TRIPOS>MOLECULE
tmp/5i00A00.pdb
 161 151 0 0 0
SMALL
GASTEIGER

@<TRIPOS>ATOM
      1  N         10.4310   11.0920   12.0890 N.3    36  VAL36      -0.1245
      2  CA         9.8260   12.0870   12.9700 C.3    36  VAL36       0.1561
      3  C          8.4910   12.5310   12.3970 C.2    36  VAL36       0.2260
      4  O          8.4070   12.9040   11.2200 O.2    36  VAL36      -0.2867
      5  CB        10.7590   13.2920   13.1810 C.3    36  VAL36       0.0252
      6  CG1       10.1050   14.3200   14.0910 C.3    36  VAL36       0.0019
      7  CG2       12.0860   12.8280   13.7690 C.3    36  VAL36       0.0019
      8  N          9.0660    8.9580   16.0260 N.3    59  LEU59      -0.1231
      9  CA         8.9070   10.0150   17.0210 C.3    59  LEU59       0.1693
     10  C          7.5440   10.6720   16.8890 C.2    59  LEU59       0.2593
     11  O          7.1160   11.0150   15.7800 O.2    59  LEU59      -0.2718
     12  CB         9.9820   11.0950   16.9020 C.3    59  LEU59       0.0284
     13  CG        11.1560   10.8900   17.8530 C.3    59  LEU59       0.0019
     14  CD1       12.0050    9.7370   17.3500 C.3    59  LEU59       0.0001
     15  CD2       11.9780   12.1670   18.0250 C.3    59  LEU59       0.0001
     16  N          6.8730   10.8540   18.0230 N.am   60  GLY60      -0.1942
     17  CA         5.7350   11.7440   18.0720 C.3    60  GLY60       0.2014
     18  C          6.1920   13.1620   18.3010 C.2    60  GLY60       0.2639
     19  O          7.3400   13.4050   18.6740 O.2    60  GLY60      -0.2714
     20  N          5.2800   14.1050   18.0770 N.am   61  ASN61      -0.1958
     21  CA         5.5880   15.5330   18.1320 C.3    61  ASN61       0.1819
     22  C          4.8380   16.1470   19.3160 C.2    61  ASN61       0.2621
     23  O          3.7460   16.7040   19.1750 O.2    61  ASN61      -0.2715
     24  CB         5.2070   16.1730   16.8000 C.3    61  ASN61       0.1195
     25  CG         5.9110   17.4830   16.5640 C.2    61  ASN61       0.2630
     26  OD1        5.9400   18.3480   17.4450 O.2    61  ASN61      -0.2716
     27  ND2        6.4880   17.6450   15.3700 N.am   61  ASN61      -0.0877
     28  N          5.4510   16.0420   20.5000 N.am   62  THR62      -0.1951
     29  CA         4.8340   16.5190   21.7330 C.3    62  THR62       0.1897
     30  C          4.3950   17.9740   21.6250 C.2    62  THR62       0.2313
     31  O          3.2710   18.3290   22.0060 O.2    62  THR62      -0.2863
     32  CB         5.8490   16.3620   22.8600 C.3    62  THR62       0.1794
     33  OG1        6.1510   14.9730   23.0150 O.3    62  THR62      -0.2208
     34  CG2        5.3250   16.9390   24.1780 C.3    62  THR62       0.0378
     35  N          9.7790   13.4750   22.3280 N.3    93  ASP93      -0.1225
     36  CA        10.6210   14.4810   22.9540 C.3    93  ASP93       0.1805
     37  C          9.8160   15.1960   24.0390 C.2    93  ASP93       0.2598
     38  O          8.5870   15.0770   24.1250 O.2    93  ASP93      -0.2718
     39  CB        11.1710   15.4600   21.9090 C.3    93  ASP93       0.1424
     40  CG        12.4190   16.2010   22.3910 C.2    93  ASP93       0.3668
     41  OD1       12.9090   15.9130   23.5140 O.co2  93  ASP93      -0.2456
     42  OD2       12.9160   17.0700   21.6330 O.co2  93  ASP93      -0.2456
     43  N         10.5220   15.9300   24.8920 N.am   94  SER94      -0.1952
     44  CA         9.9050   16.5130   26.0720 C.3    94  SER94       0.1924
     45  C          9.2810   17.8830   25.8290 C.2    94  SER94       0.2314
     46  O          8.5930   18.3890   26.7210 O.2    94  SER94      -0.2863
     47  CB        10.9300   16.6050   27.2000 C.3    94  SER94       0.2116
     48  OG        12.1460   17.1460   26.7220 O.3    94  SER94      -0.2180
     49  N         12.6530   21.8890   23.8510 N.3    97  TYR97      -0.1227
     50  CA        13.4890   22.2360   22.7030 C.3    97  TYR97       0.1736
     51  C         12.6700   22.9500   21.6400 C.2    97  TYR97       0.2595
     52  O         13.0700   24.0010   21.1270 O.2    97  TYR97      -0.2718
     53  CB        14.1630   20.9920   22.1040 C.3    97  TYR97       0.0548
     54  CG        14.7940   21.2700   20.7480 C.ar   97  TYR97      -0.0200
     55  CD1       16.1120   21.6990   20.6460 C.ar   97  TYR97      -0.0009
     56  CD2       14.0640   21.1140   19.5700 C.ar   97  TYR97      -0.0009
     57  CE1       16.6830   21.9750   19.4170 C.ar   97  TYR97       0.0417
     58  CE2       14.6230   21.3830   18.3360 C.ar   97  TYR97       0.0417
     59  CZ        15.9330   21.8160   18.2630 C.ar   97  TYR97       0.1957
     60  OH        16.4890   22.0860   17.0320 O.3    97  TYR97      -0.2866
     61  N         11.5130   22.3910   21.2950 N.am   98  GLN98      -0.1979
     62  CA        10.6980   23.0120   20.2580 C.3    98  GLN98       0.1601
     63  C         10.0660   24.3130   20.7380 C.2    98  GLN98       0.2287
     64  O          9.9400   25.2610   19.9560 O.2    98  GLN98      -0.2864
     65  CB         9.6450   22.0370   19.7430 C.3    98  GLN98       0.0394
     66  CG        10.2190   20.9810   18.8180 C.3    98  GLN98       0.0908
     67  CD         9.2140   20.5320   17.7850 C.2    98  GLN98       0.2608
     68  OE1        9.1680   21.0600   16.6690 O.2    98  GLN98      -0.2717
     69  NE2        8.3870   19.5690   18.1520 N.am   98  GLN98      -0.0878
     70  N         14.2850   18.9660   29.4820 N.3   143  ASP143     -0.1239
     71  CA        15.5980   19.5750   29.5710 C.3   143  ASP143      0.1674
     72  C         15.5590   20.9520   28.9270 C.2   143  ASP143      0.2266
     73  O         14.5390   21.3880   28.3800 O.2   143  ASP143     -0.2867
     74  CB        16.6480   18.7100   28.8630 C.3   143  ASP143      0.1410
     75  CG        16.3960   18.6020   27.3650 C.2   143  ASP143      0.3668
     76  OD1       15.2140   18.5730   26.9570 O.co2 143  ASP143     -0.2456
     77  OD2       17.3770   18.5420   26.5930 O.co2 143  ASP143     -0.2456
     78  N         17.8200   22.8590   26.0220 N.3   145  CYS145     -0.1235
     79  CA        18.8530   22.7530   24.9930 C.3   145  CYS145      0.1677
     80  C         19.5770   24.0880   24.9260 C.2   145  CYS145      0.2270
     81  O         19.0580   25.0660   24.3800 O.2   145  CYS145     -0.2867
     82  CB        18.2330   22.4060   23.6440 C.3   145  CYS145      0.0956
     83  SG        19.4430   22.2970   22.2920 S.3   145  CYS145     -0.0801
     84  N         18.8940   13.3160   29.3560 N.3   188  ILE188     -0.1245
     85  CA        19.5420   14.0770   28.2890 C.3   188  ILE188      0.1561
     86  C         20.7520   14.8210   28.8450 C.2   188  ILE188      0.2260
     87  O         20.6130   15.7140   29.6990 O.2   188  ILE188     -0.2867
     88  CB        18.5820   15.0490   27.5900 C.3   188  ILE188      0.0252
     89  CG1       17.3300   14.3200   27.1080 C.3   188  ILE188      0.0019
     90  CG2       19.2970   15.7320   26.4190 C.3   188  ILE188      0.0019
     91  CD1       16.2620   15.2650   26.5600 C.3   188  ILE188      0.0001
     92  N         23.6050   17.5490   28.8360 N.3   190  GLN190     -0.1245
     93  CA        23.8560   18.8960   28.3230 C.3   190  GLN190      0.1566
     94  C         25.2930   19.3110   28.6330 C.2   190  GLN190      0.2260
     95  O         26.1320   18.4530   28.9260 O.2   190  GLN190     -0.2867
     96  CB        22.8210   19.8770   28.8740 C.3   190  GLN190      0.0367
     97  CG        21.3870   19.5470   28.4120 C.3   190  GLN190      0.0905
     98  CD        21.1580   19.8310   26.9170 C.2   190  GLN190      0.2608
     99  OE1       21.9270   20.5590   26.2740 O.2   190  GLN190     -0.2717
    100  NE2       20.0880   19.2580   26.3640 N.am  190  GLN190     -0.0878
    101  N         22.2130   15.6740   24.2520 N.3   216  GLY216     -0.1210
    102  CA        21.4920   16.8570   23.8420 C.3   216  GLY216      0.1956
    103  C         22.4380   18.0000   23.5420 C.2   216  GLY216      0.2612
    104  O         23.6560   17.8950   23.6920 O.2   216  GLY216     -0.2717
    105  N         21.8510   19.1130   23.1060 N.am  217  GLY217     -0.1942
    106  CA        22.6250   20.3300   22.9200 C.3   217  GLY217      0.2014
    107  C         23.5610   20.3520   21.7320 C.2   217  GLY217      0.2639
    108  O         24.4110   21.2460   21.6500 O.2   217  GLY217     -0.2714
    109  N         23.4360   19.4110   20.8030 N.am  218  LEU218     -0.1963
    110  CA        24.2220   19.4060   19.5760 C.3   218  LEU218      0.1728
    111  C         23.2930   19.5480   18.3720 C.2   218  LEU218      0.2616
    112  O         22.0660   19.6000   18.5090 O.2   218  LEU218     -0.2715
    113  CB        25.1100   18.1600   19.4910 C.3   218  LEU218      0.0311
    114  CG        26.1940   18.0810   20.5780 C.3   218  LEU218      0.0022
    115  CD1       27.0160   16.8150   20.3760 C.3   218  LEU218      0.0001
    116  CD2       27.1070   19.3080   20.5820 C.3   218  LEU218      0.0001
    117  N         23.8910   19.6260   17.1860 N.am  219  ALA219     -0.1963
    118  CA        23.1520   19.9580   15.9700 C.3   219  ALA219      0.1728
    119  C         22.3570   21.2480   16.1600 C.2   219  ALA219      0.2616
    120  O         21.1650   21.3360   15.8440 O.2   219  ALA219     -0.2715
    121  CB        22.2620   18.7930   15.5200 C.3   219  ALA219      0.0334
    122  N         23.0360   22.2600   16.7070 N.am  220  VAL220     -0.1977
    123  CA        22.4240   23.5580   16.9740 C.3   220  VAL220      0.1596
    124  C         23.2790   24.6660   16.3750 C.2   220  VAL220      0.2287
    125  O         23.2540   25.8110   16.8430 O.2   220  VAL220     -0.2864
    126  CB        22.1900   23.7670   18.4800 C.3   220  VAL220      0.0276
    127  CG1       21.0400   22.8930   18.9510 C.3   220  VAL220      0.0022
    128  CG2       23.4670   23.4660   19.2620 C.3   220  VAL220      0.0022
    129  N         20.3060   13.4640   19.5950 N.3   247  MET247     -0.1230
    130  CA        19.0390   14.1060   19.2510 C.3   247  MET247      0.1702
    131  C         19.2030   15.0370   18.0580 C.2   247  MET247      0.2592
    132  O         20.1040   15.8830   18.0350 O.2   247  MET247     -0.2718
    133  CB        18.4980   14.8850   20.4540 C.3   247  MET247      0.0401
    134  CG        18.4090   14.0140   21.7200 C.3   247  MET247      0.0596
    135  SD        17.4230   14.7690   23.0410 S.3   247  MET247     -0.1393
    136  CE        15.7510   14.5300   22.4180 C.3   247  MET247      0.0692
    137  N         18.3140   14.8920   17.0800 N.am  248  GLY248     -0.1957
    138  CA        18.2540   15.8060   15.9520 C.3   248  GLY248      0.1869
    139  C         19.2600   15.5710   14.8400 C.2   248  GLY248      0.2309
    140  O         19.3820   16.4240   13.9550 O.2   248  GLY248     -0.2863
    141  N         17.3070   10.6860   15.4580 N.3   267  ASP267     -0.1225
    142  CA        16.0870   11.2190   14.8640 C.3   267  ASP267      0.1805
    143  C         16.4430   12.4990   14.1240 C.2   267  ASP267      0.2598
    144  O         17.3400   13.2340   14.5320 O.2   267  ASP267     -0.2718
    145  CB        15.0050   11.5480   15.9130 C.3   267  ASP267      0.1424
    146  CG        15.1890   12.9280   16.5330 C.2   267  ASP267      0.3668
    147  OD1       15.9710   13.0550   17.5000 O.co2 267  ASP267     -0.2456
    148  OD2       14.5630   13.8930   16.0410 O.co2 267  ASP267     -0.2456
    149  N         15.7260   12.7590   13.0340 N.am  268  CYS268     -0.1956
    150  CA        15.9640   13.9860   12.2880 C.3   268  CYS268      0.1843
    151  C         14.7890   14.2330   11.3550 C.2   268  CYS268      0.2625
    152  O         14.2630   13.2920   10.7560 O.2   268  CYS268     -0.2714
    153  CB        17.2640   13.8720   11.4780 C.3   268  CYS268      0.0997
    154  SG        17.8740   15.4220   10.8280 S.3   268  CYS268     -0.0797
    155  N         14.3860   15.5020   11.2240 N.am  269  VAL269     -0.1977
    156  CA        13.3490   15.8440   10.2500 C.3   269  VAL269      0.1596
    157  C         13.8650   15.8910    8.8170 C.2   269  VAL269      0.2287
    158  O         13.0590   15.9290    7.8810 O.2   269  VAL269     -0.2864
    159  CB        12.6610   17.1640   10.6480 C.3   269  VAL269      0.0276
    160  CG1       12.0980   17.0590   12.0590 C.3   269  VAL269      0.0022
    161  CG2       13.6400   18.3300   10.5600 C.3   269  VAL269      0.0022
@<TRIPOS>BOND
     1   158   157    2
     2   157   156    1
     3   156   159    1
     4   156   155    1
     5   161   159    1
     6   159   160    1
     7   152   151    2
     8   154   153    1
     9     4     3    2
    10   155   151   am
    11   151   150    1
    12   153   150    1
    13     1     2    1
    14   150   149    1
    15     3     2    1
    16     2     5    1
    17   149   143   am
    18     5     7    1
    19     5     6    1
    20   140   139    2
    21   143   144    2
    22   143   142    1
    23   139   138    1
    24   142   141    1
    25   142   145    1
    26    27    25   am
    27   121   118    1
    28    11    10    2
    29   120   119    2
    30   145   146    1
    31   138   137    1
    32   118   119    1
    33   118   117    1
    34     8     9    1
    35   148   146   ar
    36   119   122   am
    37   124   125    2
    38   124   123    1
    39   146   147   ar
    40    25    24    1
    41    25    26    2
    42    68    67    2
    43   122   123    1
    44    24    21    1
    45    10     9    1
    46    10    16   am
    47    12     9    1
    48    12    13    1
    49   123   126    1
    50    60    59    1
    51   137   131   am
    52   117   111   am
    53    14    13    1
    54    67    69   am
    55    67    66    1
    56    13    15    1
    57    16    17    1
    58   132   131    2
    59   131   130    1
    60    17    18    1
    61    20    21    1
    62    20    18   am
    63    21    22    1
    64    59    58   ar
    65    59    57   ar
    66    18    19    2
    67    58    56   ar
    68   111   112    2
    69   111   110    1
    70   126   127    1
    71   126   128    1
    72    66    65    1
    73    23    22    2
    74   130   129    1
    75   130   133    1
    76    22    28   am
    77    57    55   ar
    78   113   110    1
    79   113   114    1
    80    56    54   ar
    81   110   109    1
    82    65    62    1
    83    64    63    2
    84    62    63    1
    85    62    61    1
    86   115   114    1
    87   133   134    1
    88    28    29    1
    89   114   116    1
    90    55    54   ar
    91    54    53    1
    92   109   107   am
    93    52    51    2
    94    61    51   am
    95    30    29    1
    96    30    31    2
    97    42    40   ar
    98    51    50    1
    99   108   107    2
   100   134   135    1
   101   107   106    1
   102    29    32    1
   103    39    40    1
   104    39    36    1
   105    53    50    1
   106    83    82    1
   107    35    36    1
   108    40    41   ar
   109   136   135    1
   110    50    49    1
   111    32    33    1
   112    32    34    1
   113   106   105    1
   114    36    37    1
   115   105   103   am
   116   103   104    2
   117   103   102    1
   118    82    79    1
   119   102   101    1
   120    37    38    2
   121    37    43   am
   122    81    80    2
   123    43    44    1
   124    80    79    1
   125    79    78    1
   126    45    44    1
   127    45    46    2
   128    44    47    1
   129    99    98    2
   130   100    98   am
   131    90    88    1
   132    91    89    1
   133    77    75   ar
   134    48    47    1
   135    98    97    1
   136    76    75   ar
   137    89    88    1
   138    75    74    1
   139    88    85    1
   140    85    86    1
   141    85    84    1
   142    93    94    1
   143    93    92    1
   144    93    96    1
   145    73    72    2
   146    97    96    1
   147    94    95    2
   148    86    87    2
   149    74    71    1
   150    72    71    1
   151    70    71    1
