@<TRIPOS>MOLECULE
tmp/5i04A01.pdb
 187 182 0 0 0
SMALL
GASTEIGER

@<TRIPOS>ATOM
      1  N         40.5540   52.1330   80.4940 N.3    14  ASN14      -0.1240
      2  CA        41.1080   53.3440   79.9100 C.3    14  ASN14       0.1653
      3  C         42.1880   53.9290   80.8150 C.2    14  ASN14       0.2266
      4  O         42.1700   53.7560   82.0370 O.2    14  ASN14      -0.2867
      5  CB        39.9990   54.3680   79.6680 C.3    14  ASN14       0.1155
      6  CG        40.3670   55.3870   78.6060 C.2    14  ASN14       0.2627
      7  OD1       41.3120   55.1930   77.8410 O.2    14  ASN14      -0.2716
      8  ND2       39.6120   56.4760   78.5450 N.am   14  ASN14      -0.0877
      9  N         42.7680   56.8590   81.7890 N.3    16  ASP16      -0.1225
     10  CA        42.3660   57.9410   82.6760 C.3    16  ASP16       0.1805
     11  C         41.6450   57.4460   83.9230 C.2    16  ASP16       0.2597
     12  O         41.2120   58.2670   84.7360 O.2    16  ASP16      -0.2718
     13  CB        41.4710   58.9330   81.9230 C.3    16  ASP16       0.1424
     14  CG        40.2610   58.2660   81.2910 C.2    16  ASP16       0.3668
     15  OD1       40.2300   57.0210   81.2370 O.co2  16  ASP16      -0.2456
     16  OD2       39.3460   58.9860   80.8400 O.co2  16  ASP16      -0.2456
     17  N         41.5220   56.1340   84.1030 N.am   17  LYS17      -0.1979
     18  CA        40.7620   55.5630   85.2030 C.3    17  LYS17       0.1596
     19  C         41.6950   55.1520   86.3400 C.2    17  LYS17       0.2287
     20  O         42.9110   55.3530   86.2910 O.2    17  LYS17      -0.2864
     21  CB        39.9390   54.3720   84.7090 C.3    17  LYS17       0.0298
     22  CG        38.8280   54.7460   83.7460 C.3    17  LYS17       0.0038
     23  CD        37.7740   55.5990   84.4310 C.3    17  LYS17       0.0206
     24  CE        36.5860   55.8600   83.5240 C.3    17  LYS17       0.1093
     25  NZ        36.9520   56.6530   82.3200 N.3    17  LYS17      -0.1314
     26  N         39.1680   50.5690   73.1310 N.3    46  GLU46      -0.1245
     27  CA        37.8100   50.3050   72.6680 C.3    46  GLU46       0.1567
     28  C         37.7900   49.9370   71.1900 C.2    46  GLU46       0.2260
     29  O         36.9640   49.1210   70.7670 O.2    46  GLU46      -0.2867
     30  CB        36.9060   51.5130   72.9340 C.3    46  GLU46       0.0388
     31  CG        37.1110   52.7250   72.0180 C.3    46  GLU46       0.1160
     32  CD        38.3030   53.5710   72.4140 C.2    46  GLU46       0.3649
     33  OE1       39.2400   53.0330   73.0390 O.co2  46  GLU46      -0.2457
     34  OE2       38.2910   54.7820   72.1050 O.co2  46  GLU46      -0.2457
     35  N         34.8220   49.7340   80.0130 N.3    64  TRP64      -0.1227
     36  CA        34.5400   50.9170   79.2120 C.3    64  TRP64       0.1737
     37  C         33.0960   51.3290   79.4450 C.2    64  TRP64       0.2595
     38  O         32.2770   50.5410   79.9260 O.2    64  TRP64      -0.2718
     39  CB        34.7850   50.6630   77.7180 C.3    64  TRP64       0.0564
     40  CG        34.9090   51.9290   76.9250 C.ar   64  TRP64       0.0003
     41  CD1       33.9090   52.6000   76.2830 C.ar   64  TRP64       0.0946
     42  CD2       36.1050   52.6830   76.7030 C.ar   64  TRP64       0.0152
     43  NE1       34.4100   53.7250   75.6740 N.ar   64  TRP64      -0.2442
     44  CE2       35.7570   53.7980   75.9160 C.ar   64  TRP64       0.0810
     45  CE3       37.4370   52.5220   77.0920 C.ar   64  TRP64       0.0012
     46  CZ2       36.6940   54.7460   75.5100 C.ar   64  TRP64       0.0191
     47  CZ3       38.3650   53.4620   76.6900 C.ar   64  TRP64       0.0001
     48  CH2       37.9910   54.5610   75.9060 C.ar   64  TRP64       0.0015
     49  N         32.7950   52.5770   79.0970 N.am   65  ALA65      -0.1980
     50  CA        31.4160   53.0370   79.1110 C.3    65  ALA65       0.1597
     51  C         30.5480   52.1340   78.2400 C.2    65  ALA65       0.2287
     52  O         31.0020   51.5650   77.2430 O.2    65  ALA65      -0.2864
     53  CB        31.3340   54.4840   78.6270 C.3    65  ALA65       0.0319
     54  N         28.3230   52.5140   76.0700 N.3    67  ASP67      -0.1225
     55  CA        27.9160   52.8680   74.7110 C.3    67  ASP67       0.1805
     56  C         28.5350   51.9560   73.6570 C.2    67  ASP67       0.2597
     57  O         27.9410   51.7460   72.5930 O.2    67  ASP67      -0.2718
     58  CB        28.2890   54.3210   74.4110 C.3    67  ASP67       0.1424
     59  CG        29.7780   54.5720   74.5140 C.2    67  ASP67       0.3668
     60  OD1       30.4160   54.0250   75.4400 O.co2  67  ASP67      -0.2456
     61  OD2       30.3130   55.3060   73.6570 O.co2  67  ASP67      -0.2456
     62  N         29.7180   51.4070   73.9270 N.am   68  ARG68      -0.1979
     63  CA        30.4220   50.5890   72.9480 C.3    68  ARG68       0.1597
     64  C         29.9880   49.1300   72.9680 C.2    68  ARG68       0.2287
     65  O         30.0300   48.4570   71.9290 O.2    68  ARG68      -0.2864
     66  CB        31.9300   50.6710   73.2000 C.3    68  ARG68       0.0334
     67  CG        32.5270   52.0390   72.9090 C.3    68  ARG68       0.0492
     68  CD        33.0990   52.0900   71.5100 C.3    68  ARG68       0.2205
     69  NE        33.4770   53.4420   71.1160 N.pl3  68  ARG68      -0.0865
     70  CZ        34.1750   53.7250   70.0230 C.cat  68  ARG68       0.5346
     71  NH1       34.5760   52.7470   69.2220 N.pl3  68  ARG68       0.1354
     72  NH2       34.4770   54.9850   69.7370 N.pl3  68  ARG68       0.1354
     73  N         29.2460   57.9740   85.0540 N.3   113  GLU113     -0.1245
     74  CA        30.1260   59.0970   84.7700 C.3   113  GLU113      0.1567
     75  C         29.3400   60.2200   84.1070 C.2   113  GLU113      0.2260
     76  O         28.4380   59.9710   83.3000 O.2   113  GLU113     -0.2867
     77  CB        31.2790   58.6690   83.8550 C.3   113  GLU113      0.0388
     78  CG        31.9640   57.3720   84.2580 C.3   113  GLU113      0.1160
     79  CD        32.9170   56.8640   83.1940 C.2   113  GLU113      0.3649
     80  OE1       32.9360   57.4350   82.0830 O.co2 113  GLU113     -0.2457
     81  OE2       33.6420   55.8860   83.4670 O.co2 113  GLU113     -0.2457
     82  N         39.2030   69.6580   76.7200 N.3   152  ASN152     -0.1240
     83  CA        39.5800   68.8540   75.5650 C.3   152  ASN152      0.1653
     84  C         38.5960   69.0600   74.4210 C.2   152  ASN152      0.2266
     85  O         37.4000   68.7800   74.5540 O.2   152  ASN152     -0.2867
     86  CB        39.6420   67.3790   75.9600 C.3   152  ASN152      0.1155
     87  CG        40.0960   66.4910   74.8190 C.2   152  ASN152      0.2627
     88  OD1       40.6060   66.9700   73.8070 O.2   152  ASN152     -0.2716
     89  ND2       39.9200   65.1830   74.9830 N.am  152  ASN152     -0.0877
     90  N         37.9730   65.3580   71.5190 N.3   155  GLU155     -0.1231
     91  CA        36.9910   64.3020   71.6730 C.3   155  GLU155      0.1684
     92  C         35.5920   64.9040   71.7150 C.2   155  GLU155      0.2434
     93  O         35.3430   65.8200   72.5130 O.2   155  GLU155     -0.2733
     94  CB        37.2530   63.4920   72.9540 C.3   155  GLU155      0.0402
     95  CG        38.3910   62.4870   72.8290 C.3   155  GLU155      0.1161
     96  CD        38.0660   61.3510   71.8740 C.2   155  GLU155      0.3649
     97  OE1       36.8930   61.2390   71.4590 O.co2 155  GLU155     -0.2457
     98  OE2       38.9820   60.5710   71.5360 O.co2 155  GLU155     -0.2457
     99  N         34.6530   64.4290   70.8880 N.am  156  PRO156     -0.2718
    100  CA        33.3010   65.0130   70.9070 C.3   156  PRO156      0.1535
    101  C         32.5810   64.8190   72.2280 C.2   156  PRO156      0.2599
    102  O         31.5930   65.5160   72.4890 O.2   156  PRO156     -0.2715
    103  CB        32.5870   64.2770   69.7660 C.3   156  PRO156      0.0310
    104  CG        33.3080   62.9850   69.6450 C.3   156  PRO156      0.0237
    105  CD        34.7430   63.2970   69.9490 C.3   156  PRO156      0.0939
    106  N         33.0440   63.8880   73.0660 N.am  157  TYR157     -0.1960
    107  CA        32.4120   63.6600   74.3600 C.3   157  TYR157      0.1771
    108  C         32.4180   64.9290   75.2030 C.2   157  TYR157      0.2619
    109  O         31.4330   65.2370   75.8840 O.2   157  TYR157     -0.2715
    110  CB        33.1340   62.5200   75.0810 C.3   157  TYR157      0.0574
    111  CG        32.6200   62.2070   76.4710 C.ar  157  TYR157     -0.0198
    112  CD1       31.4490   61.4840   76.6540 C.ar  157  TYR157     -0.0009
    113  CD2       33.3210   62.6140   77.6000 C.ar  157  TYR157     -0.0009
    114  CE1       30.9820   61.1890   77.9180 C.ar  157  TYR157      0.0417
    115  CE2       32.8630   62.3230   78.8720 C.ar  157  TYR157      0.0417
    116  CZ        31.6930   61.6090   79.0260 C.ar  157  TYR157      0.1957
    117  OH        31.2300   61.3160   80.2890 O.3   157  TYR157     -0.2866
    118  N         33.5130   65.6930   75.1500 N.am  158  PHE158     -0.1974
    119  CA        33.6600   66.8600   76.0130 C.3   158  PHE158      0.1639
    120  C         32.8830   68.0650   75.5020 C.2   158  PHE158      0.2290
    121  O         32.4230   68.8840   76.3070 O.2   158  PHE158     -0.2864
    122  CB        35.1390   67.2170   76.1540 C.3   158  PHE158      0.0560
    123  CG        35.9310   66.2040   76.9280 C.ar  158  PHE158     -0.0200
    124  CD1       36.3690   65.0380   76.3230 C.ar  158  PHE158     -0.0042
    125  CD2       36.2350   66.4160   78.2610 C.ar  158  PHE158     -0.0042
    126  CE1       37.0950   64.1040   77.0320 C.ar  158  PHE158     -0.0003
    127  CE2       36.9620   65.4860   78.9750 C.ar  158  PHE158     -0.0003
    128  CZ        37.3930   64.3290   78.3610 C.ar  158  PHE158     -0.0000
    129  N         37.2270   61.0610   87.3350 N.3   232  TRP232     -0.1241
    130  CA        38.5930   60.5510   87.2610 C.3   232  TRP232      0.1605
    131  C         39.6340   61.6610   87.3600 C.2   232  TRP232      0.2264
    132  O         40.7540   61.4200   87.8260 O.2   232  TRP232     -0.2867
    133  CB        38.7790   59.7820   85.9530 C.3   232  TRP232      0.0550
    134  CG        38.4180   60.6010   84.7520 C.ar  232  TRP232      0.0003
    135  CD1       39.2080   61.5120   84.1150 C.ar  232  TRP232      0.0946
    136  CD2       37.1660   60.5980   84.0570 C.ar  232  TRP232      0.0152
    137  NE1       38.5270   62.0760   83.0650 N.ar  232  TRP232     -0.2442
    138  CE2       37.2710   61.5320   83.0060 C.ar  232  TRP232      0.0810
    139  CE3       35.9670   59.8970   84.2200 C.ar  232  TRP232      0.0012
    140  CZ2       36.2250   61.7810   82.1200 C.ar  232  TRP232      0.0191
    141  CZ3       34.9290   60.1440   83.3400 C.ar  232  TRP232      0.0001
    142  CH2       35.0640   61.0800   82.3020 C.ar  232  TRP232      0.0015
    143  N         27.7110   58.3700   80.8920 N.3   262  GLY262     -0.1225
    144  CA        28.2930   57.0650   80.6930 C.3   262  GLY262      0.1811
    145  C         28.1110   56.1870   81.9130 C.2   262  GLY262      0.2280
    146  O         27.9020   56.6650   83.0260 O.2   262  GLY262     -0.2866
    147  N         30.3770   53.2700   83.3800 N.3   264  LEU264     -0.1245
    148  CA        31.5460   52.4060   83.3610 C.3   264  LEU264      0.1561
    149  C         31.1130   50.9710   83.6050 C.2   264  LEU264      0.2260
    150  O         30.4960   50.6600   84.6280 O.2   264  LEU264     -0.2867
    151  CB        32.5590   52.8530   84.4180 C.3   264  LEU264      0.0270
    152  CG        33.8760   52.0710   84.3960 C.3   264  LEU264      0.0019
    153  CD1       34.6190   52.3000   83.0730 C.3   264  LEU264      0.0001
    154  CD2       34.7560   52.4340   85.5840 C.3   264  LEU264      0.0001
    155  N         23.9780   57.5270   77.2470 N.3   332  MET332     -0.1245
    156  CA        24.3130   57.2310   75.8660 C.3   332  MET332      0.1570
    157  C         23.5460   56.0000   75.3830 C.2   332  MET332      0.2261
    158  O         23.2860   55.0760   76.1590 O.2   332  MET332     -0.2867
    159  CB        25.8140   56.9850   75.7210 C.3   332  MET332      0.0387
    160  CG        26.6700   58.1740   76.1000 C.3   332  MET332      0.0595
    161  SD        28.4210   57.9440   75.7560 S.3   332  MET332     -0.1393
    162  CE        28.8480   56.7200   76.9900 C.3   332  MET332      0.0692
    163  N         30.1000   58.2490   66.7420 N.3   342  TRP342     -0.1241
    164  CA        31.2030   58.9570   67.3730 C.3   342  TRP342      0.1605
    165  C         32.1960   59.4280   66.3260 C.2   342  TRP342      0.2264
    166  O         32.4680   60.6330   66.2120 O.2   342  TRP342     -0.2867
    167  CB        31.8720   58.0680   68.4250 C.3   342  TRP342      0.0550
    168  CG        31.1300   58.0580   69.7350 C.ar  342  TRP342      0.0003
    169  CD1       30.7110   56.9650   70.4360 C.ar  342  TRP342      0.0946
    170  CD2       30.7060   59.2020   70.4860 C.ar  342  TRP342      0.0152
    171  NE1       30.0610   57.3580   71.5810 N.ar  342  TRP342     -0.2442
    172  CE2       30.0440   58.7270   71.6350 C.ar  342  TRP342      0.0810
    173  CE3       30.8260   60.5840   70.2990 C.ar  342  TRP342      0.0012
    174  CZ2       29.5030   59.5830   72.5930 C.ar  342  TRP342      0.0191
    175  CZ3       30.2900   61.4310   71.2500 C.ar  342  TRP342      0.0001
    176  CH2       29.6360   60.9280   72.3840 C.ar  342  TRP342      0.0015
    177  N         33.1310   63.2760   65.8290 N.3   346  ARG346     -0.1245
    178  CA        34.5080   63.6820   66.0500 C.3   346  ARG346      0.1563
    179  C         35.0020   64.4960   64.8600 C.2   346  ARG346      0.2260
    180  O         35.2490   65.7060   64.9710 O.2   346  ARG346     -0.2867
    181  CB        35.3690   62.4380   66.2940 C.3   346  ARG346      0.0307
    182  CG        36.8370   62.7030   66.5640 C.3   346  ARG346      0.0489
    183  CD        37.5770   61.3870   66.7320 C.3   346  ARG346      0.2205
    184  NE        37.0890   60.6300   67.8820 N.pl3 346  ARG346     -0.0865
    185  CZ        37.3090   59.3340   68.0780 C.cat 346  ARG346      0.5346
    186  NH1       38.0070   58.6280   67.1970 N.pl3 346  ARG346      0.1354
    187  NH2       36.8200   58.7380   69.1580 N.pl3 346  ARG346      0.1354
@<TRIPOS>BOND
     1   179   180    2
     2   179   178    1
     3   177   178    1
     4   178   181    1
     5   166   165    2
     6   181   182    1
     7   165   164    1
     8   182   183    1
     9   183   184    1
    10   163   164    1
    11   186   185    1
    12   164   167    1
    13   184   185    2
    14   185   187    1
    15   167   168    1
    16    71    70    1
    17   104   103    1
    18   104   105    1
    19   168   169   ar
    20   168   170   ar
    21    72    70    1
    22   103   100    1
    23   105    99    1
    24    70    69    2
    25   173   170   ar
    26   173   175   ar
    27   169   171   ar
    28   170   172   ar
    29    29    28    2
    30    99   100    1
    31    99    92   am
    32   100   101    1
    33    69    68    1
    34    28    27    1
    35   175   176   ar
    36    97    96   ar
    37    68    67    1
    38    90    91    1
    39    98    96   ar
    40   171   172   ar
    41   172   174   ar
    42    91    92    1
    43    91    94    1
    44    92    93    2
    45    96    95    1
    46    65    64    2
    47    31    32    1
    48    31    30    1
    49    34    32   ar
    50   101   102    2
    51   101   106   am
    52   176   174   ar
    53    32    33   ar
    54    57    56    2
    55    27    30    1
    56    27    26    1
    57    95    94    1
    58    67    66    1
    59    63    64    1
    60    63    66    1
    61    63    62    1
    62   106   107    1
    63    61    59   ar
    64    56    62   am
    65    56    55    1
    66    88    87    2
    67   107   110    1
    68   107   108    1
    69    58    59    1
    70    58    55    1
    71    84    85    2
    72    84    83    1
    73    59    60   ar
    74    55    54    1
    75    87    89   am
    76    87    86    1
    77   110   111    1
    78   118   108   am
    79   118   119    1
    80   108   109    2
    81   157   156    1
    82   157   158    2
    83   120   119    1
    84   120   121    2
    85    46    48   ar
    86    46    44   ar
    87    83    86    1
    88    83    82    1
    89    43    44   ar
    90    43    41   ar
    91   159   156    1
    92   159   160    1
    93   161   160    1
    94   161   162    1
    95   156   155    1
    96    48    47   ar
    97    44    42   ar
    98   119   122    1
    99   122   123    1
   100    41    40   ar
   101   124   123   ar
   102   124   126   ar
   103   111   112   ar
   104   111   113   ar
   105   112   114   ar
   106    47    45   ar
   107    42    40   ar
   108    42    45   ar
   109    40    39    1
   110   123   125   ar
   111   126   128   ar
   112    52    51    2
   113   113   115   ar
   114    39    36    1
   115     7     6    2
   116   114   116   ar
   117    51    50    1
   118   125   127   ar
   119   128   127   ar
   120     8     6   am
   121     6     5    1
   122    53    50    1
   123   115   116   ar
   124   116   117    1
   125    49    50    1
   126    49    37   am
   127    36    37    1
   128    36    35    1
   129    37    38    2
   130     5     2    1
   131     2     1    1
   132     2     3    1
   133   144   143    1
   134   144   145    1
   135     3     4    2
   136    16    14   ar
   137    15    14   ar
   138    14    13    1
   139     9    10    1
   140   145   146    2
   141    13    10    1
   142    80    79   ar
   143   140   142   ar
   144   140   138   ar
   145   142   141   ar
   146    25    24    1
   147    10    11    1
   148   138   137   ar
   149   138   136   ar
   150   137   135   ar
   151   153   152    1
   152    79    81   ar
   153    79    78    1
   154    76    75    2
   155   141   139   ar
   156   148   147    1
   157   148   149    1
   158   148   151    1
   159    24    23    1
   160   149   150    2
   161    22    23    1
   162    22    21    1
   163    77    78    1
   164    77    74    1
   165    11    17   am
   166    11    12    2
   167   136   139   ar
   168   136   134   ar
   169    17    18    1
   170    75    74    1
   171   135   134   ar
   172   152   151    1
   173   152   154    1
   174    21    18    1
   175   134   133    1
   176    74    73    1
   177    18    19    1
   178   133   130    1
   179    20    19    2
   180   130   129    1
   181   130   131    1
   182   131   132    2
