@<TRIPOS>MOLECULE
tmp/5i04A00.pdb
 103 97 0 0 0
SMALL
GASTEIGER

@<TRIPOS>ATOM
      1  N         49.5020   41.4540   77.6120 N.3     2  THR2       -0.1218
      2  CA        49.4890   40.1150   78.1880 C.3     2  THR2        0.1862
      3  C         48.4080   39.2840   77.5090 C.2     2  THR2        0.2287
      4  O         47.2300   39.6590   77.5190 O.2     2  THR2       -0.2866
      5  CB        49.2460   40.1760   79.6970 C.3     2  THR2        0.1770
      6  OG1       50.2360   41.0050   80.3200 O.3     2  THR2       -0.2211
      7  CG2       49.3100   38.7800   80.3140 C.3     2  THR2        0.0375
      8  N         45.5080   33.4610   79.3020 N.3     5  GLU5       -0.1245
      9  CA        46.0100   32.1790   79.7660 C.3     5  GLU5        0.1567
     10  C         44.9710   31.6030   80.7120 C.2     5  GLU5        0.2260
     11  O         44.4910   32.3070   81.6060 O.2     5  GLU5       -0.2867
     12  CB        47.3670   32.3380   80.4660 C.3     5  GLU5        0.0388
     13  CG        47.8560   31.1050   81.2210 C.3     5  GLU5        0.1160
     14  CD        49.1010   31.3880   82.0380 C.2     5  GLU5        0.3649
     15  OE1       49.8610   32.3060   81.6640 O.co2   5  GLU5       -0.2457
     16  OE2       49.3080   30.7060   83.0650 O.co2   5  GLU5       -0.2457
     17  N         44.0710   32.6500   84.6910 N.3     8  LYS8       -0.1245
     18  CA        44.4780   34.0100   85.0150 C.3     8  LYS8        0.1561
     19  C         43.5270   34.9850   84.3360 C.2     8  LYS8        0.2260
     20  O         42.7680   34.6170   83.4370 O.2     8  LYS8       -0.2867
     21  CB        45.9310   34.2720   84.6000 C.3     8  LYS8        0.0271
     22  CG        46.9270   33.3750   85.3180 C.3     8  LYS8        0.0035
     23  CD        48.3350   33.9410   85.2880 C.3     8  LYS8        0.0206
     24  CE        49.2170   33.2620   86.3250 C.3     8  LYS8        0.1093
     25  NZ        50.5280   33.9460   86.4870 N.3     8  LYS8       -0.1314
     26  N         46.1800   35.1210   89.3460 N.3    36  LYS36      -0.1245
     27  CA        46.7970   36.4130   89.0860 C.3    36  LYS36       0.1561
     28  C         45.8670   37.2760   88.2410 C.2    36  LYS36       0.2260
     29  O         45.0560   36.7760   87.4560 O.2    36  LYS36      -0.2867
     30  CB        48.1430   36.2400   88.3800 C.3    36  LYS36       0.0271
     31  CG        48.9500   37.5320   88.2870 C.3    36  LYS36       0.0035
     32  CD        50.1440   37.3990   87.3620 C.3    36  LYS36       0.0206
     33  CE        50.7800   38.7570   87.1010 C.3    36  LYS36       0.1093
     34  NZ        51.8990   38.6850   86.1230 N.3    36  LYS36      -0.1314
     35  N         56.4260   30.9190   76.5590 N.3   417  GLU417     -0.1231
     36  CA        55.6190   31.0380   77.7620 C.3   417  GLU417      0.1699
     37  C         54.4790   30.0330   77.7080 C.2   417  GLU417      0.2592
     38  O         53.8180   29.8900   76.6730 O.2   417  GLU417     -0.2718
     39  CB        55.0840   32.4660   77.9240 C.3   417  GLU417      0.0402
     40  CG        56.1660   33.4650   78.3240 C.3   417  GLU417      0.1161
     41  CD        55.6760   34.9000   78.3210 C.2   417  GLU417      0.3649
     42  OE1       54.5440   35.1460   77.8530 O.co2 417  GLU417     -0.2457
     43  OE2       56.4280   35.7830   78.7870 O.co2 417  GLU417     -0.2457
     44  N         54.2570   29.3360   78.8200 N.am  418  PHE418     -0.1963
     45  CA        53.2740   28.2700   78.8740 C.3   418  PHE418      0.1756
     46  C         52.4280   28.3890   80.1320 C.2   418  PHE418      0.2461
     47  O         52.9060   28.8670   81.1650 O.2   418  PHE418     -0.2730
     48  CB        53.9570   26.8950   78.8510 C.3   418  PHE418      0.0574
     49  CG        54.8620   26.6890   77.6740 C.ar  418  PHE418     -0.0200
     50  CD1       54.3610   26.2210   76.4680 C.ar  418  PHE418     -0.0042
     51  CD2       56.2180   26.9570   77.7710 C.ar  418  PHE418     -0.0042
     52  CE1       55.1920   26.0260   75.3900 C.ar  418  PHE418     -0.0003
     53  CE2       57.0550   26.7630   76.6890 C.ar  418  PHE418     -0.0003
     54  CZ        56.5380   26.2980   75.4970 C.ar  418  PHE418     -0.0000
     55  N         51.1600   27.9490   80.0800 N.am  419  PRO419     -0.2716
     56  CA        50.3420   27.9420   81.3010 C.3   419  PRO419      0.1536
     57  C         50.8560   26.9460   82.3280 C.2   419  PRO419      0.2599
     58  O         51.8420   26.2420   82.0840 O.2   419  PRO419     -0.2715
     59  CB        48.9450   27.5510   80.7960 C.3   419  PRO419      0.0310
     60  CG        48.9800   27.7460   79.3240 C.3   419  PRO419      0.0237
     61  CD        50.3880   27.5030   78.9090 C.3   419  PRO419      0.0939
     62  N         50.1870   26.8800   83.4780 N.am  420  THR420     -0.1937
     63  CA        50.5660   25.9270   84.5130 C.3   420  THR420      0.2028
     64  C         50.5430   24.5070   83.9630 C.2   420  THR420      0.2642
     65  O         49.6790   24.1450   83.1600 O.2   420  THR420     -0.2714
     66  CB        49.6160   26.0330   85.7100 C.3   420  THR420      0.1808
     67  OG1       49.6170   27.3750   86.2130 O.3   420  THR420     -0.2208
     68  CG2       50.0390   25.0800   86.8240 C.3   420  THR420      0.0379
     69  N         51.5010   23.6990   84.4070 N.am  421  GLY421     -0.1954
     70  CA        51.5430   22.3020   84.0540 C.3   421  GLY421      0.1869
     71  C         52.5480   22.0050   82.9610 C.2   421  GLY421      0.2309
     72  O         53.0200   22.9020   82.2530 O.2   421  GLY421     -0.2863
     73  N         59.0740   29.2620   80.3130 N.3   445  ASN445     -0.1225
     74  CA        58.2790   29.7670   81.4220 C.3   445  ASN445      0.1785
     75  C         57.8320   28.6620   82.3690 C.2   445  ASN445      0.2597
     76  O         57.5010   28.9460   83.5250 O.2   445  ASN445     -0.2718
     77  CB        57.0810   30.4860   80.8040 C.3   445  ASN445      0.1169
     78  CG        56.1160   31.0870   81.7960 C.2   445  ASN445      0.2627
     79  OD1       56.3420   31.1450   83.0010 O.2   445  ASN445     -0.2716
     80  ND2       54.9990   31.5570   81.2380 N.am  445  ASN445     -0.0877
     81  N         57.8300   27.4150   81.9070 N.am  446  SER446     -0.1952
     82  CA        57.4290   26.2760   82.7170 C.3   446  SER446      0.1924
     83  C         58.1810   25.0470   82.2160 C.2   446  SER446      0.2314
     84  O         59.1190   25.1510   81.4200 O.2   446  SER446     -0.2863
     85  CB        55.9090   26.0810   82.6590 C.3   446  SER446      0.2116
     86  OG        55.5350   25.2960   81.5410 O.3   446  SER446     -0.2180
     87  N         64.6970   39.1890   80.3870 N.3   486  LYS486     -0.1245
     88  CA        64.7040   38.8600   78.9650 C.3   486  LYS486      0.1561
     89  C         65.6800   39.7430   78.1950 C.2   486  LYS486      0.2260
     90  O         66.5050   39.2410   77.4240 O.2   486  LYS486     -0.2867
     91  CB        63.2880   38.9790   78.4030 C.3   486  LYS486      0.0271
     92  CG        62.3220   37.9930   79.0370 C.3   486  LYS486      0.0035
     93  CD        60.8970   38.2110   78.5760 C.3   486  LYS486      0.0206
     94  CE        59.9470   37.2600   79.2850 C.3   486  LYS486      0.1093
     95  NZ        58.5260   37.4870   78.8990 N.3   486  LYS486     -0.1314
     96  N         53.4610   32.7040   73.0800 N.3   506  ASN506     -0.1240
     97  CA        52.6310   32.3150   74.2120 C.3   506  ASN506      0.1653
     98  C         51.9620   30.9780   73.9160 C.2   506  ASN506      0.2266
     99  O         51.1850   30.8590   72.9610 O.2   506  ASN506     -0.2867
    100  CB        51.5790   33.3820   74.5180 C.3   506  ASN506      0.1155
    101  CG        50.6670   32.9840   75.6670 C.2   506  ASN506      0.2627
    102  OD1       49.5190   32.5900   75.4550 O.2   506  ASN506     -0.2716
    103  ND2       51.1820   33.0660   76.8920 N.am  506  ASN506     -0.0877
@<TRIPOS>BOND
     1    99    98    2
     2    96    97    1
     3    98    97    1
     4    97   100    1
     5   100   101    1
     6    52    54   ar
     7    52    50   ar
     8   102   101    2
     9    54    53   ar
    10   101   103   am
    11    50    49   ar
    12    35    36    1
    13    38    37    2
    14    53    51   ar
    15    90    89    2
    16     3     4    2
    17     3     2    1
    18     1     2    1
    19    49    51   ar
    20    49    48    1
    21    37    36    1
    22    37    44   am
    23    36    39    1
    24    42    41   ar
    25    39    40    1
    26     2     5    1
    27    89    88    1
    28    41    40    1
    29    41    43   ar
    30    91    88    1
    31    91    92    1
    32    93    92    1
    33    93    94    1
    34    44    45    1
    35    48    45    1
    36    45    46    1
    37    95    94    1
    38    61    60    1
    39    61    55    1
    40    88    87    1
    41     8     9    1
    42    60    59    1
    43     5     7    1
    44     5     6    1
    45     9    12    1
    46     9    10    1
    47    55    46   am
    48    55    56    1
    49    46    47    2
    50    73    74    1
    51    12    13    1
    52    10    11    2
    53    59    56    1
    54    77    74    1
    55    77    78    1
    56    13    14    1
    57    80    78   am
    58    56    57    1
    59    84    83    2
    60    74    75    1
    61    86    85    1
    62    15    14   ar
    63    78    79    2
    64    81    75   am
    65    81    82    1
    66    14    16   ar
    67    58    57    2
    68    83    82    1
    69    72    71    2
    70    57    62   am
    71    75    76    2
    72    85    82    1
    73    71    70    1
    74    65    64    2
    75    20    19    2
    76    62    63    1
    77    64    69   am
    78    64    63    1
    79    70    69    1
    80    19    18    1
    81    63    66    1
    82    21    18    1
    83    21    22    1
    84    17    18    1
    85    23    22    1
    86    23    24    1
    87    66    67    1
    88    66    68    1
    89    34    33    1
    90    24    25    1
    91    33    32    1
    92    32    31    1
    93    29    28    2
    94    28    27    1
    95    31    30    1
    96    30    27    1
    97    27    26    1
