@<TRIPOS>MOLECULE
tmp/5i07B00.pdb
 157 146 0 0 0
SMALL
GASTEIGER

@<TRIPOS>ATOM
      1  N        -16.6200  -17.1050   52.4370 N.3    35  VAL35      -0.1245
      2  CA       -15.9530  -15.8120   52.5640 C.3    35  VAL35       0.1561
      3  C        -14.4770  -16.0280   52.8610 C.2    35  VAL35       0.2260
      4  O        -14.1140  -16.7570   53.7960 O.2    35  VAL35      -0.2867
      5  CB       -16.6120  -14.9670   53.6670 C.3    35  VAL35       0.0252
      6  CG1      -15.9260  -13.5970   53.7680 C.3    35  VAL35       0.0019
      7  CG2      -18.1050  -14.8200   53.4220 C.3    35  VAL35       0.0019
      8  N        -14.6120  -15.6170   48.4760 N.3    50  LEU50      -0.1231
      9  CA       -15.2620  -14.3270   48.2870 C.3    50  LEU50       0.1693
     10  C        -14.5230  -13.2260   49.0240 C.2    50  LEU50       0.2593
     11  O        -14.0600  -13.4250   50.1500 O.2    50  LEU50      -0.2718
     12  CB       -16.6860  -14.3420   48.8190 C.3    50  LEU50       0.0284
     13  CG       -17.5660  -15.4780   48.3230 C.3    50  LEU50       0.0019
     14  CD1      -18.9100  -15.3280   48.9770 C.3    50  LEU50       0.0001
     15  CD2      -17.6840  -15.4040   46.8100 C.3    50  LEU50       0.0001
     16  N        -14.4780  -12.0520   48.4070 N.am   51  GLY51      -0.1942
     17  CA       -14.0430  -10.8520   49.1020 C.3    51  GLY51       0.2014
     18  C        -15.2190   -9.9490   49.4180 C.2    51  GLY51       0.2638
     19  O        -15.9860   -9.5820   48.5140 O.2    51  GLY51      -0.2714
     20  N        -15.3900   -9.6150   50.7020 N.am   52  ASN52      -0.1972
     21  CA       -16.4120   -8.6700   51.1440 C.3    52  ASN52       0.1688
     22  C        -15.9050   -7.2560   50.8960 C.2    52  ASN52       0.2292
     23  O        -15.2110   -6.6590   51.7190 O.2    52  ASN52      -0.2864
     24  CB       -16.7710   -8.8970   52.6040 C.3    52  ASN52       0.1181
     25  CG       -17.8660   -7.9520   53.0880 C.2    52  ASN52       0.2629
     26  OD1      -18.6320   -7.4110   52.2970 O.2    52  ASN52      -0.2716
     27  ND2      -17.9580   -7.7760   54.4020 N.am   52  ASN52      -0.0877
     28  N        -14.2660  -14.1390   43.9010 N.3    82  LEU82      -0.1245
     29  CA       -15.4070  -13.3070   43.5410 C.3    82  LEU82       0.1561
     30  C        -15.5270  -12.1930   44.5720 C.2    82  LEU82       0.2260
     31  O        -15.3790  -12.4390   45.7730 O.2    82  LEU82      -0.2867
     32  CB       -16.7000  -14.1340   43.5050 C.3    82  LEU82       0.0270
     33  CG       -18.0140  -13.4750   43.0720 C.3    82  LEU82       0.0019
     34  CD1      -18.9310  -14.5230   42.4460 C.3    82  LEU82       0.0001
     35  CD2      -18.7100  -12.7880   44.2440 C.3    82  LEU82       0.0001
     36  N        -17.9980   -8.8280   45.8800 N.3    84  ASP84      -0.1225
     37  CA       -19.2860   -8.1690   45.7550 C.3    84  ASP84       0.1805
     38  C        -19.0840   -6.6970   45.3620 C.2    84  ASP84       0.2598
     39  O        -17.9670   -6.1650   45.3430 O.2    84  ASP84      -0.2718
     40  CB       -20.0760   -8.2980   47.0530 C.3    84  ASP84       0.1424
     41  CG       -21.5780   -8.1980   46.8360 C.2    84  ASP84       0.3668
     42  OD1      -22.0100   -8.0880   45.6710 O.co2  84  ASP84      -0.2456
     43  OD2      -22.3230   -8.2450   47.8260 O.co2  84  ASP84      -0.2456
     44  N        -20.1870   -6.0370   45.0380 N.am   85  SER85      -0.1952
     45  CA       -20.1330   -4.6870   44.4980 C.3    85  SER85       0.1924
     46  C        -20.3320   -3.5970   45.5430 C.2    85  SER85       0.2314
     47  O        -19.9590   -2.4400   45.2950 O.2    85  SER85      -0.2863
     48  CB       -21.1970   -4.5500   43.4090 C.3    85  SER85       0.2116
     49  OG       -22.4960   -4.7060   43.9660 O.3    85  SER85      -0.2180
     50  N        -25.2760   -4.7610   48.4920 N.3    88  TYR88      -0.1227
     51  CA       -25.9440   -5.2210   49.7050 C.3    88  TYR88       0.1736
     52  C        -25.8310   -4.1730   50.8100 C.2    88  TYR88       0.2595
     53  O        -26.8100   -3.9060   51.5180 O.2    88  TYR88      -0.2718
     54  CB       -25.3640   -6.5700   50.1790 C.3    88  TYR88       0.0548
     55  CG       -26.1200   -7.1090   51.3740 C.ar   88  TYR88      -0.0200
     56  CD1      -27.3650   -7.7170   51.2120 C.ar   88  TYR88      -0.0009
     57  CD2      -25.6230   -6.9650   52.6680 C.ar   88  TYR88      -0.0009
     58  CE1      -28.0870   -8.1840   52.3030 C.ar   88  TYR88       0.0417
     59  CE2      -26.3380   -7.4400   53.7630 C.ar   88  TYR88       0.0417
     60  CZ       -27.5730   -8.0410   53.5670 C.ar   88  TYR88       0.1957
     61  OH       -28.3090   -8.4910   54.6420 O.3    88  TYR88      -0.2866
     62  N        -24.6470   -3.5610   50.9680 N.am   89  GLN89      -0.1979
     63  CA       -24.4730   -2.5470   52.0060 C.3    89  GLN89       0.1601
     64  C        -25.1830   -1.2430   51.6570 C.2    89  GLN89       0.2287
     65  O        -25.5470   -0.4890   52.5670 O.2    89  GLN89      -0.2864
     66  CB       -22.9840   -2.2790   52.2700 C.3    89  GLN89       0.0394
     67  CG       -22.2350   -3.4240   52.9930 C.3    89  GLN89       0.0908
     68  CD       -21.8980   -4.5940   52.0720 C.2    89  GLN89       0.2608
     69  OE1      -21.7880   -4.4250   50.8570 O.2    89  GLN89      -0.2717
     70  NE2      -21.7050   -5.7860   52.6540 N.am   89  GLN89      -0.0878
     71  N        -25.2530   -2.6260   42.2740 N.3   138  ASP138     -0.1239
     72  CA       -26.6990   -2.7110   42.3180 C.3   138  ASP138      0.1674
     73  C        -27.1790   -2.1170   43.6250 C.2   138  ASP138      0.2266
     74  O        -26.3860   -1.5900   44.4140 O.2   138  ASP138     -0.2867
     75  CB       -27.1550   -4.1670   42.1800 C.3   138  ASP138      0.1410
     76  CG       -26.6890   -5.0390   43.3340 C.2   138  ASP138      0.3668
     77  OD1      -25.5670   -4.8130   43.8600 O.co2 138  ASP138     -0.2456
     78  OD2      -27.4510   -5.9510   43.7180 O.co2 138  ASP138     -0.2456
     79  N        -29.5000   -3.9390   46.5660 N.3   140  CYS140     -0.1235
     80  CA       -30.3600   -4.9750   47.1220 C.3   140  CYS140      0.1677
     81  C        -31.6120   -4.2860   47.6550 C.2   140  CYS140      0.2270
     82  O        -31.5840   -3.6320   48.6970 O.2   140  CYS140     -0.2867
     83  CB       -29.6390   -5.7470   48.2240 C.3   140  CYS140      0.0956
     84  SG       -30.6490   -7.0470   48.9370 S.3   140  CYS140     -0.0801
     85  N        -26.8000   -8.4450   38.0640 N.3   183  ILE183     -0.1245
     86  CA       -27.6270   -8.8130   39.2130 C.3   183  ILE183      0.1561
     87  C        -29.0760   -8.4320   38.9410 C.2   183  ILE183      0.2260
     88  O        -29.3950   -7.2450   38.7670 O.2   183  ILE183     -0.2867
     89  CB       -27.1440   -8.1520   40.5170 C.3   183  ILE183      0.0252
     90  CG1      -25.6890   -8.4970   40.7800 C.3   183  ILE183      0.0019
     91  CG2      -27.9620   -8.6420   41.7040 C.3   183  ILE183      0.0019
     92  CD1      -25.1100   -7.8030   42.0310 C.3   183  ILE183      0.0001
     93  N        -32.8560   -7.6930   39.9720 N.3   185  GLN185     -0.1245
     94  CA       -33.6370   -7.2120   41.1110 C.3   185  GLN185      0.1566
     95  C        -35.1210   -7.2640   40.7490 C.2   185  GLN185      0.2260
     96  O        -35.5000   -7.9540   39.7960 O.2   185  GLN185     -0.2867
     97  CB       -33.2010   -5.7990   41.5300 C.3   185  GLN185      0.0367
     98  CG       -31.7190   -5.7200   41.9810 C.3   185  GLN185      0.0905
     99  CD       -31.4440   -6.3860   43.3310 C.2   185  GLN185      0.2608
    100  OE1      -32.3610   -6.6410   44.1210 O.2   185  GLN185     -0.2717
    101  NE2      -30.1650   -6.6670   43.6010 N.am  185  GLN185     -0.0878
    102  N        -31.5280   -9.4760   45.6940 N.3   212  GLY212     -0.1210
    103  CA       -32.7190   -9.0700   46.4180 C.3   212  GLY212      0.1956
    104  C        -33.4510  -10.1480   47.1950 C.2   212  GLY212      0.2612
    105  O        -34.5630   -9.8920   47.6600 O.2   212  GLY212     -0.2717
    106  N        -32.8940  -11.3560   47.3220 N.am  213  LEU213     -0.1965
    107  CA       -33.4180  -12.3850   48.2090 C.3   213  LEU213      0.1728
    108  C        -32.4580  -12.5950   49.3770 C.2   213  LEU213      0.2616
    109  O        -31.4540  -11.8860   49.5170 O.2   213  LEU213     -0.2715
    110  CB       -33.6710  -13.6890   47.4440 C.3   213  LEU213      0.0311
    111  CG       -34.7100  -13.5020   46.3450 C.3   213  LEU213      0.0022
    112  CD1      -34.8550  -14.7950   45.5160 C.3   213  LEU213      0.0001
    113  CD2      -36.0480  -13.0720   46.9350 C.3   213  LEU213      0.0001
    114  N        -32.7880  -13.5730   50.2310 N.am  214  ALA214     -0.1963
    115  CA       -32.1090  -13.7770   51.5140 C.3   214  ALA214      0.1728
    116  C        -32.0390  -12.4630   52.2890 C.2   214  ALA214      0.2616
    117  O        -30.9800  -12.0360   52.7660 O.2   214  ALA214     -0.2715
    118  CB       -30.7160  -14.3820   51.3210 C.3   214  ALA214      0.0334
    119  N        -33.1960  -11.8080   52.3850 N.am  215  VAL215     -0.1977
    120  CA       -33.3410  -10.5680   53.1290 C.3   215  VAL215      0.1596
    121  C        -34.5210  -10.6870   54.0810 C.2   215  VAL215      0.2287
    122  O        -35.1260   -9.6790   54.4580 O.2   215  VAL215     -0.2864
    123  CB       -33.5190   -9.3670   52.1830 C.3   215  VAL215      0.0276
    124  CG1      -32.1960   -9.0070   51.5580 C.3   215  VAL215      0.0022
    125  CG2      -34.5380   -9.6800   51.1020 C.3   215  VAL215      0.0022
    126  N        -26.3630  -17.2810   39.9450 N.3   240  TYR240     -0.1241
    127  CA       -25.7900  -17.1320   41.2870 C.3   240  TYR240      0.1605
    128  C        -26.8580  -16.5330   42.2030 C.2   240  TYR240      0.2264
    129  O        -27.2800  -15.3830   42.0160 O.2   240  TYR240     -0.2867
    130  CB       -24.5080  -16.2850   41.2090 C.3   240  TYR240      0.0534
    131  CG       -23.9460  -15.7050   42.5120 C.ar  240  TYR240     -0.0201
    132  CD1      -24.1940  -16.2970   43.7450 C.ar  240  TYR240     -0.0009
    133  CD2      -23.1760  -14.5300   42.4820 C.ar  240  TYR240     -0.0009
    134  CE1      -23.6760  -15.7490   44.9220 C.ar  240  TYR240      0.0417
    135  CE2      -22.6760  -13.9610   43.6360 C.ar  240  TYR240      0.0417
    136  CZ       -22.9250  -14.5740   44.8540 C.ar  240  TYR240      0.1957
    137  OH       -22.4280  -14.0160   46.0010 O.3   240  TYR240     -0.2866
    138  N        -27.6040  -14.9050   45.4990 N.3   242  MET242     -0.1230
    139  CA       -26.8190  -14.2090   46.5160 C.3   242  MET242      0.1702
    140  C        -27.4200  -14.3890   47.9110 C.2   242  MET242      0.2592
    141  O        -28.6120  -14.1430   48.1260 O.2   242  MET242     -0.2718
    142  CB       -26.7120  -12.7280   46.1670 C.3   242  MET242      0.0401
    143  CG       -26.2850  -12.5000   44.7030 C.3   242  MET242      0.0596
    144  SD       -25.8930  -10.7840   44.3150 S.3   242  MET242     -0.1393
    145  CE       -24.1540  -10.7490   44.7260 C.3   242  MET242      0.0692
    146  N        -26.5890  -14.8330   48.8650 N.am  243  GLY243     -0.1957
    147  CA       -26.9680  -14.8800   50.2620 C.3   243  GLY243      0.1869
    148  C        -27.6310  -16.1620   50.7330 C.2   243  GLY243      0.2309
    149  O        -27.8510  -16.3090   51.9380 O.2   243  GLY243     -0.2863
    150  N        -23.6590  -18.2300   48.1150 N.3   262  ASP262     -0.1239
    151  CA       -22.8750  -17.7550   49.2510 C.3   262  ASP262      0.1674
    152  C        -23.8160  -17.5710   50.4290 C.2   262  ASP262      0.2266
    153  O        -25.0020  -17.2960   50.2450 O.2   262  ASP262     -0.2867
    154  CB       -22.1890  -16.4190   48.9700 C.3   262  ASP262      0.1410
    155  CG       -23.1410  -15.2360   49.1110 C.2   262  ASP262      0.3668
    156  OD1      -23.8210  -14.8980   48.1100 O.co2 262  ASP262     -0.2456
    157  OD2      -23.2080  -14.6450   50.2270 O.co2 262  ASP262     -0.2456
@<TRIPOS>BOND
     1    85    86    1
     2    88    87    2
     3    87    86    1
     4    86    89    1
     5    96    95    2
     6   126   127    1
     7    93    94    1
     8    89    90    1
     9    89    91    1
    10    95    94    1
    11    90    92    1
    12    94    97    1
    13   130   127    1
    14   130   131    1
    15   127   128    1
    16    97    98    1
    17    98    99    1
    18   129   128    2
    19    75    72    1
    20    75    76    1
    21    71    72    1
    22    72    73    1
    23    34    33    1
    24   133   131   ar
    25   133   135   ar
    26   131   132   ar
    27    33    32    1
    28    33    35    1
    29    99   101   am
    30    99   100    2
    31    76    78   ar
    32    76    77   ar
    33    48    49    1
    34    48    45    1
    35    32    29    1
    36    29    28    1
    37    29    30    1
    38    73    74    2
    39   135   136   ar
    40   132   134   ar
    41   144   143    1
    42   144   145    1
    43    45    44    1
    44    45    46    1
    45    30    31    2
    46   143   142    1
    47   136   134   ar
    48   136   137    1
    49    44    38   am
    50    47    46    2
    51    39    38    2
    52    38    37    1
    53   138   139    1
    54   112   111    1
    55    42    41   ar
    56   102   103    1
    57    37    36    1
    58    37    40    1
    59   142   139    1
    60   111   113    1
    61   111   110    1
    62   103   104    1
    63   139   140    1
    64    79    80    1
    65    15    13    1
    66    41    40    1
    67    41    43   ar
    68    80    81    1
    69    80    83    1
    70   104   106   am
    71   104   105    2
    72   106   107    1
    73   110   107    1
    74    81    82    2
    75   140   141    2
    76   140   146   am
    77   156   155   ar
    78   150   151    1
    79   107   108    1
    80    83    84    1
    81     9     8    1
    82     9    12    1
    83     9    10    1
    84    13    12    1
    85    13    14    1
    86    16    10   am
    87    16    17    1
    88    50    51    1
    89    19    18    2
    90   146   147    1
    91   154   155    1
    92   154   151    1
    93    10    11    2
    94    17    18    1
    95   155   157   ar
    96   151   152    1
    97   108   109    2
    98   108   114   am
    99    18    20   am
   100    51    54    1
   101    51    52    1
   102    54    55    1
   103   114   115    1
   104   153   152    2
   105   147   148    1
   106    20    21    1
   107   148   149    2
   108    52    62   am
   109    52    53    2
   110    69    68    2
   111    22    21    1
   112    22    23    2
   113    62    63    1
   114   125   123    1
   115    21    24    1
   116    56    55   ar
   117    56    58   ar
   118   118   115    1
   119    55    57   ar
   120   115   116    1
   121   124   123    1
   122    64    63    1
   123    64    65    2
   124    63    66    1
   125    68    70   am
   126    68    67    1
   127   123   120    1
   128    66    67    1
   129   116   119   am
   130   116   117    2
   131    26    25    2
   132    58    60   ar
   133   119   120    1
   134     1     2    1
   135     2     3    1
   136     2     5    1
   137    24    25    1
   138    57    59   ar
   139     3     4    2
   140    25    27   am
   141   120   121    1
   142     7     5    1
   143    60    59   ar
   144    60    61    1
   145     5     6    1
   146   121   122    2
