@<TRIPOS>MOLECULE
tmp/5i0bA00.pdb
 112 105 0 0 0
SMALL
GASTEIGER

@<TRIPOS>ATOM
      1  N         13.0470    4.7670   18.1840 N.3    27  ILE27      -0.1231
      2  CA        13.8320    5.3930   17.1220 C.3    27  ILE27       0.1696
      3  C         13.5750    4.6770   15.8000 C.2    27  ILE27       0.2631
      4  O         14.1980    4.9870   14.7790 O.2    27  ILE27      -0.2714
      5  CB        15.3570    5.4010   17.4130 C.3    27  ILE27       0.0266
      6  CG1       15.8730    3.9830   17.6680 C.3    27  ILE27       0.0019
      7  CG2       15.7180    6.3640   18.5500 C.3    27  ILE27       0.0020
      8  CD1       17.2060    3.7010   17.0110 C.3    27  ILE27       0.0001
      9  N         12.6590    3.7130   15.8190 N.am   28  GLY28      -0.1732
     10  CA        12.4660    2.8980   14.6440 C.2    28  GLY28       0.1340
     11  C         11.3950    1.8410   14.6850 C.2    28  GLY28       0.2521
     12  O         10.6540    1.6830   15.6690 O.2    28  GLY28      -0.2816
     13  N         12.3070   -0.4320   17.4390 N.3    35  VAL35      -0.1245
     14  CA        13.6140   -0.2390   18.0510 C.3    35  VAL35       0.1561
     15  C         13.6560    1.0080   18.9540 C.2    35  VAL35       0.2260
     16  O         13.3410    2.1200   18.5280 O.2    35  VAL35      -0.2867
     17  CB        14.7260   -0.1900   16.9980 C.3    35  VAL35       0.0252
     18  CG1       16.0640    0.0740   17.6690 C.3    35  VAL35       0.0019
     19  CG2       14.7610   -1.4990   16.2170 C.3    35  VAL35       0.0019
     20  N         20.8170   -0.0160   22.3290 N.3    48  ALA48      -0.1245
     21  CA        19.6290   -0.2000   21.5290 C.3    48  ALA48       0.1562
     22  C         18.8640   -1.4150   22.0450 C.2    48  ALA48       0.2260
     23  O         19.4570   -2.4200   22.4570 O.2    48  ALA48      -0.2867
     24  CB        19.9910   -0.3810   20.0800 C.3    48  ALA48       0.0290
     25  N         15.7220   -3.9290   20.8240 N.3    50  LYS50      -0.1245
     26  CA        14.7550   -4.4220   19.8520 C.3    50  LYS50       0.1561
     27  C         13.5840   -5.0150   20.6440 C.2    50  LYS50       0.2260
     28  O         13.7880   -5.8100   21.5470 O.2    50  LYS50      -0.2867
     29  CB        15.4220   -5.4860   18.9600 C.3    50  LYS50       0.0271
     30  CG        15.8870   -4.9740   17.5900 C.3    50  LYS50       0.0035
     31  CD        17.2090   -5.5540   17.0780 C.3    50  LYS50       0.0206
     32  CE        17.1580   -7.0630   16.8310 C.3    50  LYS50       0.1093
     33  NZ        18.2200   -7.5970   15.9110 N.3    50  LYS50      -0.1314
     34  N         27.0610   -6.0880   14.9300 N.3    79  VAL79      -0.1245
     35  CA        26.4700   -5.3920   16.0660 C.3    79  VAL79       0.1561
     36  C         26.2690   -6.4070   17.1730 C.2    79  VAL79       0.2260
     37  O         25.5850   -7.4210   16.9710 O.2    79  VAL79      -0.2867
     38  CB        25.1100   -4.7650   15.7050 C.3    79  VAL79       0.0252
     39  CG1       24.5880   -3.9300   16.8540 C.3    79  VAL79       0.0019
     40  CG2       25.2420   -3.9060   14.4690 C.3    79  VAL79       0.0019
     41  N         21.1710   -4.4080   22.7210 N.3    95  MET95      -0.1230
     42  CA        22.3320   -4.4330   21.8510 C.3    95  MET95       0.1702
     43  C         23.1620   -3.1640   21.9150 C.2    95  MET95       0.2592
     44  O         22.6940   -2.1080   22.3520 O.2    95  MET95      -0.2718
     45  CB        21.9140   -4.7010   20.4010 C.3    95  MET95       0.0401
     46  CG        20.9350   -5.8580   20.2460 C.3    95  MET95       0.0596
     47  SD        20.8200   -6.6170   18.6120 S.3    95  MET95      -0.1393
     48  CE        22.4310   -7.4140   18.4120 C.3    95  MET95       0.0692
     49  N         24.4100   -3.3180   21.4870 N.am   96  GLU96      -0.1966
     50  CA        25.3340   -2.2460   21.2300 C.3    96  GLU96       0.1733
     51  C         24.6380   -1.1520   20.4270 C.2    96  GLU96       0.2616
     52  O         23.9090   -1.4550   19.4840 O.2    96  GLU96      -0.2715
     53  CB        26.4730   -2.8520   20.4300 C.3    96  GLU96       0.0429
     54  CG        27.4300   -1.8760   19.8150 C.3    96  GLU96       0.1163
     55  CD        28.6010   -2.5770   19.1890 C.2    96  GLU96       0.3649
     56  OE1       28.4310   -3.7220   18.6850 O.co2  96  GLU96      -0.2457
     57  OE2       29.6980   -1.9730   19.2040 O.co2  96  GLU96      -0.2457
     58  N         24.8370    0.1110   20.7950 N.am   97  PHE97      -0.1960
     59  CA        24.2240    1.2230   20.0430 C.3    97  PHE97       0.1771
     60  C         25.1360    1.8080   18.9670 C.2    97  PHE97       0.2619
     61  O         26.3020    2.0910   19.2230 O.2    97  PHE97      -0.2715
     62  CB        23.7880    2.3390   20.9990 C.3    97  PHE97       0.0574
     63  CG        23.3640    3.6030   20.3040 C.ar   97  PHE97      -0.0200
     64  CD1       22.2170    3.6390   19.5250 C.ar   97  PHE97      -0.0042
     65  CD2       24.1120    4.7610   20.4340 C.ar   97  PHE97      -0.0042
     66  CE1       21.8370    4.8100   18.8740 C.ar   97  PHE97      -0.0003
     67  CE2       23.7260    5.9390   19.7960 C.ar   97  PHE97      -0.0003
     68  CZ        22.5930    5.9610   19.0110 C.ar   97  PHE97      -0.0000
     69  N         24.6140    2.0290   17.7670 N.am   98  LEU98      -0.1963
     70  CA        25.4520    2.6100   16.7100 C.3    98  LEU98       0.1728
     71  C         25.0560    4.0250   16.3420 C.2    98  LEU98       0.2616
     72  O         23.9760    4.2620   15.8230 O.2    98  LEU98      -0.2715
     73  CB        25.5240    1.6920   15.4970 C.3    98  LEU98       0.0311
     74  CG        26.5430    0.6010   15.8280 C.3    98  LEU98       0.0022
     75  CD1       25.8740   -0.7510   15.8880 C.3    98  LEU98       0.0001
     76  CD2       27.7180    0.5880   14.8740 C.3    98  LEU98       0.0001
     77  N         25.9540    4.9510   16.6630 N.am   99  GLU99      -0.1963
     78  CA        25.7720    6.3740   16.4160 C.3    99  GLU99       0.1733
     79  C         25.5190    6.6790   14.9340 C.2    99  GLU99       0.2617
     80  O         24.4910    7.2590   14.5900 O.2    99  GLU99      -0.2715
     81  CB        27.0070    7.1480   16.8730 C.3    99  GLU99       0.0429
     82  CG        27.6920    6.5720   18.0890 C.3    99  GLU99       0.1163
     83  CD        28.7720    5.5770   17.7530 C.2    99  GLU99       0.3649
     84  OE1       29.6690    5.9070   16.9660 O.co2  99  GLU99      -0.2457
     85  OE2       28.7450    4.4610   18.3030 O.co2  99  GLU99      -0.2457
     86  N         26.4510    6.2820   14.0630 N.am  100  GLY100     -0.1940
     87  CA        26.3440    6.5300   12.6160 C.3   100  GLY100      0.2014
     88  C         25.0010    6.2400   11.9570 C.2   100  GLY100      0.2639
     89  O         24.6770    6.8060   10.9220 O.2   100  GLY100     -0.2714
     90  N         24.2070    5.3610   12.5510 N.am  101  GLY101     -0.1939
     91  CA        22.9440    4.9590   11.9330 C.3   101  GLY101      0.2014
     92  C         23.1300    4.0090   10.7540 C.2   101  GLY101      0.2638
     93  O         24.1960    3.3690   10.6150 O.2   101  GLY101     -0.2714
     94  N         22.0950    3.9370    9.9070 N.am  102  ALA102     -0.1977
     95  CA        22.0020    2.9780    8.8030 C.3   102  ALA102      0.1597
     96  C         22.5630    3.4960    7.5020 C.2   102  ALA102      0.2287
     97  O         22.6370    4.7010    7.2530 O.2   102  ALA102     -0.2864
     98  CB        20.5610    2.5720    8.5920 C.3   102  ALA102      0.0319
     99  N         24.9000   -0.8520    9.7310 N.3   147  LEU147     -0.1245
    100  CA        24.9450    0.2210   10.7070 C.3   147  LEU147      0.1561
    101  C         26.3520    0.7700   10.8510 C.2   147  LEU147      0.2260
    102  O         27.3360    0.0310   10.7060 O.2   147  LEU147     -0.2867
    103  CB        24.4380   -0.2800   12.0500 C.3   147  LEU147      0.0270
    104  CG        22.9110   -0.3700   12.1560 C.3   147  LEU147      0.0019
    105  CD1       22.4390   -1.1900   13.3510 C.3   147  LEU147      0.0001
    106  CD2       22.2950    1.0140   12.2360 C.3   147  LEU147      0.0001
    107  N         23.7030   -5.6550   11.1500 N.3   157  SER157     -0.1217
    108  CA        22.6400   -5.7880   12.1470 C.3   157  SER157      0.1889
    109  C         21.4460   -6.5570   11.6010 C.2   157  SER157      0.2288
    110  O         21.5550   -7.1450   10.5450 O.2   157  SER157     -0.2866
    111  CB        22.1730   -4.4090   12.6260 C.3   157  SER157      0.2089
    112  OG        21.3470   -4.5330   13.7920 O.3   157  SER157     -0.2183
@<TRIPOS>BOND
     1    97    96    2
     2    96    95    1
     3    98    95    1
     4    95    94    1
     5    99   100    1
     6    94    92   am
     7   110   109    2
     8    93    92    2
     9   102   101    2
    10   100   101    1
    11   100   103    1
    12    92    91    1
    13    89    88    2
    14   107   108    1
    15   109   108    1
    16    91    90    1
    17    88    90   am
    18    88    87    1
    19   103   104    1
    20   108   111    1
    21   104   106    1
    22   104   105    1
    23    87    86    1
    24   111   112    1
    25    86    79   am
    26    40    38    1
    27    80    79    2
    28    10    11    1
    29    10     9    2
    30    11    12    2
    31     4     3    2
    32    76    74    1
    33    34    35    1
    34    79    78    1
    35    73    74    1
    36    73    70    1
    37    38    35    1
    38    38    39    1
    39     3     9    1
    40     3     2    1
    41    72    71    2
    42    74    75    1
    43    33    32    1
    44    35    36    1
    45    19    17    1
    46    71    77   am
    47    71    70    1
    48    78    77    1
    49    78    81    1
    50    70    69    1
    51    32    31    1
    52    81    82    1
    53    84    83   ar
    54    37    36    2
    55    17    18    1
    56    17    14    1
    57     8     6    1
    58    31    30    1
    59     2     5    1
    60     2     1    1
    61     5     6    1
    62     5     7    1
    63    13    14    1
    64    30    29    1
    65    83    82    1
    66    83    85   ar
    67    69    60   am
    68    14    15    1
    69    48    47    1
    70    16    15    2
    71    47    46    1
    72    56    55   ar
    73    66    68   ar
    74    66    64   ar
    75    29    26    1
    76    60    61    2
    77    60    59    1
    78    68    67   ar
    79    55    57   ar
    80    55    54    1
    81    52    51    2
    82    64    63   ar
    83    67    65   ar
    84    54    53    1
    85    26    27    1
    86    26    25    1
    87    59    58    1
    88    59    62    1
    89    24    21    1
    90    46    45    1
    91    63    65   ar
    92    63    62    1
    93    45    42    1
    94    51    58   am
    95    51    50    1
    96    53    50    1
    97    27    28    2
    98    50    49    1
    99    49    43   am
   100    21    22    1
   101    21    20    1
   102    42    43    1
   103    42    41    1
   104    43    44    2
   105    22    23    2
