@<TRIPOS>MOLECULE
tmp/5i0eA02.pdb
 117 114 0 0 0
SMALL
GASTEIGER

@<TRIPOS>ATOM
      1  N        -46.5700   65.9070   -2.8610 N.3   264  TRP264     -0.1241
      2  CA       -47.0810   65.7960   -1.4890 C.3   264  TRP264      0.1605
      3  C        -46.1710   65.0700   -0.5070 C.2   264  TRP264      0.2264
      4  O        -46.3460   65.2530    0.6930 O.2   264  TRP264     -0.2867
      5  CB       -48.5280   65.2460   -1.4020 C.3   264  TRP264      0.0550
      6  CG       -48.8160   63.9260   -2.0610 C.ar  264  TRP264      0.0003
      7  CD1      -49.3580   63.7420   -3.2980 C.ar  264  TRP264      0.0946
      8  CD2      -48.6310   62.6130   -1.5040 C.ar  264  TRP264      0.0152
      9  NE1      -49.5040   62.4030   -3.5540 N.ar  264  TRP264     -0.2442
     10  CE2      -49.0820   61.6840   -2.4710 C.ar  264  TRP264      0.0810
     11  CE3      -48.1300   62.1320   -0.2860 C.ar  264  TRP264      0.0012
     12  CZ2      -49.0470   60.3080   -2.2650 C.ar  264  TRP264      0.0191
     13  CZ3      -48.0970   60.7450   -0.0740 C.ar  264  TRP264      0.0001
     14  CH2      -48.5500   59.8540   -1.0640 C.ar  264  TRP264      0.0015
     15  N        -55.2500   65.7540   13.5280 N.3   285  MET285     -0.1245
     16  CA       -55.3120   66.5170   12.2700 C.3   285  MET285      0.1570
     17  C        -56.0910   67.8420   12.4330 C.2   285  MET285      0.2261
     18  O        -55.7470   68.8470   11.8020 O.2   285  MET285     -0.2867
     19  CB       -55.9100   65.6940   11.1340 C.3   285  MET285      0.0387
     20  CG       -55.2470   64.3530   10.8530 C.3   285  MET285      0.0595
     21  SD       -53.5860   64.4830   10.1860 S.3   285  MET285     -0.1393
     22  CE       -52.5730   64.4460   11.6610 C.3   285  MET285      0.0692
     23  N        -53.5310   70.1840   14.0890 N.3   288  HIS288     -0.1226
     24  CA       -52.6710   70.7150   13.0260 C.3   288  HIS288      0.1752
     25  C        -53.3090   71.8940   12.2650 C.2   288  HIS288      0.2595
     26  O        -52.6770   72.9540   12.0970 O.2   288  HIS288     -0.2718
     27  CB       -52.2410   69.6230   12.0340 C.3   288  HIS288      0.0759
     28  CG       -50.9770   68.9320   12.4210 C.ar  288  HIS288      0.0818
     29  ND1      -49.7450   69.5470   12.3500 N.ar  288  HIS288     -0.2268
     30  CD2      -50.7480   67.6930   12.9100 C.ar  288  HIS288      0.1154
     31  CE1      -48.8120   68.7190   12.7790 C.ar  288  HIS288      0.1986
     32  NE2      -49.3920   67.5880   13.1240 N.ar  288  HIS288     -0.2212
     33  N        -54.5490   71.7110   11.8260 N.am  289  ARG289     -0.1980
     34  CA       -55.2870   72.7750   11.1460 C.3   289  ARG289      0.1597
     35  C        -55.4160   74.0450   12.0100 C.2   289  ARG289      0.2287
     36  O        -55.0640   75.1400   11.5720 O.2   289  ARG289     -0.2864
     37  CB       -56.6690   72.2650   10.7570 C.3   289  ARG289      0.0334
     38  CG       -57.5630   73.2790   10.0520 C.3   289  ARG289      0.0492
     39  CD       -59.0150   72.8320   10.0630 C.3   289  ARG289      0.2205
     40  NE       -59.4280   72.2440    8.7840 N.pl3 289  ARG289     -0.0865
     41  CZ       -60.5390   71.5160    8.5890 C.cat 289  ARG289      0.5346
     42  NH1      -61.3830   71.2290    9.5880 N.pl3 289  ARG289      0.1354
     43  NH2      -60.8090   71.0610    7.3670 N.pl3 289  ARG289      0.1354
     44  N        -49.4060   72.9530    8.9260 N.3   294  PRO294     -0.2102
     45  CA       -50.0190   72.0750    7.9550 C.3   294  PRO294      0.1504
     46  C        -49.2520   70.7760    7.8460 C.2   294  PRO294      0.2576
     47  O        -48.0210   70.7460    7.9440 O.2   294  PRO294     -0.2718
     48  CB       -49.9520   72.8740    6.6570 C.3   294  PRO294      0.0282
     49  CG       -48.7510   73.7260    6.8370 C.3   294  PRO294      0.0208
     50  CD       -48.8150   74.1380    8.2760 C.3   294  PRO294      0.0893
     51  N        -50.0070   69.7090    7.6860 N.am  295  VAL295     -0.1966
     52  CA       -49.4530   68.3880    7.5090 C.3   295  VAL295      0.1727
     53  C        -49.8800   67.9380    6.1230 C.2   295  VAL295      0.2616
     54  O        -50.9810   68.2610    5.6850 O.2   295  VAL295     -0.2715
     55  CB       -49.9320   67.4780    8.6560 C.3   295  VAL295      0.0290
     56  CG1      -51.3540   66.9840    8.4540 C.3   295  VAL295      0.0023
     57  CG2      -49.0020   66.3170    8.8210 C.3   295  VAL295      0.0023
     58  N        -48.9970   67.2520    5.3980 N.am  296  SER296     -0.1950
     59  CA       -49.3620   66.6820    4.0760 C.3   296  SER296      0.1924
     60  C        -49.5780   65.1460    4.0770 C.2   296  SER296      0.2314
     61  O        -50.1530   64.6110    3.1570 O.2   296  SER296     -0.2863
     62  CB       -48.3590   67.1450    3.0060 C.3   296  SER296      0.2116
     63  OG       -47.1920   66.3430    2.9980 O.3   296  SER296     -0.2180
     64  N        -59.0820   67.5780    2.6920 N.3   351  ARG351     -0.1231
     65  CA       -58.1800   68.5220    3.3570 C.3   351  ARG351      0.1694
     66  C        -56.7720   68.5820    2.7830 C.2   351  ARG351      0.2593
     67  O        -55.9850   69.3740    3.2540 O.2   351  ARG351     -0.2718
     68  CB       -58.0610   68.1800    4.8410 C.3   351  ARG351      0.0321
     69  CG       -59.3780   68.2710    5.5960 C.3   351  ARG351      0.0489
     70  CD       -59.0970   68.2140    7.0730 C.3   351  ARG351      0.2205
     71  NE       -60.2080   67.7190    7.8650 N.pl3 351  ARG351     -0.0865
     72  CZ       -60.1870   67.6150    9.1950 C.cat 351  ARG351      0.5346
     73  NH1      -59.0920   67.9700    9.9000 N.pl3 351  ARG351      0.1354
     74  NH2      -61.2690   67.1500    9.8300 N.pl3 351  ARG351      0.1354
     75  N        -56.4530   67.7710    1.7760 N.am  352  GLY352     -0.1942
     76  CA       -55.1120   67.7310    1.2050 C.3   352  GLY352      0.2014
     77  C        -54.1300   66.8590    1.9680 C.2   352  GLY352      0.2639
     78  O        -52.9200   67.0690    1.8800 O.2   352  GLY352     -0.2714
     79  N        -54.6170   65.8550    2.6920 N.am  353  ILE353     -0.1963
     80  CA       -53.7440   65.0010    3.5290 C.3   353  ILE353      0.1727
     81  C        -53.8490   63.5800    3.0100 C.2   353  ILE353      0.2616
     82  O        -54.9510   63.0810    2.8050 O.2   353  ILE353     -0.2715
     83  CB       -54.1660   65.0510    5.0170 C.3   353  ILE353      0.0290
     84  CG1      -54.2050   66.5060    5.5010 C.3   353  ILE353      0.0022
     85  CG2      -53.2090   64.2380    5.8880 C.3   353  ILE353      0.0023
     86  CD1      -54.6970   66.6900    6.9230 C.3   353  ILE353      0.0001
     87  N        -52.7030   62.9370    2.8070 N.am  354  ARG354     -0.1977
     88  CA       -52.6560   61.5540    2.3260 C.3   354  ARG354      0.1597
     89  C        -52.4760   60.6030    3.4980 C.2   354  ARG354      0.2287
     90  O        -51.9340   60.9990    4.5460 O.2   354  ARG354     -0.2864
     91  CB       -51.5150   61.3770    1.3180 C.3   354  ARG354      0.0334
     92  CG       -51.9150   61.7140   -0.1290 C.3   354  ARG354      0.0492
     93  CD       -51.9640   63.2090   -0.3920 C.3   354  ARG354      0.2205
     94  NE       -52.3760   63.5030   -1.7710 N.pl3 354  ARG354     -0.0865
     95  CZ       -52.4080   64.7220   -2.3210 C.cat 354  ARG354      0.5346
     96  NH1      -52.0520   65.8030   -1.6360 N.pl3 354  ARG354      0.1354
     97  NH2      -52.8200   64.8580   -3.5720 N.pl3 354  ARG354      0.1354
     98  N        -42.9530   74.6850    3.6920 N.3   601  GLU601     -0.1245
     99  CA       -43.8590   74.9220    2.5670 C.3   601  GLU601      0.1567
    100  C        -43.2340   75.8130    1.4820 C.2   601  GLU601      0.2260
    101  O        -43.4020   75.5400    0.2980 O.2   601  GLU601     -0.2867
    102  CB       -45.2020   75.5240    3.0410 C.3   601  GLU601      0.0388
    103  CG       -46.0130   74.6070    3.9660 C.3   601  GLU601      0.1160
    104  CD       -46.5320   73.3590    3.2670 C.2   601  GLU601      0.3649
    105  OE1      -47.4970   73.4840    2.4600 O.co2 601  GLU601     -0.2457
    106  OE2      -45.9720   72.2550    3.5190 O.co2 601  GLU601     -0.2457
    107  N        -40.9200   73.8830   -0.7690 N.3   604  ARG604     -0.1245
    108  CA       -41.4450   72.7840   -1.5990 C.3   604  ARG604      0.1563
    109  C        -41.1840   72.8520   -3.1260 C.2   604  ARG604      0.2260
    110  O        -40.8130   71.8420   -3.7040 O.2   604  ARG604     -0.2867
    111  CB       -42.9130   72.4840   -1.2560 C.3   604  ARG604      0.0307
    112  CG       -42.9750   71.7390    0.0980 C.3   604  ARG604      0.0489
    113  CD       -44.3840   71.5500    0.6500 C.3   604  ARG604      0.2205
    114  NE       -45.2490   70.8040   -0.2680 N.pl3 604  ARG604     -0.0865
    115  CZ       -46.4330   70.3060    0.0780 C.cat 604  ARG604      0.5346
    116  NH1      -47.1410   69.6310   -0.8200 N.pl3 604  ARG604      0.1354
    117  NH2      -46.9160   70.4530    1.3180 N.pl3 604  ARG604      0.1354
@<TRIPOS>BOND
     1   110   109    2
     2    97    95    1
     3     9     7   ar
     4     9    10   ar
     5     7     6   ar
     6   109   108    1
     7     1     2    1
     8    10    12   ar
     9    10     8   ar
    10    95    94    2
    11    95    96    1
    12    12    14   ar
    13     6     8   ar
    14     6     5    1
    15    94    93    1
    16   108   111    1
    17   108   107    1
    18     8    11   ar
    19     2     5    1
    20     2     3    1
    21   111   112    1
    22    14    13   ar
    23   116   115    1
    24     3     4    2
    25    93    92    1
    26    11    13   ar
    27   114   115    2
    28   114   113    1
    29    92    91    1
    30   115   117    1
    31   112   113    1
    32   101   100    2
    33    76    75    1
    34    76    77    1
    35    91    88    1
    36   100    99    1
    37    75    66   am
    38    78    77    2
    39    77    79   am
    40    88    87    1
    41    88    89    1
    42   105   104   ar
    43    99   102    1
    44    99    98    1
    45    79    80    1
    46    64    65    1
    47    66    67    2
    48    66    65    1
    49    82    81    2
    50    87    81   am
    51    63    62    1
    52    62    59    1
    53    81    80    1
    54   102   103    1
    55    61    60    2
    56   104   106   ar
    57   104   103    1
    58    65    68    1
    59    89    90    2
    60    80    83    1
    61    59    60    1
    62    59    58    1
    63    68    69    1
    64    83    84    1
    65    83    85    1
    66    58    53   am
    67    84    86    1
    68    69    70    1
    69    54    53    2
    70    53    52    1
    71    48    49    1
    72    48    45    1
    73    49    50    1
    74    70    71    1
    75    43    41    1
    76    52    51    1
    77    52    55    1
    78    51    46   am
    79    46    47    2
    80    46    45    1
    81    71    72    2
    82    45    44    1
    83    50    44    1
    84    56    55    1
    85    41    40    2
    86    41    42    1
    87    55    57    1
    88    40    39    1
    89    72    74    1
    90    72    73    1
    91    38    39    1
    92    38    37    1
    93    21    20    1
    94    21    22    1
    95    37    34    1
    96    20    19    1
    97    19    16    1
    98    34    33    1
    99    34    35    1
   100    36    35    2
   101    18    17    2
   102    33    25   am
   103    27    28    1
   104    27    24    1
   105    26    25    2
   106    25    24    1
   107    16    17    1
   108    16    15    1
   109    29    28   ar
   110    29    31   ar
   111    28    30   ar
   112    31    32   ar
   113    30    32   ar
   114    24    23    1
