@<TRIPOS>MOLECULE
tmp/5i0gA03.pdb
 162 157 0 0 0
SMALL
GASTEIGER

@<TRIPOS>ATOM
      1  N         31.6740    9.8570   56.8890 N.3   198  GLU198     -0.1245
      2  CA        32.3790    8.9550   57.7700 C.3   198  GLU198      0.1567
      3  C         31.5660    8.7310   59.0430 C.2   198  GLU198      0.2260
      4  O         31.5810    9.5570   59.9530 O.2   198  GLU198     -0.2867
      5  CB        33.7750    9.4590   58.1440 C.3   198  GLU198      0.0388
      6  CG        34.5420    8.3500   58.8710 C.3   198  GLU198      0.1160
      7  CD        35.6940    8.8030   59.7400 C.2   198  GLU198      0.3649
      8  OE1       36.2080    9.9320   59.5460 O.co2 198  GLU198     -0.2457
      9  OE2       36.0970    7.9810   60.6060 O.co2 198  GLU198     -0.2457
     10  N         31.9760    6.7400   62.0510 N.3   200  TYR200     -0.1241
     11  CA        33.0110    5.9790   62.7190 C.3   200  TYR200      0.1605
     12  C         32.3560    4.9370   63.6500 C.2   200  TYR200      0.2264
     13  O         31.9820    5.2340   64.7850 O.2   200  TYR200     -0.2867
     14  CB        33.9800    6.8920   63.4680 C.3   200  TYR200      0.0534
     15  CG        35.0570    6.1390   64.2130 C.ar  200  TYR200     -0.0201
     16  CD1       35.9990    5.3760   63.5310 C.ar  200  TYR200     -0.0009
     17  CD2       35.1230    6.1730   65.5970 C.ar  200  TYR200     -0.0009
     18  CE1       36.9910    4.6740   64.2120 C.ar  200  TYR200      0.0417
     19  CE2       36.1140    5.4900   66.2930 C.ar  200  TYR200      0.0417
     20  CZ        37.0450    4.7470   65.5950 C.ar  200  TYR200      0.1957
     21  OH        38.0010    4.0600   66.2900 O.3   200  TYR200     -0.2866
     22  N         47.8810   -1.6000   62.6290 N.3   300  ASN300     -0.1240
     23  CA        48.3920   -0.2490   62.7550 C.3   300  ASN300      0.1653
     24  C         49.6540   -0.1330   63.6250 C.2   300  ASN300      0.2266
     25  O         50.4870    0.7300   63.3670 O.2   300  ASN300     -0.2867
     26  CB        47.3160    0.7100   63.2480 C.3   300  ASN300      0.1155
     27  CG        47.7420    2.1550   63.1230 C.2   300  ASN300      0.2627
     28  OD1       48.2190    2.7390   64.0910 O.2   300  ASN300     -0.2716
     29  ND2       47.6350    2.7260   61.9180 N.am  300  ASN300     -0.0877
     30  N         50.4080    0.6900   57.6030 N.3   328  GLU328     -0.1245
     31  CA        49.7650    1.9850   57.8560 C.3   328  GLU328      0.1567
     32  C         50.6770    2.9970   58.5030 C.2   328  GLU328      0.2260
     33  O         50.7890    4.1370   58.0150 O.2   328  GLU328     -0.2867
     34  CB        48.5340    1.8000   58.7220 C.3   328  GLU328      0.0388
     35  CG        47.4400    1.0050   58.0410 C.3   328  GLU328      0.1160
     36  CD        46.1070    1.1730   58.7170 C.2   328  GLU328      0.3649
     37  OE1       46.0850    1.4490   59.9420 O.co2 328  GLU328     -0.2457
     38  OE2       45.0830    1.0410   58.0170 O.co2 328  GLU328     -0.2457
     39  N         49.5530    2.9800   53.3300 N.3   385  TRP385     -0.1241
     40  CA        48.4130    3.8110   53.6750 C.3   385  TRP385      0.1605
     41  C         48.5850    5.2490   53.2210 C.2   385  TRP385      0.2264
     42  O         49.7040    5.7750   53.1460 O.2   385  TRP385     -0.2867
     43  CB        48.2430    3.7530   55.1830 C.3   385  TRP385      0.0550
     44  CG        47.0140    4.3330   55.7680 C.ar  385  TRP385      0.0003
     45  CD1       45.8710    3.6750   56.0430 C.ar  385  TRP385      0.0946
     46  CD2       46.8450    5.6670   56.2590 C.ar  385  TRP385      0.0152
     47  NE1       44.9730    4.5200   56.6420 N.ar  385  TRP385     -0.2442
     48  CE2       45.5480    5.7520   56.7840 C.ar  385  TRP385      0.0810
     49  CE3       47.6580    6.8020   56.2750 C.ar  385  TRP385      0.0012
     50  CZ2       45.0350    6.9190   57.3370 C.ar  385  TRP385      0.0191
     51  CZ3       47.1560    7.9710   56.8260 C.ar  385  TRP385      0.0001
     52  CH2       45.8440    8.0220   57.3460 C.ar  385  TRP385      0.0015
     53  N         38.6170   14.5770   61.9130 N.3   428  TRP428     -0.1241
     54  CA        39.8470   13.8710   61.5490 C.3   428  TRP428      0.1605
     55  C         40.8000   14.7490   60.7230 C.2   428  TRP428      0.2264
     56  O         40.4440   15.1850   59.6220 O.2   428  TRP428     -0.2867
     57  CB        39.4880   12.6190   60.7610 C.3   428  TRP428      0.0550
     58  CG        40.5610   11.6040   60.6920 C.ar  428  TRP428      0.0003
     59  CD1       41.5400   11.3760   61.6170 C.ar  428  TRP428      0.0946
     60  CD2       40.7460   10.6260   59.6650 C.ar  428  TRP428      0.0152
     61  NE1       42.3250   10.3230   61.2210 N.ar  428  TRP428     -0.2442
     62  CE2       41.8610    9.8420   60.0290 C.ar  428  TRP428      0.0810
     63  CE3       40.0770   10.3340   58.4770 C.ar  428  TRP428      0.0012
     64  CZ2       42.3270    8.7870   59.2480 C.ar  428  TRP428      0.0191
     65  CZ3       40.5400    9.2890   57.6950 C.ar  428  TRP428      0.0001
     66  CH2       41.6550    8.5190   58.0910 C.ar  428  TRP428      0.0015
     67  N         46.5340    1.8750   50.3400 N.3   463  LYS463     -0.1245
     68  CA        45.2920    1.8670   51.0840 C.3   463  LYS463      0.1561
     69  C         44.8990    3.3180   51.1330 C.2   463  LYS463      0.2260
     70  O         45.4370    4.1000   51.9240 O.2   463  LYS463     -0.2867
     71  CB        45.4190    1.2460   52.4880 C.3   463  LYS463      0.0271
     72  CG        44.1210    1.2770   53.3000 C.3   463  LYS463      0.0035
     73  CD        44.1580    0.3790   54.5340 C.3   463  LYS463      0.0206
     74  CE        42.9080    0.5670   55.3830 C.3   463  LYS463      0.1093
     75  NZ        42.9670   -0.0890   56.7200 N.3   463  LYS463     -0.1314
     76  N         42.7840    5.6590   52.1610 N.3   465  ASP465     -0.1239
     77  CA        41.8400    5.8140   53.2720 C.3   465  ASP465      0.1674
     78  C         41.1920    7.1860   53.2140 C.2   465  ASP465      0.2266
     79  O         41.6710    8.0620   52.4960 O.2   465  ASP465     -0.2867
     80  CB        42.5850    5.6520   54.6130 C.3   465  ASP465      0.1410
     81  CG        41.7010    5.1150   55.7260 C.2   465  ASP465      0.3668
     82  OD1       40.4570    5.3510   55.7240 O.co2 465  ASP465     -0.2456
     83  OD2       42.2680    4.4380   56.6080 O.co2 465  ASP465     -0.2456
     84  N         37.7080    2.9400   51.5300 N.3   514  ARG514     -0.1245
     85  CA        36.4670    2.7460   52.2750 C.3   514  ARG514      0.1563
     86  C         35.3070    3.5670   51.7180 C.2   514  ARG514      0.2260
     87  O         34.1460    3.1460   51.8330 O.2   514  ARG514     -0.2867
     88  CB        36.6610    3.0500   53.7630 C.3   514  ARG514      0.0307
     89  CG        36.9600    4.5060   54.0660 C.3   514  ARG514      0.0489
     90  CD        37.2650    4.7460   55.5170 C.3   514  ARG514      0.2205
     91  NE        37.1560    6.1690   55.8340 N.pl3 514  ARG514     -0.0865
     92  CZ        37.6280    6.7490   56.9340 C.cat 514  ARG514      0.5346
     93  NH1       38.3160    6.0690   57.8420 N.pl3 514  ARG514      0.1354
     94  NH2       37.4320    8.0390   57.1150 N.pl3 514  ARG514      0.1354
     95  N         36.8700   -1.8530   51.3600 N.3   527  TRP527     -0.1241
     96  CA        36.5730   -2.5300   52.6290 C.3   527  TRP527      0.1605
     97  C         35.4930   -1.7620   53.4040 C.2   527  TRP527      0.2264
     98  O         35.2760   -0.5690   53.1690 O.2   527  TRP527     -0.2867
     99  CB        37.8460   -2.8150   53.4680 C.3   527  TRP527      0.0550
    100  CG        38.2250   -1.8230   54.5350 C.ar  527  TRP527      0.0003
    101  CD1       38.0720   -1.9680   55.8860 C.ar  527  TRP527      0.0946
    102  CD2       38.8650   -0.5540   54.3440 C.ar  527  TRP527      0.0152
    103  NE1       38.5290   -0.8520   56.5470 N.ar  527  TRP527     -0.2442
    104  CE2       39.0300    0.0300   55.6260 C.ar  527  TRP527      0.0810
    105  CE3       39.3220    0.1420   53.2210 C.ar  527  TRP527      0.0012
    106  CZ2       39.6160    1.2880   55.8070 C.ar  527  TRP527      0.0191
    107  CZ3       39.9160    1.3960   53.4100 C.ar  527  TRP527      0.0001
    108  CH2       40.0400    1.9570   54.6890 C.ar  527  TRP527      0.0015
    109  N         35.3300    0.9740   59.6330 N.3   530  ALA530     -0.1245
    110  CA        35.7010    0.7530   61.0180 C.3   530  ALA530      0.1562
    111  C         34.5340    0.1620   61.8010 C.2   530  ALA530      0.2260
    112  O         33.4150    0.6770   61.7210 O.2   530  ALA530     -0.2867
    113  CB        36.1410    2.0690   61.6430 C.3   530  ALA530      0.0290
    114  N         37.4310   -5.8170   57.8270 N.3   559  ASP559     -0.1239
    115  CA        38.3360   -6.1420   58.9270 C.3   559  ASP559      0.1674
    116  C         37.7170   -7.2980   59.6830 C.2   559  ASP559      0.2266
    117  O         36.8070   -7.0890   60.5060 O.2   559  ASP559     -0.2867
    118  CB        38.5050   -4.9610   59.8900 C.3   559  ASP559      0.1410
    119  CG        39.0530   -3.7180   59.2210 C.2   559  ASP559      0.3668
    120  OD1       39.7010   -3.8420   58.1490 O.co2 559  ASP559     -0.2456
    121  OD2       38.8030   -2.6130   59.7690 O.co2 559  ASP559     -0.2456
    122  N         38.2410   -4.4990   64.0540 N.3   563  PHE563     -0.1241
    123  CA        39.5800   -3.9430   64.2730 C.3   563  PHE563      0.1605
    124  C         39.7110   -3.1000   65.5520 C.2   563  PHE563      0.2264
    125  O         40.8290   -2.8690   66.0020 O.2   563  PHE563     -0.2867
    126  CB        40.0560   -3.1630   62.9910 C.3   563  PHE563      0.0534
    127  CG        39.9420   -1.6450   63.0600 C.ar  563  PHE563     -0.0203
    128  CD1       38.7340   -1.0040   63.3510 C.ar  563  PHE563     -0.0042
    129  CD2       41.0510   -0.8510   62.7690 C.ar  563  PHE563     -0.0042
    130  CE1       38.6540    0.3870   63.3990 C.ar  563  PHE563     -0.0003
    131  CE2       40.9820    0.5370   62.8030 C.ar  563  PHE563     -0.0003
    132  CZ        39.7840    1.1660   63.1210 C.ar  563  PHE563     -0.0000
    133  N         42.8990   -6.8810   60.5770 N.3   589  HIS589     -0.1241
    134  CA        43.3680   -5.5250   60.8260 C.3   589  HIS589      0.1621
    135  C         43.1670   -5.1480   62.3030 C.2   589  HIS589      0.2264
    136  O         42.3340   -5.7350   62.9740 O.2   589  HIS589     -0.2867
    137  CB        42.5980   -4.5730   59.9040 C.3   589  HIS589      0.0745
    138  CG        43.0270   -3.1430   60.0010 C.ar  589  HIS589      0.0817
    139  ND1       44.3540   -2.7620   60.0830 N.ar  589  HIS589     -0.2268
    140  CD2       42.3030   -1.9970   60.0100 C.ar  589  HIS589      0.1154
    141  CE1       44.4230   -1.4500   60.1830 C.ar  589  HIS589      0.1986
    142  NE2       43.1960   -0.9590   60.1210 N.ar  589  HIS589     -0.2212
    143  N         43.4010   -1.5700   65.1710 N.3   591  GLU591     -0.1231
    144  CA        43.4770   -0.1260   65.3540 C.3   591  GLU591      0.1699
    145  C         44.6470    0.2940   66.2410 C.2   591  GLU591      0.2592
    146  O         45.0900   -0.4770   67.0900 O.2   591  GLU591     -0.2718
    147  CB        42.1910    0.3600   66.0110 C.3   591  GLU591      0.0402
    148  CG        41.9930    1.8580   65.8940 C.3   591  GLU591      0.1161
    149  CD        40.6840    2.3300   66.4820 C.2   591  GLU591      0.3649
    150  OE1       40.2030    1.6820   67.4540 O.co2 591  GLU591     -0.2457
    151  OE2       40.1800    3.3590   65.9550 O.co2 591  GLU591     -0.2457
    152  N         45.1200    1.5250   66.0500 N.am  592  PHE592     -0.1976
    153  CA        46.1000    2.1680   66.9600 C.3   592  PHE592      0.1639
    154  C         45.6250    2.1310   68.4220 C.2   592  PHE592      0.2290
    155  O         44.4720    2.3980   68.7000 O.2   592  PHE592     -0.2864
    156  CB        46.3550    3.6420   66.5720 C.3   592  PHE592      0.0560
    157  CG        47.4960    4.2840   67.3240 C.ar  592  PHE592     -0.0200
    158  CD1       48.8130    3.8580   67.1250 C.ar  592  PHE592     -0.0042
    159  CD2       47.2600    5.3180   68.2380 C.ar  592  PHE592     -0.0042
    160  CE1       49.8700    4.4460   67.8210 C.ar  592  PHE592     -0.0003
    161  CE2       48.3200    5.9070   68.9400 C.ar  592  PHE592     -0.0003
    162  CZ        49.6240    5.4760   68.7280 C.ar  592  PHE592     -0.0000
@<TRIPOS>BOND
     1    67    68    1
     2    68    69    1
     3    68    71    1
     4    69    70    2
     5    95    96    1
     6    84    85    1
     7    86    87    2
     8    86    85    1
     9    76    77    1
    10    85    88    1
    11    71    72    1
    12    79    78    2
    13    96    97    1
    14    96    99    1
    15    42    41    2
    16    98    97    2
    17    78    77    1
    18    41    40    1
    19   105   107   ar
    20   105   102   ar
    21    77    80    1
    22    72    73    1
    23    39    40    1
    24   107   108   ar
    25    99   100    1
    26    40    43    1
    27    88    89    1
    28    89    90    1
    29   102   100   ar
    30   102   104   ar
    31    73    74    1
    32   100   101   ar
    33    80    81    1
    34   108   106   ar
    35    43    44    1
    36    74    75    1
    37    90    91    1
    38   104   106   ar
    39   104   103   ar
    40    82    81   ar
    41    81    83   ar
    42    44    45   ar
    43    44    46   ar
    44    91    92    2
    45   101   103   ar
    46    45    47   ar
    47    46    49   ar
    48    46    48   ar
    49    49    51   ar
    50    47    48   ar
    51    48    50   ar
    52    51    52   ar
    53     1     2    1
    54    92    94    1
    55    92    93    1
    56    50    52   ar
    57    30    31    1
    58    65    66   ar
    59    65    63   ar
    60     2     5    1
    61     2     3    1
    62   114   115    1
    63    31    32    1
    64    31    34    1
    65    33    32    2
    66    38    36   ar
    67    35    36    1
    68    35    34    1
    69    66    64   ar
    70     5     6    1
    71   120   119   ar
    72    63    60   ar
    73    36    37   ar
    74     6     7    1
    75   115   116    1
    76   115   118    1
    77     3     4    2
    78   119   121   ar
    79   119   118    1
    80    64    62   ar
    81     8     7   ar
    82    56    55    2
    83   109   110    1
    84    60    62   ar
    85    60    58   ar
    86   116   117    2
    87     7     9   ar
    88   137   138    1
    89   137   134    1
    90   138   140   ar
    91   138   139   ar
    92   140   142   ar
    93    62    61   ar
    94   139   141   ar
    95   142   141   ar
    96   133   134    1
    97    58    57    1
    98    58    59   ar
    99    55    54    1
   100    57    54    1
   101   134   135    1
   102   110   113    1
   103   110   111    1
   104    61    59   ar
   105    54    53    1
   106   112   111    2
   107    29    27   am
   108    10    11    1
   109   135   136    2
   110    22    23    1
   111    11    14    1
   112    11    12    1
   113    23    26    1
   114    23    24    1
   115   129   131   ar
   116   129   127   ar
   117   131   132   ar
   118   126   127    1
   119   126   123    1
   120   127   128   ar
   121   132   130   ar
   122    27    26    1
   123    27    28    2
   124   128   130   ar
   125    25    24    2
   126    14    15    1
   127    16    18   ar
   128    16    15   ar
   129    12    13    2
   130   122   123    1
   131    18    20   ar
   132    15    17   ar
   133   123   124    1
   134   143   144    1
   135   144   147    1
   136   144   145    1
   137   124   125    2
   138    20    21    1
   139    20    19   ar
   140    17    19   ar
   141   148   147    1
   142   148   149    1
   143   151   149   ar
   144   152   145   am
   145   152   153    1
   146   145   146    2
   147   149   150   ar
   148   156   153    1
   149   156   157    1
   150   153   154    1
   151   158   157   ar
   152   158   160   ar
   153   157   159   ar
   154   160   162   ar
   155   159   161   ar
   156   154   155    2
   157   162   161   ar
