@<TRIPOS>MOLECULE
tmp/5i0gA02.pdb
 101 101 0 0 0
SMALL
GASTEIGER

@<TRIPOS>ATOM
      1  N         47.8810   -1.6000   62.6290 N.3   300  ASN300     -0.1240
      2  CA        48.3920   -0.2490   62.7550 C.3   300  ASN300      0.1653
      3  C         49.6540   -0.1330   63.6250 C.2   300  ASN300      0.2266
      4  O         50.4870    0.7300   63.3670 O.2   300  ASN300     -0.2867
      5  CB        47.3160    0.7100   63.2480 C.3   300  ASN300      0.1155
      6  CG        47.7420    2.1550   63.1230 C.2   300  ASN300      0.2627
      7  OD1       48.2190    2.7390   64.0910 O.2   300  ASN300     -0.2716
      8  ND2       47.6350    2.7260   61.9180 N.am  300  ASN300     -0.0877
      9  N         50.4080    0.6900   57.6030 N.3   328  GLU328     -0.1231
     10  CA        49.7650    1.9850   57.8560 C.3   328  GLU328      0.1699
     11  C         50.6770    2.9970   58.5030 C.2   328  GLU328      0.2592
     12  O         50.7890    4.1370   58.0150 O.2   328  GLU328     -0.2718
     13  CB        48.5340    1.8000   58.7220 C.3   328  GLU328      0.0402
     14  CG        47.4400    1.0050   58.0410 C.3   328  GLU328      0.1161
     15  CD        46.1070    1.1730   58.7170 C.2   328  GLU328      0.3649
     16  OE1       46.0850    1.4490   59.9420 O.co2 328  GLU328     -0.2457
     17  OE2       45.0830    1.0410   58.0170 O.co2 328  GLU328     -0.2457
     18  N         51.3430    2.5820   59.5860 N.am  329  ALA329     -0.1980
     19  CA        52.2640    3.4550   60.3090 C.3   329  ALA329      0.1597
     20  C         53.6880    3.3280   59.7730 C.2   329  ALA329      0.2287
     21  O         54.5970    2.8290   60.4620 O.2   329  ALA329     -0.2864
     22  CB        52.2110    3.1790   61.8080 C.3   329  ALA329      0.0319
     23  N         54.4000   10.6080   59.6920 N.3   333  GLU333     -0.1245
     24  CA        53.1360   11.0770   60.2910 C.3   333  GLU333      0.1567
     25  C         52.8970   12.5940   60.1420 C.2   333  GLU333      0.2260
     26  O         52.0980   13.1800   60.8790 O.2   333  GLU333     -0.2867
     27  CB        52.9990   10.6250   61.7610 C.3   333  GLU333      0.0388
     28  CG        53.0230    9.1020   61.9630 C.3   333  GLU333      0.1160
     29  CD        51.8450    8.3810   61.3000 C.2   333  GLU333      0.3649
     30  OE1       50.6950    8.8920   61.3420 O.co2 333  GLU333     -0.2457
     31  OE2       52.0620    7.2860   60.7360 O.co2 333  GLU333     -0.2457
     32  N         53.0550   11.8990   54.9660 N.3   336  PHE336     -0.1241
     33  CA        52.6550   10.6150   54.3610 C.3   336  PHE336      0.1605
     34  C         53.2860   10.3520   52.9920 C.2   336  PHE336      0.2264
     35  O         52.6670    9.7940   52.1070 O.2   336  PHE336     -0.2867
     36  CB        51.1160   10.4930   54.3640 C.3   336  PHE336      0.0534
     37  CG        50.5590   10.6080   55.7360 C.ar  336  PHE336     -0.0203
     38  CD1       50.6410    9.5360   56.6090 C.ar  336  PHE336     -0.0042
     39  CD2       50.0690   11.8180   56.2070 C.ar  336  PHE336     -0.0042
     40  CE1       50.1910    9.6490   57.9160 C.ar  336  PHE336     -0.0003
     41  CE2       49.6080   11.9390   57.5060 C.ar  336  PHE336     -0.0003
     42  CZ        49.6660   10.8550   58.3610 C.ar  336  PHE336     -0.0000
     43  N         49.5530    2.9800   53.3300 N.3   385  TRP385     -0.1241
     44  CA        48.4130    3.8110   53.6750 C.3   385  TRP385      0.1605
     45  C         48.5850    5.2490   53.2210 C.2   385  TRP385      0.2264
     46  O         49.7040    5.7750   53.1460 O.2   385  TRP385     -0.2867
     47  CB        48.2430    3.7530   55.1830 C.3   385  TRP385      0.0550
     48  CG        47.0140    4.3330   55.7680 C.ar  385  TRP385      0.0003
     49  CD1       45.8710    3.6750   56.0430 C.ar  385  TRP385      0.0946
     50  CD2       46.8450    5.6670   56.2590 C.ar  385  TRP385      0.0152
     51  NE1       44.9730    4.5200   56.6420 N.ar  385  TRP385     -0.2442
     52  CE2       45.5480    5.7520   56.7840 C.ar  385  TRP385      0.0810
     53  CE3       47.6580    6.8020   56.2750 C.ar  385  TRP385      0.0012
     54  CZ2       45.0350    6.9190   57.3370 C.ar  385  TRP385      0.0191
     55  CZ3       47.1560    7.9710   56.8260 C.ar  385  TRP385      0.0001
     56  CH2       45.8440    8.0220   57.3460 C.ar  385  TRP385      0.0015
     57  N         38.6170   14.5770   61.9130 N.3   428  TRP428     -0.1227
     58  CA        39.8470   13.8710   61.5490 C.3   428  TRP428      0.1737
     59  C         40.8000   14.7490   60.7230 C.2   428  TRP428      0.2595
     60  O         40.4440   15.1850   59.6220 O.2   428  TRP428     -0.2718
     61  CB        39.4880   12.6190   60.7610 C.3   428  TRP428      0.0564
     62  CG        40.5610   11.6040   60.6920 C.ar  428  TRP428      0.0003
     63  CD1       41.5400   11.3760   61.6170 C.ar  428  TRP428      0.0946
     64  CD2       40.7460   10.6260   59.6650 C.ar  428  TRP428      0.0152
     65  NE1       42.3250   10.3230   61.2210 N.ar  428  TRP428     -0.2442
     66  CE2       41.8610    9.8420   60.0290 C.ar  428  TRP428      0.0810
     67  CE3       40.0770   10.3340   58.4770 C.ar  428  TRP428      0.0012
     68  CZ2       42.3270    8.7870   59.2480 C.ar  428  TRP428      0.0191
     69  CZ3       40.5400    9.2890   57.6950 C.ar  428  TRP428      0.0001
     70  CH2       41.6550    8.5190   58.0910 C.ar  428  TRP428      0.0015
     71  N         42.0070   14.9920   61.2570 N.am  429  PHE429     -0.1976
     72  CA        42.9510   15.9650   60.7030 C.3   429  PHE429      0.1639
     73  C         42.2300   17.3020   60.4910 C.2   429  PHE429      0.2290
     74  O         42.0540   17.7530   59.3460 O.2   429  PHE429     -0.2864
     75  CB        43.5570   15.4650   59.3850 C.3   429  PHE429      0.0560
     76  CG        44.3560   14.1920   59.5180 C.ar  429  PHE429     -0.0200
     77  CD1       45.5650   14.1820   60.2270 C.ar  429  PHE429     -0.0042
     78  CD2       43.9310   13.0280   58.9240 C.ar  429  PHE429     -0.0042
     79  CE1       46.3200   13.0190   60.3400 C.ar  429  PHE429     -0.0003
     80  CE2       44.6780   11.8650   59.0360 C.ar  429  PHE429     -0.0003
     81  CZ        45.8740   11.8600   59.7330 C.ar  429  PHE429     -0.0000
     82  N         43.4010   -1.5700   65.1710 N.3   591  GLU591     -0.1231
     83  CA        43.4770   -0.1260   65.3540 C.3   591  GLU591      0.1699
     84  C         44.6470    0.2940   66.2410 C.2   591  GLU591      0.2592
     85  O         45.0900   -0.4770   67.0900 O.2   591  GLU591     -0.2718
     86  CB        42.1910    0.3600   66.0110 C.3   591  GLU591      0.0402
     87  CG        41.9930    1.8580   65.8940 C.3   591  GLU591      0.1161
     88  CD        40.6840    2.3300   66.4820 C.2   591  GLU591      0.3649
     89  OE1       40.2030    1.6820   67.4540 O.co2 591  GLU591     -0.2457
     90  OE2       40.1800    3.3590   65.9550 O.co2 591  GLU591     -0.2457
     91  N         45.1200    1.5250   66.0500 N.am  592  PHE592     -0.1976
     92  CA        46.1000    2.1680   66.9600 C.3   592  PHE592      0.1639
     93  C         45.6250    2.1310   68.4220 C.2   592  PHE592      0.2290
     94  O         44.4720    2.3980   68.7000 O.2   592  PHE592     -0.2864
     95  CB        46.3550    3.6420   66.5720 C.3   592  PHE592      0.0560
     96  CG        47.4960    4.2840   67.3240 C.ar  592  PHE592     -0.0200
     97  CD1       48.8130    3.8580   67.1250 C.ar  592  PHE592     -0.0042
     98  CD2       47.2600    5.3180   68.2380 C.ar  592  PHE592     -0.0042
     99  CE1       49.8700    4.4460   67.8210 C.ar  592  PHE592     -0.0003
    100  CE2       48.3200    5.9070   68.9400 C.ar  592  PHE592     -0.0003
    101  CZ        49.6240    5.4760   68.7280 C.ar  592  PHE592     -0.0000
@<TRIPOS>BOND
     1    35    34    2
     2    34    33    1
     3    46    45    2
     4    45    44    1
     5    43    44    1
     6    44    47    1
     7    33    36    1
     8    33    32    1
     9    36    37    1
    10    47    48    1
    11    37    39   ar
    12    37    38   ar
    13    48    49   ar
    14    48    50   ar
    15    49    51   ar
    16    39    41   ar
    17    50    53   ar
    18    50    52   ar
    19    53    55   ar
    20    38    40   ar
    21    51    52   ar
    22    52    54   ar
    23    55    56   ar
    24    54    56   ar
    25    41    42   ar
    26     9    10    1
    27    69    70   ar
    28    69    67   ar
    29    10    11    1
    30    10    13    1
    31    40    42   ar
    32    12    11    2
    33    17    15   ar
    34    14    15    1
    35    14    13    1
    36    70    68   ar
    37    67    64   ar
    38    11    18   am
    39    15    16   ar
    40    78    80   ar
    41    78    76   ar
    42    80    81   ar
    43    68    66   ar
    44    74    73    2
    45    75    76    1
    46    75    72    1
    47    76    77   ar
    48    18    19    1
    49    60    59    2
    50    64    66   ar
    51    64    62   ar
    52    23    24    1
    53    81    79   ar
    54    20    19    1
    55    20    21    2
    56    66    65   ar
    57    25    24    1
    58    25    26    2
    59    77    79   ar
    60    24    27    1
    61    19    22    1
    62    73    72    1
    63    62    61    1
    64    62    63   ar
    65    72    71    1
    66    59    71   am
    67    59    58    1
    68    31    29   ar
    69    61    58    1
    70    65    63   ar
    71    29    30   ar
    72    29    28    1
    73    58    57    1
    74    27    28    1
    75     8     6   am
    76     1     2    1
    77     2     5    1
    78     2     3    1
    79     6     5    1
    80     6     7    2
    81     4     3    2
    82    82    83    1
    83    83    86    1
    84    83    84    1
    85    87    86    1
    86    87    88    1
    87    90    88   ar
    88    91    84   am
    89    91    92    1
    90    84    85    2
    91    88    89   ar
    92    95    92    1
    93    95    96    1
    94    92    93    1
    95    97    96   ar
    96    97    99   ar
    97    96    98   ar
    98    99   101   ar
    99    98   100   ar
   100    93    94    2
   101   101   100   ar
