@<TRIPOS>MOLECULE
tmp/5i0gA00.pdb
 114 113 0 0 0
SMALL
GASTEIGER

@<TRIPOS>ATOM
      1  N         33.9530    8.4560   69.1980 N.3    78  HIS78      -0.1241
      2  CA        35.0020    9.2930   69.7940 C.3    78  HIS78       0.1621
      3  C         34.4600    9.9410   71.0820 C.2    78  HIS78       0.2264
      4  O         34.3540   11.1690   71.1880 O.2    78  HIS78      -0.2867
      5  CB        35.4540   10.3550   68.7750 C.3    78  HIS78       0.0745
      6  CG        36.1360    9.7760   67.5720 C.ar   78  HIS78       0.0817
      7  ND1       37.3970    9.2240   67.6310 N.ar   78  HIS78      -0.2268
      8  CD2       35.7260    9.6400   66.2880 C.ar   78  HIS78       0.1154
      9  CE1       37.7410    8.7840   66.4350 C.ar   78  HIS78       0.1986
     10  NE2       36.7450    9.0270   65.6000 N.ar   78  HIS78      -0.2212
     11  N         31.6740    9.8570   56.8890 N.3   198  GLU198     -0.1245
     12  CA        32.3790    8.9550   57.7700 C.3   198  GLU198      0.1567
     13  C         31.5660    8.7310   59.0430 C.2   198  GLU198      0.2260
     14  O         31.5810    9.5570   59.9530 O.2   198  GLU198     -0.2867
     15  CB        33.7750    9.4590   58.1440 C.3   198  GLU198      0.0388
     16  CG        34.5420    8.3500   58.8710 C.3   198  GLU198      0.1160
     17  CD        35.6940    8.8030   59.7400 C.2   198  GLU198      0.3649
     18  OE1       36.2080    9.9320   59.5460 O.co2 198  GLU198     -0.2457
     19  OE2       36.0970    7.9810   60.6060 O.co2 198  GLU198     -0.2457
     20  N         31.9760    6.7400   62.0510 N.3   200  TYR200     -0.1241
     21  CA        33.0110    5.9790   62.7190 C.3   200  TYR200      0.1605
     22  C         32.3560    4.9370   63.6500 C.2   200  TYR200      0.2264
     23  O         31.9820    5.2340   64.7850 O.2   200  TYR200     -0.2867
     24  CB        33.9800    6.8920   63.4680 C.3   200  TYR200      0.0534
     25  CG        35.0570    6.1390   64.2130 C.ar  200  TYR200     -0.0201
     26  CD1       35.9990    5.3760   63.5310 C.ar  200  TYR200     -0.0009
     27  CD2       35.1230    6.1730   65.5970 C.ar  200  TYR200     -0.0009
     28  CE1       36.9910    4.6740   64.2120 C.ar  200  TYR200      0.0417
     29  CE2       36.1140    5.4900   66.2930 C.ar  200  TYR200      0.0417
     30  CZ        37.0450    4.7470   65.5950 C.ar  200  TYR200      0.1957
     31  OH        38.0010    4.0600   66.2900 O.3   200  TYR200     -0.2866
     32  N         36.4670   16.2990   62.0760 N.3   427  TRP427     -0.1227
     33  CA        37.1370   15.9600   63.3370 C.3   427  TRP427      0.1737
     34  C         38.4740   15.2120   63.0790 C.2   427  TRP427      0.2595
     35  O         39.3510   15.2120   63.9310 O.2   427  TRP427     -0.2718
     36  CB        36.1850   15.1410   64.2610 C.3   427  TRP427      0.0564
     37  CG        35.7440   13.8430   63.6490 C.ar  427  TRP427      0.0003
     38  CD1       36.4190   12.6510   63.6880 C.ar  427  TRP427      0.0946
     39  CD2       34.5810   13.6190   62.8310 C.ar  427  TRP427      0.0152
     40  NE1       35.7360   11.7010   62.9690 N.ar  427  TRP427     -0.2442
     41  CE2       34.6110   12.2640   62.4270 C.ar  427  TRP427      0.0810
     42  CE3       33.5190   14.4280   62.4030 C.ar  427  TRP427      0.0012
     43  CZ2       33.6180   11.6920   61.6120 C.ar  427  TRP427      0.0191
     44  CZ3       32.5200   13.8530   61.5950 C.ar  427  TRP427      0.0001
     45  CH2       32.5810   12.4910   61.2160 C.ar  427  TRP427      0.0015
     46  N         38.6170   14.5770   61.9130 N.am  428  TRP428     -0.1976
     47  CA        39.8470   13.8710   61.5490 C.3   428  TRP428      0.1640
     48  C         40.8000   14.7490   60.7230 C.2   428  TRP428      0.2290
     49  O         40.4440   15.1850   59.6220 O.2   428  TRP428     -0.2864
     50  CB        39.4880   12.6190   60.7610 C.3   428  TRP428      0.0576
     51  CG        40.5610   11.6040   60.6920 C.ar  428  TRP428      0.0006
     52  CD1       41.5400   11.3760   61.6170 C.ar  428  TRP428      0.0946
     53  CD2       40.7460   10.6260   59.6650 C.ar  428  TRP428      0.0152
     54  NE1       42.3250   10.3230   61.2210 N.ar  428  TRP428     -0.2442
     55  CE2       41.8610    9.8420   60.0290 C.ar  428  TRP428      0.0810
     56  CE3       40.0770   10.3340   58.4770 C.ar  428  TRP428      0.0012
     57  CZ2       42.3270    8.7870   59.2480 C.ar  428  TRP428      0.0191
     58  CZ3       40.5400    9.2890   57.6950 C.ar  428  TRP428      0.0001
     59  CH2       41.6550    8.5190   58.0910 C.ar  428  TRP428      0.0015
     60  N         42.7840    5.6590   52.1610 N.3   465  ASP465     -0.1239
     61  CA        41.8400    5.8140   53.2720 C.3   465  ASP465      0.1674
     62  C         41.1920    7.1860   53.2140 C.2   465  ASP465      0.2266
     63  O         41.6710    8.0620   52.4960 O.2   465  ASP465     -0.2867
     64  CB        42.5850    5.6520   54.6130 C.3   465  ASP465      0.1410
     65  CG        41.7010    5.1150   55.7260 C.2   465  ASP465      0.3668
     66  OD1       40.4570    5.3510   55.7240 O.co2 465  ASP465     -0.2456
     67  OD2       42.2680    4.4380   56.6080 O.co2 465  ASP465     -0.2456
     68  N         37.7080    2.9400   51.5300 N.3   514  ARG514     -0.1245
     69  CA        36.4670    2.7460   52.2750 C.3   514  ARG514      0.1563
     70  C         35.3070    3.5670   51.7180 C.2   514  ARG514      0.2260
     71  O         34.1460    3.1460   51.8330 O.2   514  ARG514     -0.2867
     72  CB        36.6610    3.0500   53.7630 C.3   514  ARG514      0.0307
     73  CG        36.9600    4.5060   54.0660 C.3   514  ARG514      0.0489
     74  CD        37.2650    4.7460   55.5170 C.3   514  ARG514      0.2205
     75  NE        37.1560    6.1690   55.8340 N.pl3 514  ARG514     -0.0865
     76  CZ        37.6280    6.7490   56.9340 C.cat 514  ARG514      0.5346
     77  NH1       38.3160    6.0690   57.8420 N.pl3 514  ARG514      0.1354
     78  NH2       37.4320    8.0390   57.1150 N.pl3 514  ARG514      0.1354
     79  N         35.3300    0.9740   59.6330 N.3   530  ALA530     -0.1245
     80  CA        35.7010    0.7530   61.0180 C.3   530  ALA530      0.1562
     81  C         34.5340    0.1620   61.8010 C.2   530  ALA530      0.2260
     82  O         33.4150    0.6770   61.7210 O.2   530  ALA530     -0.2867
     83  CB        36.1410    2.0690   61.6430 C.3   530  ALA530      0.0290
     84  N         38.2410   -4.4990   64.0540 N.3   563  PHE563     -0.1241
     85  CA        39.5800   -3.9430   64.2730 C.3   563  PHE563      0.1605
     86  C         39.7110   -3.1000   65.5520 C.2   563  PHE563      0.2264
     87  O         40.8290   -2.8690   66.0020 O.2   563  PHE563     -0.2867
     88  CB        40.0560   -3.1630   62.9910 C.3   563  PHE563      0.0534
     89  CG        39.9420   -1.6450   63.0600 C.ar  563  PHE563     -0.0203
     90  CD1       38.7340   -1.0040   63.3510 C.ar  563  PHE563     -0.0042
     91  CD2       41.0510   -0.8510   62.7690 C.ar  563  PHE563     -0.0042
     92  CE1       38.6540    0.3870   63.3990 C.ar  563  PHE563     -0.0003
     93  CE2       40.9820    0.5370   62.8030 C.ar  563  PHE563     -0.0003
     94  CZ        39.7840    1.1660   63.1210 C.ar  563  PHE563     -0.0000
     95  N         43.4010   -1.5700   65.1710 N.3   591  GLU591     -0.1231
     96  CA        43.4770   -0.1260   65.3540 C.3   591  GLU591      0.1699
     97  C         44.6470    0.2940   66.2410 C.2   591  GLU591      0.2592
     98  O         45.0900   -0.4770   67.0900 O.2   591  GLU591     -0.2718
     99  CB        42.1910    0.3600   66.0110 C.3   591  GLU591      0.0402
    100  CG        41.9930    1.8580   65.8940 C.3   591  GLU591      0.1161
    101  CD        40.6840    2.3300   66.4820 C.2   591  GLU591      0.3649
    102  OE1       40.2030    1.6820   67.4540 O.co2 591  GLU591     -0.2457
    103  OE2       40.1800    3.3590   65.9550 O.co2 591  GLU591     -0.2457
    104  N         45.1200    1.5250   66.0500 N.am  592  PHE592     -0.1976
    105  CA        46.1000    2.1680   66.9600 C.3   592  PHE592      0.1639
    106  C         45.6250    2.1310   68.4220 C.2   592  PHE592      0.2290
    107  O         44.4720    2.3980   68.7000 O.2   592  PHE592     -0.2864
    108  CB        46.3550    3.6420   66.5720 C.3   592  PHE592      0.0560
    109  CG        47.4960    4.2840   67.3240 C.ar  592  PHE592     -0.0200
    110  CD1       48.8130    3.8580   67.1250 C.ar  592  PHE592     -0.0042
    111  CD2       47.2600    5.3180   68.2380 C.ar  592  PHE592     -0.0042
    112  CE1       49.8700    4.4460   67.8210 C.ar  592  PHE592     -0.0003
    113  CE2       48.3200    5.9070   68.9400 C.ar  592  PHE592     -0.0003
    114  CZ        49.6240    5.4760   68.7280 C.ar  592  PHE592     -0.0000
@<TRIPOS>BOND
     1    68    69    1
     2    70    71    2
     3    70    69    1
     4    60    61    1
     5    69    72    1
     6    63    62    2
     7    62    61    1
     8    61    64    1
     9    72    73    1
    10    73    74    1
    11    64    65    1
    12    74    75    1
    13    66    65   ar
    14    65    67   ar
    15    75    76    2
    16    11    12    1
    17    76    78    1
    18    76    77    1
    19    58    59   ar
    20    58    56   ar
    21    12    15    1
    22    12    13    1
    23    59    57   ar
    24    15    16    1
    25    56    53   ar
    26    16    17    1
    27    13    14    2
    28    57    55   ar
    29    18    17   ar
    30    49    48    2
    31    79    80    1
    32    53    55   ar
    33    53    51   ar
    34    17    19   ar
    35    55    54   ar
    36    51    50    1
    37    51    52   ar
    38    48    47    1
    39    50    47    1
    40    80    83    1
    41    80    81    1
    42    45    44   ar
    43    45    43   ar
    44    54    52   ar
    45    47    46    1
    46    44    42   ar
    47    43    41   ar
    48    82    81    2
    49    46    34   am
    50    20    21    1
    51    32    33    1
    52    42    39   ar
    53    41    39   ar
    54    41    40   ar
    55    21    24    1
    56    21    22    1
    57    91    93   ar
    58    91    89   ar
    59    93    94   ar
    60    39    37   ar
    61    40    38   ar
    62    88    89    1
    63    88    85    1
    64    89    90   ar
    65    34    33    1
    66    34    35    2
    67    94    92   ar
    68    33    36    1
    69    90    92   ar
    70    24    25    1
    71    26    28   ar
    72    26    25   ar
    73    37    38   ar
    74    37    36    1
    75    22    23    2
    76    84    85    1
    77    28    30   ar
    78    25    27   ar
    79    85    86    1
    80    95    96    1
    81    96    99    1
    82    96    97    1
    83    86    87    2
    84    30    31    1
    85    30    29   ar
    86    27    29   ar
    87    10     8   ar
    88    10     9   ar
    89   100    99    1
    90   100   101    1
    91   103   101   ar
    92   104    97   am
    93   104   105    1
    94    97    98    2
    95     8     6   ar
    96     9     7   ar
    97   101   102   ar
    98   108   105    1
    99   108   109    1
   100   105   106    1
   101   110   109   ar
   102   110   112   ar
   103   109   111   ar
   104     6     7   ar
   105     6     5    1
   106   112   114   ar
   107   111   113   ar
   108   106   107    2
   109   114   113   ar
   110     5     2    1
   111     1     2    1
   112     2     3    1
   113     3     4    2
