@<TRIPOS>MOLECULE
tmp/5i0iA01.pdb
 187 182 0 0 0
SMALL
GASTEIGER

@<TRIPOS>ATOM
      1  N        -20.3560  -29.9010   20.6130 N.3    90  ILE90      -0.1231
      2  CA       -19.7690  -30.7200   19.5480 C.3    90  ILE90       0.1692
      3  C        -18.5160  -30.1010   18.9210 C.2    90  ILE90       0.2592
      4  O        -17.8280  -30.7760   18.1630 O.2    90  ILE90      -0.2718
      5  CB       -20.8230  -31.1010   18.4710 C.3    90  ILE90       0.0266
      6  CG1      -21.2300  -29.8990   17.5900 C.3    90  ILE90       0.0019
      7  CG2      -22.0340  -31.7760   19.1110 C.3    90  ILE90       0.0020
      8  CD1      -22.0100  -30.2570   16.3580 C.3    90  ILE90       0.0001
      9  N        -18.2370  -28.8360   19.2220 N.am   91  TYR91      -0.1976
     10  CA       -17.1260  -28.1180   18.6430 C.3    91  TYR91       0.1639
     11  C        -16.0040  -27.8640   19.6170 C.2    91  TYR91       0.2290
     12  O        -16.2380  -27.4570   20.7550 O.2    91  TYR91      -0.2864
     13  CB       -17.6040  -26.7880   18.0430 C.3    91  TYR91       0.0560
     14  CG       -18.5910  -26.9440   16.9140 C.ar   91  TYR91      -0.0198
     15  CD1      -18.2220  -27.5440   15.7220 C.ar   91  TYR91      -0.0009
     16  CD2      -19.8820  -26.4500   17.0190 C.ar   91  TYR91      -0.0009
     17  CE1      -19.1290  -27.6970   14.6810 C.ar   91  TYR91       0.0417
     18  CE2      -20.7900  -26.5770   15.9730 C.ar   91  TYR91       0.0417
     19  CZ       -20.4090  -27.2030   14.8080 C.ar   91  TYR91       0.1957
     20  OH       -21.2950  -27.3720   13.7800 O.3    91  TYR91      -0.2866
     21  N        -15.2290  -31.2200   14.9680 N.3   100  SER100     -0.1217
     22  CA       -16.6860  -31.2860   15.0160 C.3   100  SER100      0.1889
     23  C        -17.0920  -32.7580   15.2000 C.2   100  SER100      0.2288
     24  O        -16.8080  -33.5730   14.3220 O.2   100  SER100     -0.2866
     25  CB       -17.2640  -30.7160   13.7200 C.3   100  SER100      0.2089
     26  OG       -18.6300  -31.0310   13.5250 O.3   100  SER100     -0.2183
     27  N        -20.0550  -35.3310   15.2070 N.3   102  ASN102     -0.1226
     28  CA       -21.4420  -35.4390   14.7560 C.3   102  ASN102      0.1770
     29  C        -22.3890  -35.7870   15.9010 C.2   102  ASN102      0.2439
     30  O        -22.2630  -36.8580   16.4910 O.2   102  ASN102     -0.2733
     31  CB       -21.5420  -36.4510   13.6200 C.3   102  ASN102      0.1168
     32  CG       -22.8480  -36.4480   12.8800 C.2   102  ASN102      0.2627
     33  OD1      -23.8530  -35.9470   13.3620 O.2   102  ASN102     -0.2716
     34  ND2      -22.8530  -37.0120   11.6830 N.am  102  ASN102     -0.0877
     35  N        -23.3380  -34.9040   16.2680 N.am  103  PRO103     -0.2718
     36  CA       -24.2580  -35.2510   17.3810 C.3   103  PRO103      0.1535
     37  C        -25.3540  -36.2530   17.0130 C.2   103  PRO103      0.2599
     38  O        -25.9130  -36.8740   17.9010 O.2   103  PRO103     -0.2715
     39  CB       -24.8670  -33.9050   17.7800 C.3   103  PRO103      0.0310
     40  CG       -24.8020  -33.0780   16.5600 C.3   103  PRO103      0.0237
     41  CD       -23.6450  -33.5670   15.7110 C.3   103  PRO103      0.0939
     42  N        -25.6780  -36.3700   15.7030 N.am  104  TYR104     -0.1960
     43  CA       -26.7200  -37.2210   15.1480 C.3   104  TYR104      0.1771
     44  C        -28.0690  -36.8920   15.7510 C.2   104  TYR104      0.2619
     45  O        -28.9040  -37.7890   15.9390 O.2   104  TYR104     -0.2715
     46  CB       -26.3560  -38.7090   15.3000 C.3   104  TYR104      0.0574
     47  CG       -25.4560  -39.2490   14.2080 C.ar  104  TYR104     -0.0198
     48  CD1      -25.8590  -39.2360   12.8770 C.ar  104  TYR104     -0.0009
     49  CD2      -24.2250  -39.8170   14.5110 C.ar  104  TYR104     -0.0009
     50  CE1      -25.0570  -39.7700   11.8760 C.ar  104  TYR104      0.0417
     51  CE2      -23.4300  -40.3830   13.5230 C.ar  104  TYR104      0.0417
     52  CZ       -23.8550  -40.3670   12.2070 C.ar  104  TYR104      0.1957
     53  OH       -23.0890  -40.9450   11.2230 O.3   104  TYR104     -0.2866
     54  N        -28.2770  -35.6040   16.0880 N.am  105  GLN105     -0.1964
     55  CA       -29.5190  -35.0920   16.6760 C.3   105  GLN105      0.1718
     56  C        -29.5220  -33.5920   16.6960 C.2   105  GLN105      0.2458
     57  O        -28.4410  -32.9820   16.7730 O.2   105  GLN105     -0.2730
     58  CB       -29.7310  -35.6150   18.1110 C.3   105  GLN105      0.0407
     59  CG       -28.7850  -35.0460   19.1660 C.3   105  GLN105      0.0908
     60  CD       -29.1760  -35.4800   20.5510 C.2   105  GLN105      0.2608
     61  OE1      -30.3330  -35.3460   20.9960 O.2   105  GLN105     -0.2717
     62  NE2      -28.2040  -35.9560   21.2870 N.am  105  GLN105     -0.0878
     63  N        -30.7170  -32.9600   16.7010 N.am  106  PRO106     -0.2727
     64  CA       -30.7670  -31.4990   16.8610 C.3   106  PRO106      0.1402
     65  C        -30.3870  -31.0990   18.2990 C.2   106  PRO106      0.2269
     66  O        -30.6850  -31.8070   19.2670 O.2   106  PRO106     -0.2865
     67  CB       -32.2310  -31.1460   16.5770 C.3   106  PRO106      0.0296
     68  CG       -32.8740  -32.3850   16.1200 C.3   106  PRO106      0.0237
     69  CD       -32.0740  -33.5220   16.6370 C.3   106  PRO106      0.0939
     70  N        -27.8880  -23.6550   15.9970 N.3   111  TYR111     -0.1241
     71  CA       -27.7510  -23.0480   14.6750 C.3   111  TYR111      0.1605
     72  C        -28.8060  -22.0230   14.3200 C.2   111  TYR111      0.2264
     73  O        -28.9510  -21.6630   13.1490 O.2   111  TYR111     -0.2867
     74  CB       -27.6990  -24.1420   13.6150 C.3   111  TYR111      0.0534
     75  CG       -26.6500  -25.1950   13.8820 C.ar  111  TYR111     -0.0201
     76  CD1      -25.3060  -24.8620   13.9430 C.ar  111  TYR111     -0.0009
     77  CD2      -26.9980  -26.5270   14.0230 C.ar  111  TYR111     -0.0009
     78  CE1      -24.3360  -25.8290   14.1510 C.ar  111  TYR111      0.0417
     79  CE2      -26.0380  -27.5020   14.2390 C.ar  111  TYR111      0.0417
     80  CZ       -24.7080  -27.1510   14.2930 C.ar  111  TYR111      0.1957
     81  OH       -23.7740  -28.1280   14.4840 O.3   111  TYR111     -0.2866
     82  N        -17.2360  -41.0190    5.5120 N.3   157  SER157     -0.1202
     83  CA       -18.6440  -40.9670    5.1380 C.3   157  SER157      0.2020
     84  C        -19.5390  -40.8950    6.4150 C.2   157  SER157      0.2619
     85  O        -19.3650  -41.6900    7.3260 O.2   157  SER157     -0.2717
     86  CB       -19.0030  -42.1900    4.3090 C.3   157  SER157      0.2103
     87  OG       -20.3930  -42.2040    4.0110 O.3   157  SER157     -0.2182
     88  N        -20.4310  -39.9120    6.4740 N.am  158  GLY158     -0.1942
     89  CA       -21.3300  -39.7000    7.6020 C.3   158  GLY158      0.2014
     90  C        -20.7940  -38.8400    8.7340 C.2   158  GLY158      0.2639
     91  O        -21.4800  -38.7020    9.7580 O.2   158  GLY158     -0.2714
     92  N        -19.5690  -38.2530    8.5930 N.am  159  ALA159     -0.1963
     93  CA       -18.9840  -37.4520    9.6980 C.3   159  ALA159      0.1728
     94  C        -19.6110  -36.0760    9.9130 C.2   159  ALA159      0.2617
     95  O        -19.5650  -35.5570   11.0320 O.2   159  ALA159     -0.2715
     96  CB       -17.4790  -37.3260    9.5510 C.3   159  ALA159      0.0334
     97  N        -20.1970  -35.5070    8.8670 N.am  160  GLY160     -0.1940
     98  CA       -20.8710  -34.2160    8.9500 C.3   160  GLY160      0.2014
     99  C        -20.3410  -33.1150    8.0490 C.2   160  GLY160      0.2639
    100  O        -20.6080  -31.9370    8.3000 O.2   160  GLY160     -0.2714
    101  N        -19.6250  -33.4790    6.9690 N.am  161  LYS161     -0.1963
    102  CA       -19.0480  -32.5330    6.0160 C.3   161  LYS161      0.1728
    103  C        -20.1190  -31.7050    5.3000 C.2   161  LYS161      0.2617
    104  O        -20.0130  -30.4780    5.2270 O.2   161  LYS161     -0.2715
    105  CB       -18.1550  -33.2570    5.0050 C.3   161  LYS161      0.0311
    106  CG       -16.9440  -33.9680    5.6150 C.3   161  LYS161      0.0038
    107  CD       -16.1240  -34.7080    4.5680 C.3   161  LYS161      0.0206
    108  CE       -16.8540  -35.8440    3.8950 C.3   161  LYS161      0.1093
    109  NZ       -17.2640  -36.9130    4.8600 N.3   161  LYS161     -0.1314
    110  N        -21.1490  -32.3690    4.7800 N.am  162  THR162     -0.1937
    111  CA       -22.2390  -31.7200    4.0460 C.3   162  THR162      0.2028
    112  C        -23.0130  -30.7760    4.9600 C.2   162  THR162      0.2642
    113  O        -23.2970  -29.6450    4.5540 O.2   162  THR162     -0.2714
    114  CB       -23.0940  -32.7870    3.3510 C.3   162  THR162      0.1808
    115  OG1      -22.3040  -33.3870    2.3230 O.3   162  THR162     -0.2208
    116  CG2      -24.3750  -32.2520    2.7670 C.3   162  THR162      0.0379
    117  N        -23.3370  -31.2190    6.1950 N.am  163  GLU163     -0.1963
    118  CA       -24.0590  -30.3730    7.1530 C.3   163  GLU163      0.1733
    119  C        -23.2260  -29.1500    7.5210 C.2   163  GLU163      0.2617
    120  O        -23.7580  -28.0380    7.5610 O.2   163  GLU163     -0.2715
    121  CB       -24.5110  -31.1520    8.3910 C.3   163  GLU163      0.0429
    122  CG       -25.5660  -32.2040    8.0830 C.3   163  GLU163      0.1163
    123  CD       -26.7250  -31.8190    7.1640 C.2   163  GLU163      0.3649
    124  OE1      -27.0070  -32.5890    6.2110 O.co2 163  GLU163     -0.2457
    125  OE2      -27.3370  -30.7450    7.3810 O.co2 163  GLU163     -0.2457
    126  N        -21.9060  -29.3480    7.7030 N.am  164  SER164     -0.1950
    127  CA       -20.9440  -28.2760    7.9770 C.3   164  SER164      0.1924
    128  C        -20.9410  -27.2460    6.8420 C.2   164  SER164      0.2314
    129  O        -20.9890  -26.0430    7.0940 O.2   164  SER164     -0.2863
    130  CB       -19.5400  -28.8500    8.1420 C.3   164  SER164      0.2116
    131  OG       -19.5000  -29.6300    9.3200 O.3   164  SER164     -0.2180
    132  N        -24.1060  -25.1240    6.8650 N.3   167  LEU167     -0.1245
    133  CA       -24.0530  -24.1660    7.9850 C.3   167  LEU167      0.1561
    134  C        -23.1560  -22.9540    7.6710 C.2   167  LEU167      0.2260
    135  O        -23.5300  -21.8210    7.9900 O.2   167  LEU167     -0.2867
    136  CB       -23.5940  -24.8570    9.2600 C.3   167  LEU167      0.0270
    137  CG       -24.6100  -25.8050    9.8650 C.3   167  LEU167      0.0019
    138  CD1      -23.9690  -26.7460   10.8380 C.3   167  LEU167      0.0001
    139  CD2      -25.7830  -25.0510   10.4750 C.3   167  LEU167      0.0001
    140  N        -24.1740  -43.6290    5.5720 N.3   213  ASN213     -0.1240
    141  CA       -24.8810  -42.3520    5.5820 C.3   213  ASN213      0.1653
    142  C        -26.1620  -42.4280    4.7700 C.2   213  ASN213      0.2266
    143  O        -26.1100  -42.7590    3.5970 O.2   213  ASN213     -0.2867
    144  CB       -23.9610  -41.2370    5.0410 C.3   213  ASN213      0.1155
    145  CG       -24.5240  -39.8420    5.1780 C.2   213  ASN213      0.2627
    146  OD1      -25.6510  -39.6540    5.6590 O.2   213  ASN213     -0.2716
    147  ND2      -23.7450  -38.8210    4.7980 N.am  213  ASN213     -0.0877
    148  N        -27.7740  -40.0190    3.6990 N.3   215  ASN215     -0.1225
    149  CA       -27.6790  -38.8870    2.7790 C.3   215  ASN215      0.1785
    150  C        -26.2220  -38.7320    2.2620 C.2   215  ASN215      0.2598
    151  O        -25.6700  -37.6350    2.2330 O.2   215  ASN215     -0.2718
    152  CB       -28.1730  -37.6170    3.4830 C.3   215  ASN215      0.1169
    153  CG       -28.3390  -36.4320    2.5870 C.2   215  ASN215      0.2627
    154  OD1      -28.7330  -36.5450    1.4190 O.2   215  ASN215     -0.2716
    155  ND2      -27.9860  -35.2760    3.1240 N.am  215  ASN215     -0.0877
    156  N        -25.5980  -39.8340    1.8520 N.am  216  SER216     -0.1938
    157  CA       -24.2220  -39.8220    1.3800 C.3   216  SER216      0.2055
    158  C        -24.0610  -39.0000    0.1110 C.2   216  SER216      0.2643
    159  O        -24.8350  -39.1750   -0.8310 O.2   216  SER216     -0.2714
    160  CB       -23.7510  -41.2440    1.1320 C.3   216  SER216      0.2130
    161  OG       -22.4120  -41.2250    0.6930 O.3   216  SER216     -0.2179
    162  N        -23.0400  -38.1080    0.0720 N.am  217  SER217     -0.1949
    163  CA       -22.7250  -37.2770   -1.0930 C.3   217  SER217      0.1924
    164  C        -22.0190  -38.1600   -2.0890 C.2   217  SER217      0.2314
    165  O        -20.9620  -38.7220   -1.7650 O.2   217  SER217     -0.2863
    166  CB       -21.8180  -36.1180   -0.6980 C.3   217  SER217      0.2116
    167  OG       -22.4380  -35.2950    0.2790 O.3   217  SER217     -0.2180
    168  N        -16.5070  -29.6060   -0.0970 N.3   432  ASP432     -0.1225
    169  CA       -17.3190  -30.6910    0.4600 C.3   432  ASP432      0.1805
    170  C        -17.0930  -31.9440   -0.4110 C.2   432  ASP432      0.2597
    171  O        -17.8390  -32.1780   -1.3750 O.2   432  ASP432     -0.2718
    172  CB       -18.8330  -30.3010    0.4870 C.3   432  ASP432      0.1424
    173  CG       -19.7730  -31.3510    1.0910 C.2   432  ASP432      0.3668
    174  OD1      -19.2780  -32.2480    1.8130 O.co2 432  ASP432     -0.2456
    175  OD2      -21.0120  -31.2580    0.8580 O.co2 432  ASP432     -0.2456
    176  N        -16.0800  -32.7460   -0.0920 N.am  433  ILE433     -0.1980
    177  CA       -15.8890  -33.9590   -0.8940 C.3   433  ILE433      0.1595
    178  C        -16.6780  -35.1420   -0.3360 C.2   433  ILE433      0.2287
    179  O        -17.1200  -35.1240    0.8170 O.2   433  ILE433     -0.2864
    180  CB       -14.4230  -34.3800   -1.0330 C.3   433  ILE433      0.0276
    181  CG1      -13.8050  -34.5680    0.3600 C.3   433  ILE433      0.0022
    182  CG2      -13.6380  -33.4520   -1.9540 C.3   433  ILE433      0.0022
    183  CD1      -12.5590  -35.2860    0.3200 C.3   433  ILE433      0.0001
    184  N        -16.7380  -38.4690    1.4640 N.3   435  GLY435     -0.1225
    185  CA       -15.8350  -38.9350    2.4980 C.3   435  GLY435      0.1811
    186  C        -15.3120  -40.3290    2.3000 C.2   435  GLY435      0.2280
    187  O        -15.8840  -41.1410    1.5540 O.2   435  GLY435     -0.2866
@<TRIPOS>BOND
     1   164   165    2
     2   164   163    1
     3   182   180    1
     4   171   170    2
     5   163   166    1
     6   163   162    1
     7   180   177    1
     8   180   181    1
     9   177   178    1
    10   177   176    1
    11   159   158    2
    12   166   167    1
    13   170   176   am
    14   170   169    1
    15   178   179    2
    16   168   169    1
    17   162   158   am
    18   158   157    1
    19   183   181    1
    20   169   172    1
    21   172   173    1
    22   161   160    1
    23   175   173   ar
    24   173   174   ar
    25   160   157    1
    26   157   156    1
    27   154   153    2
    28   184   185    1
    29   187   186    2
    30   156   150   am
    31   151   150    2
    32   150   149    1
    33   186   185    1
    34   115   114    1
    35   153   155   am
    36   153   152    1
    37   116   114    1
    38   149   152    1
    39   149   148    1
    40   114   111    1
    41   143   142    2
    42   108   107    1
    43   108   109    1
    44    87    86    1
    45   111   110    1
    46   111   112    1
    47    86    83    1
    48   113   112    2
    49   107   106    1
    50   142   141    1
    51   110   103   am
    52   147   145   am
    53   112   117   am
    54   105   106    1
    55   105   102    1
    56   144   145    1
    57   144   141    1
    58    83    82    1
    59    83    84    1
    60   145   146    2
    61   104   103    2
    62   103   102    1
    63   140   141    1
    64   102   101    1
    65   117   118    1
    66   124   123   ar
    67    84    88   am
    68    84    85    2
    69    88    89    1
    70   128   129    2
    71   128   127    1
    72   132   133    1
    73   101    99   am
    74   118   119    1
    75   118   121    1
    76   123   125   ar
    77   123   122    1
    78   119   120    2
    79   119   126   am
    80    89    90    1
    81   134   133    1
    82   134   135    2
    83   126   127    1
    84   127   130    1
    85   133   136    1
    86    99   100    2
    87    99    98    1
    88   122   121    1
    89   130   131    1
    90    92    90   am
    91    92    93    1
    92    90    91    2
    93    97    98    1
    94    97    94   am
    95   136   137    1
    96    96    93    1
    97    93    94    1
    98   137   139    1
    99   137   138    1
   100    94    95    2
   101    53    52    1
   102    34    32   am
   103    50    52   ar
   104    50    48   ar
   105    52    51   ar
   106    48    47   ar
   107    32    33    2
   108    32    31    1
   109    73    72    2
   110    51    49   ar
   111    26    25    1
   112    74    75    1
   113    74    71    1
   114    31    28    1
   115    25    22    1
   116    20    19    1
   117    75    76   ar
   118    75    77   ar
   119    76    78   ar
   120    77    79   ar
   121    78    80   ar
   122    47    49   ar
   123    47    46    1
   124    79    80   ar
   125    80    81    1
   126    72    71    1
   127    24    23    2
   128    71    70    1
   129    17    19   ar
   130    17    15   ar
   131    28    27    1
   132    28    29    1
   133    19    18   ar
   134    21    22    1
   135    22    23    1
   136    43    46    1
   137    43    42    1
   138    43    44    1
   139    42    37   am
   140    41    35    1
   141    41    40    1
   142    15    14   ar
   143    44    45    2
   144    44    54   am
   145    29    35   am
   146    29    30    2
   147    18    16   ar
   148    54    55    1
   149    68    67    1
   150    68    69    1
   151    35    36    1
   152     8     6    1
   153    40    39    1
   154    67    64    1
   155    69    63    1
   156    55    56    1
   157    55    58    1
   158    56    63   am
   159    56    57    2
   160    63    64    1
   161    64    65    1
   162    14    16   ar
   163    14    13    1
   164    37    36    1
   165    37    38    2
   166    36    39    1
   167     6     5    1
   168    13    10    1
   169    58    59    1
   170     4     3    2
   171    65    66    2
   172     5     7    1
   173     5     2    1
   174    10     9    1
   175    10    11    1
   176     3     9   am
   177     3     2    1
   178    59    60    1
   179     2     1    1
   180    11    12    2
   181    60    61    2
   182    60    62   am
