@<TRIPOS>MOLECULE
tmp/5i0jD00.pdb
 100 95 0 0 0
SMALL
GASTEIGER

@<TRIPOS>ATOM
      1  N         20.4250  -32.7640   31.4480 N.3    10  LEU10      -0.1245
      2  CA        21.3420  -31.8080   32.0650 C.3    10  LEU10       0.1561
      3  C         21.5220  -32.1080   33.5440 C.2    10  LEU10       0.2260
      4  O         22.6160  -31.9470   34.0910 O.2    10  LEU10      -0.2867
      5  CB        20.8460  -30.3680   31.8880 C.3    10  LEU10       0.0270
      6  CG        21.5810  -29.5310   30.8250 C.3    10  LEU10       0.0019
      7  CD1       23.0710  -29.4390   31.1200 C.3    10  LEU10       0.0001
      8  CD2       21.3960  -30.1500   29.4550 C.3    10  LEU10       0.0001
      9  N         24.0460  -34.8530   33.6860 N.3    13  PHE13      -0.1227
     10  CA        25.3840  -34.3500   33.3920 C.3    13  PHE13       0.1736
     11  C         25.9750  -33.6130   34.5920 C.2    13  PHE13       0.2595
     12  O         27.1180  -33.8630   34.9890 O.2    13  PHE13      -0.2718
     13  CB        25.3120  -33.4530   32.1530 C.3    13  PHE13       0.0547
     14  CG        26.5890  -32.7270   31.8370 C.ar   13  PHE13      -0.0202
     15  CD1       27.6870  -33.4040   31.3350 C.ar   13  PHE13      -0.0042
     16  CD2       26.6760  -31.3600   32.0130 C.ar   13  PHE13      -0.0042
     17  CE1       28.8570  -32.7180   31.0260 C.ar   13  PHE13      -0.0003
     18  CE2       27.8400  -30.6690   31.7070 C.ar   13  PHE13      -0.0003
     19  CZ        28.9260  -31.3490   31.2070 C.ar   13  PHE13      -0.0000
     20  N         25.1980  -32.7310   35.2130 N.am   14  HIS14      -0.1975
     21  CA        25.7580  -31.9520   36.3080 C.3    14  HIS14       0.1656
     22  C         26.0540  -32.8320   37.5180 C.2    14  HIS14       0.2291
     23  O         27.0810  -32.6510   38.1770 O.2    14  HIS14      -0.2864
     24  CB        24.8280  -30.7950   36.6510 C.3    14  HIS14       0.0771
     25  CG        24.9170  -29.6700   35.6700 C.ar   14  HIS14       0.0820
     26  ND1       23.9340  -28.7160   35.5220 N.ar   14  HIS14      -0.2267
     27  CD2       25.8740  -29.3730   34.7550 C.ar   14  HIS14       0.1154
     28  CE1       24.2920  -27.8670   34.5710 C.ar   14  HIS14       0.1986
     29  NE2       25.4650  -28.2450   34.0910 N.ar   14  HIS14      -0.2212
     30  N         29.3710  -34.6180   36.8380 N.3    17  ILE17      -0.1245
     31  CA        30.5950  -33.8170   36.8670 C.3    17  ILE17       0.1561
     32  C         30.7540  -33.0520   38.1670 C.2    17  ILE17       0.2260
     33  O         31.7480  -32.3250   38.3280 O.2    17  ILE17      -0.2867
     34  CB        30.6820  -32.8530   35.6660 C.3    17  ILE17       0.0252
     35  CG1       29.6630  -31.7070   35.7950 C.3    17  ILE17       0.0019
     36  CG2       30.4830  -33.6170   34.3440 C.3    17  ILE17       0.0019
     37  CD1       29.8920  -30.5170   34.8190 C.3    17  ILE17       0.0001
     38  N         29.8880  -18.0200   34.8650 N.3    35  LEU35      -0.1231
     39  CA        30.1350  -19.2010   34.0450 C.3    35  LEU35       0.1693
     40  C         29.0120  -19.4210   33.0310 C.2    35  LEU35       0.2591
     41  O         29.2720  -19.7230   31.8580 O.2    35  LEU35      -0.2718
     42  CB        30.2970  -20.4520   34.9170 C.3    35  LEU35       0.0284
     43  CG        30.4400  -21.7550   34.0830 C.3    35  LEU35       0.0019
     44  CD1       31.7150  -21.7540   33.2050 C.3    35  LEU35       0.0001
     45  CD2       30.4310  -23.0060   34.9780 C.3    35  LEU35       0.0001
     46  N         27.7600  -19.2940   33.4700 N.am   36  ARG36      -0.1980
     47  CA        26.6420  -19.5060   32.5530 C.3    36  ARG36       0.1597
     48  C         26.6870  -18.5210   31.3910 C.2    36  ARG36       0.2287
     49  O         26.4190  -18.8950   30.2360 O.2    36  ARG36      -0.2864
     50  CB        25.3080  -19.3820   33.2920 C.3    36  ARG36       0.0334
     51  CG        25.0640  -20.3640   34.4590 C.3    36  ARG36       0.0492
     52  CD        25.6300  -21.7720   34.2680 C.3    36  ARG36       0.2205
     53  NE        25.2700  -22.4160   32.9990 N.pl3  36  ARG36      -0.0865
     54  CZ        25.6260  -23.6580   32.6810 C.cat  36  ARG36       0.5346
     55  NH1       26.3170  -24.3820   33.5500 N.pl3  36  ARG36       0.1354
     56  NH2       25.3170  -24.1700   31.4920 N.pl3  36  ARG36       0.1354
     57  N         29.4610  -19.7090   28.9950 N.3    39  LEU39      -0.1245
     58  CA        29.0680  -20.8780   28.2150 C.3    39  LEU39       0.1561
     59  C         28.0650  -20.5050   27.1300 C.2    39  LEU39       0.2260
     60  O         28.1200  -21.0390   26.0120 O.2    39  LEU39      -0.2867
     61  CB        28.4830  -21.9430   29.1420 C.3    39  LEU39       0.0270
     62  CG        29.4880  -22.6240   30.0900 C.3    39  LEU39       0.0019
     63  CD1       28.7970  -23.6740   30.9520 C.3    39  LEU39       0.0001
     64  CD2       30.6560  -23.2350   29.3060 C.3    39  LEU39       0.0001
     65  N         30.0600  -18.6520   24.3590 N.3    42  GLU42      -0.1245
     66  CA        30.8260  -19.6120   23.5650 C.3    42  GLU42       0.1567
     67  C         29.9260  -20.3350   22.5680 C.2    42  GLU42       0.2260
     68  O         30.2660  -20.4650   21.3830 O.2    42  GLU42      -0.2867
     69  CB        31.5300  -20.6230   24.4820 C.3    42  GLU42       0.0388
     70  CG        32.6930  -20.0170   25.2740 C.3    42  GLU42       0.1160
     71  CD        33.3810  -21.0050   26.2350 C.2    42  GLU42       0.3649
     72  OE1       32.9240  -22.1630   26.3620 O.co2  42  GLU42      -0.2457
     73  OE2       34.3970  -20.6170   26.8500 O.co2  42  GLU42      -0.2457
     74  N         24.4620  -27.6830   21.1710 N.3    78  ASP78      -0.1239
     75  CA        25.3130  -27.1740   22.2480 C.3    78  ASP78       0.1674
     76  C         24.6780  -25.9590   22.9010 C.2    78  ASP78       0.2266
     77  O         24.7760  -25.7730   24.1210 O.2    78  ASP78      -0.2867
     78  CB        26.7040  -26.7900   21.7250 C.3    78  ASP78       0.1410
     79  CG        27.6220  -27.9800   21.5470 C.2    78  ASP78       0.3668
     80  OD1       27.3050  -29.0770   22.0610 O.co2  78  ASP78      -0.2456
     81  OD2       28.6770  -27.7960   20.9060 O.co2  78  ASP78      -0.2456
     82  N         22.0920  -27.0920   25.0990 N.3    81  TYR81      -0.1227
     83  CA        22.6910  -27.7530   26.2500 C.3    81  TYR81       0.1736
     84  C         23.0600  -26.7540   27.3350 C.2    81  TYR81       0.2595
     85  O         22.7650  -26.9830   28.5130 O.2    81  TYR81      -0.2718
     86  CB        23.9180  -28.5540   25.8150 C.3    81  TYR81       0.0548
     87  CG        24.1750  -29.7650   26.6810 C.ar   81  TYR81      -0.0200
     88  CD1       24.9250  -29.6640   27.8490 C.ar   81  TYR81      -0.0009
     89  CD2       23.6700  -31.0110   26.3330 C.ar   81  TYR81      -0.0009
     90  CE1       25.1480  -30.7740   28.6430 C.ar   81  TYR81       0.0417
     91  CE2       23.8800  -32.1230   27.1230 C.ar   81  TYR81       0.0417
     92  CZ        24.6230  -31.9990   28.2800 C.ar   81  TYR81       0.1957
     93  OH        24.8480  -33.1130   29.0690 O.3    81  TYR81      -0.2866
     94  N         23.6800  -25.6250   26.9610 N.am   82  VAL82      -0.1980
     95  CA        24.0960  -24.6570   27.9780 C.3    82  VAL82       0.1595
     96  C         22.9560  -23.7430   28.4040 C.2    82  VAL82       0.2287
     97  O         23.0470  -23.1130   29.4630 O.2    82  VAL82      -0.2864
     98  CB        25.2810  -23.7880   27.5130 C.3    82  VAL82       0.0276
     99  CG1       26.4350  -24.6560   27.0760 C.3    82  VAL82       0.0022
    100  CG2       24.8740  -22.8450   26.3640 C.3    82  VAL82       0.0022
@<TRIPOS>BOND
     1    81    79   ar
     2    74    75    1
     3    68    67    2
     4    79    78    1
     5    79    80   ar
     6    78    75    1
     7    75    76    1
     8    67    66    1
     9    76    77    2
    10    66    65    1
    11    66    69    1
    12    69    70    1
    13    82    83    1
    14    70    71    1
    15    86    83    1
    16    86    87    1
    17    60    59    2
    18    71    72   ar
    19    71    73   ar
    20    83    84    1
    21    89    87   ar
    22    89    91   ar
    23   100    98    1
    24    87    88   ar
    25    94    84   am
    26    94    95    1
    27    99    98    1
    28    91    92   ar
    29    59    58    1
    30    84    85    2
    31    98    95    1
    32    88    90   ar
    33    95    96    1
    34    58    57    1
    35    58    61    1
    36    92    90   ar
    37    92    93    1
    38    96    97    2
    39    61    62    1
    40    64    62    1
    41     8     6    1
    42    62    63    1
    43    49    48    2
    44     6     7    1
    45     6     5    1
    46    17    19   ar
    47    17    15   ar
    48    19    18   ar
    49    15    14   ar
    50    48    47    1
    51     1     2    1
    52    56    54    1
    53    18    16   ar
    54    14    16   ar
    55    14    13    1
    56    41    40    2
    57     5     2    1
    58     2     3    1
    59    13    10    1
    60    47    50    1
    61    47    46    1
    62    54    53    2
    63    54    55    1
    64    53    52    1
    65    40    46   am
    66    40    39    1
    67    44    43    1
    68    50    51    1
    69    10     9    1
    70    10    11    1
    71     3     4    2
    72    39    38    1
    73    39    42    1
    74    43    42    1
    75    43    45    1
    76    29    28   ar
    77    29    27   ar
    78    52    51    1
    79    36    34    1
    80    28    26   ar
    81    11    12    2
    82    11    20   am
    83    27    25   ar
    84    37    35    1
    85    20    21    1
    86    26    25   ar
    87    34    35    1
    88    34    31    1
    89    25    24    1
    90    21    24    1
    91    21    22    1
    92    30    31    1
    93    31    32    1
    94    22    23    2
    95    32    33    2
