@<TRIPOS>MOLECULE
tmp/5i0lA00.pdb
 167 167 0 0 0
SMALL
GASTEIGER

@<TRIPOS>ATOM
      1  N         13.3400   -6.5740    7.1880 N.3    67  HIS67      -0.1226
      2  CA        13.6790   -5.2200    7.5880 C.3    67  HIS67       0.1752
      3  C         14.9100   -5.3780    8.4520 C.2    67  HIS67       0.2595
      4  O         14.8260   -5.4630    9.6680 O.2    67  HIS67      -0.2718
      5  CB        12.5370   -4.5960    8.3680 C.3    67  HIS67       0.0759
      6  CG        11.3200   -4.3300    7.5390 C.ar   67  HIS67       0.0818
      7  ND1       10.3610   -5.2930    7.2800 N.ar   67  HIS67      -0.2268
      8  CD2       10.9040   -3.2080    6.9040 C.ar   67  HIS67       0.1154
      9  CE1        9.4060   -4.7750    6.5290 C.ar   67  HIS67       0.1986
     10  NE2        9.7070   -3.5080    6.2910 N.ar   67  HIS67      -0.2212
     11  N         16.0640   -5.4570    7.8170 N.am   68  ALA68      -0.1980
     12  CA        17.2940   -5.5750    8.5580 C.3    68  ALA68       0.1597
     13  C         17.6940   -4.2860    9.2810 C.2    68  ALA68       0.2287
     14  O         17.4140   -3.1510    8.8650 O.2    68  ALA68      -0.2864
     15  CB        18.4310   -6.0510    7.6740 C.3    68  ALA68       0.0319
     16  N         21.9550    4.9620   13.1630 N.3    74  GLY74      -0.1210
     17  CA        20.8260    4.9740   12.2360 C.3    74  GLY74       0.1956
     18  C         19.5200    4.4700   12.8490 C.2    74  GLY74       0.2612
     19  O         18.8720    5.1610   13.6670 O.2    74  GLY74      -0.2717
     20  N         19.1580    3.2540   12.4570 N.am   75  ILE75      -0.1965
     21  CA        17.8990    2.6460   12.8410 C.3    75  ILE75       0.1727
     22  C         18.1270    1.9800   14.2030 C.2    75  ILE75       0.2616
     23  O         19.0240    1.1270   14.3480 O.2    75  ILE75      -0.2715
     24  CB        17.4350    1.6200   11.7590 C.3    75  ILE75       0.0290
     25  CG1       17.0870    2.3230   10.4490 C.3    75  ILE75       0.0022
     26  CG2       16.2670    0.7420   12.2250 C.3    75  ILE75       0.0023
     27  CD1       16.0010    3.3590   10.5580 C.3    75  ILE75       0.0001
     28  N         17.3080    2.3610   15.1830 N.am   76  LEU76      -0.1963
     29  CA        17.4140    1.8460   16.5410 C.3    76  LEU76       0.1728
     30  C         16.5340    0.6160   16.8160 C.2    76  LEU76       0.2616
     31  O         16.8840   -0.2450   17.6180 O.2    76  LEU76      -0.2715
     32  CB        17.0100    2.9410   17.5100 C.3    76  LEU76       0.0311
     33  CG        17.7200    4.2860   17.3810 C.3    76  LEU76       0.0022
     34  CD1       17.1110    5.2270   18.4090 C.3    76  LEU76       0.0001
     35  CD2       19.1990    4.1350   17.6060 C.3    76  LEU76       0.0001
     36  N         15.3600    0.6020   16.1960 N.am   77  ALA77      -0.1963
     37  CA        14.3200   -0.3840   16.4530 C.3    77  ALA77       0.1728
     38  C         13.1990   -0.1650   15.4390 C.2    77  ALA77       0.2616
     39  O         13.1390    0.9030   14.8080 O.2    77  ALA77      -0.2715
     40  CB        13.7840   -0.2050   17.8640 C.3    77  ALA77       0.0334
     41  N         12.3420   -1.1670   15.2600 N.am   78  HIS78      -0.1959
     42  CA        11.0790   -0.9660   14.5670 C.3    78  HIS78       0.1787
     43  C         10.0760   -1.8860   15.1990 C.2    78  HIS78       0.2620
     44  O         10.4760   -2.7760   15.8990 O.2    78  HIS78      -0.2715
     45  CB        11.2240   -1.2210   13.0750 C.3    78  HIS78       0.0785
     46  CG        11.7790   -2.5640   12.7640 C.ar   78  HIS78       0.0821
     47  ND1       12.7980   -2.7510   11.8600 N.ar   78  HIS78      -0.2267
     48  CD2       11.5060   -3.7860   13.2880 C.ar   78  HIS78       0.1154
     49  CE1       13.1130   -4.0310   11.8420 C.ar   78  HIS78       0.1986
     50  NE2       12.3580   -4.6620   12.7080 N.ar   78  HIS78      -0.2212
     51  N          8.7850   -1.5950   15.0070 N.am   79  ALA79      -0.1977
     52  CA         7.6480   -2.4500   15.4280 C.3    79  ALA79       0.1597
     53  C          6.5020   -2.4950   14.4180 C.2    79  ALA79       0.2287
     54  O          6.1280   -1.4740   13.8140 O.2    79  ALA79      -0.2864
     55  CB         7.0850   -1.9890   16.7410 C.3    79  ALA79       0.0319
     56  N         12.4980    4.5240   26.8780 N.3   109  LEU109     -0.1231
     57  CA        11.8860    5.4740   25.9190 C.3   109  LEU109      0.1693
     58  C         11.6660    4.8150   24.5200 C.2   109  LEU109      0.2592
     59  O         10.6140    4.8730   23.8960 O.2   109  LEU109     -0.2718
     60  CB        12.7960    6.7070   25.8040 C.3   109  LEU109      0.0284
     61  CG        13.0230    7.5190   27.0950 C.3   109  LEU109      0.0019
     62  CD1       14.2160    8.4460   26.9670 C.3   109  LEU109      0.0001
     63  CD2       11.7850    8.3280   27.4550 C.3   109  LEU109      0.0001
     64  N         12.6860    4.1420   24.0510 N.am  110  THR110     -0.1953
     65  CA        12.6000    3.4640   22.7850 C.3   110  THR110      0.1897
     66  C         11.4620    2.4300   22.7890 C.2   110  THR110      0.2313
     67  O         10.7710    2.2490   21.7780 O.2   110  THR110     -0.2863
     68  CB        13.9230    2.7600   22.4470 C.3   110  THR110      0.1794
     69  OG1       15.0030    3.6860   22.5680 O.3   110  THR110     -0.2208
     70  CG2       13.8700    2.2010   21.0520 C.3   110  THR110      0.0378
     71  N          8.1200    4.0110   22.6540 N.3   113  HIS113     -0.1226
     72  CA         7.9110    4.4300   21.2770 C.3   113  HIS113      0.1752
     73  C          7.5000    3.3240   20.3450 C.2   113  HIS113      0.2595
     74  O          6.5200    3.4270   19.6270 O.2   113  HIS113     -0.2718
     75  CB         9.2070    5.0510   20.7620 C.3   113  HIS113      0.0759
     76  CG         9.0810    5.6410   19.3990 C.ar  113  HIS113      0.0818
     77  ND1        8.6980    6.9450   19.1790 N.ar  113  HIS113     -0.2268
     78  CD2        9.2620    5.0870   18.1870 C.ar  113  HIS113      0.1154
     79  CE1        8.6780    7.1710   17.8810 C.ar  113  HIS113      0.1986
     80  NE2        9.0090    6.0560   17.2610 N.ar  113  HIS113     -0.2212
     81  N          8.2560    2.2470   20.3580 N.am  114  GLU114     -0.1979
     82  CA         7.8870    1.0920   19.5590 C.3   114  GLU114      0.1602
     83  C          6.5600    0.5190   19.9690 C.2   114  GLU114      0.2287
     84  O          5.7460    0.1150   19.1040 O.2   114  GLU114     -0.2864
     85  CB         8.9620    0.0240   19.6070 C.3   114  GLU114      0.0415
     86  CG        10.2800    0.4290   18.9740 C.3   114  GLU114      0.1163
     87  CD        10.1300    1.0200   17.5930 C.2   114  GLU114      0.3649
     88  OE1        9.2350    0.5350   16.8440 O.co2 114  GLU114     -0.2457
     89  OE2       10.8880    1.9930   17.2960 O.co2 114  GLU114     -0.2457
     90  N          3.8450    2.3660   18.1930 N.3   117  HIS117     -0.1241
     91  CA         3.5940    1.7490   16.8800 C.3   117  HIS117      0.1621
     92  C          2.9390    0.3400   17.0510 C.2   117  HIS117      0.2264
     93  O          1.9960   -0.0120   16.3190 O.2   117  HIS117     -0.2867
     94  CB         4.8730    1.6000   16.0350 C.3   117  HIS117      0.0745
     95  CG         5.5520    2.8900   15.7110 C.ar  117  HIS117      0.0817
     96  ND1        4.8760    3.9990   15.2260 N.ar  117  HIS117     -0.2268
     97  CD2        6.8560    3.2370   15.7480 C.ar  117  HIS117      0.1154
     98  CE1        5.7350    4.9690   14.9900 C.ar  117  HIS117      0.1986
     99  NE2        6.9380    4.5320   15.2980 N.ar  117  HIS117     -0.2212
    100  N          3.4000    8.7820   13.8480 N.3   123  HIS123     -0.1241
    101  CA         4.3990    9.6740   14.3900 C.3   123  HIS123      0.1621
    102  C          3.7380   10.9860   14.6810 C.2   123  HIS123      0.2264
    103  O          2.6480   11.2330   14.1800 O.2   123  HIS123     -0.2867
    104  CB         5.5140    9.8790   13.3910 C.3   123  HIS123      0.0745
    105  CG         6.5840    8.8550   13.4800 C.ar  123  HIS123      0.0817
    106  ND1        7.0690    8.4190   14.6910 N.ar  123  HIS123     -0.2268
    107  CD2        7.2930    8.2060   12.5280 C.ar  123  HIS123      0.1154
    108  CE1        8.0120    7.5340   14.4800 C.ar  123  HIS123      0.1986
    109  NE2        8.1510    7.3600   13.1760 N.ar  123  HIS123     -0.2212
    110  N          6.7220   14.9130   22.0600 N.3   129  ALA129     -0.1231
    111  CA         5.9640   13.6950   21.9630 C.3   129  ALA129      0.1694
    112  C          6.8630   12.4690   21.9210 C.2   129  ALA129      0.2591
    113  O          7.8960   12.4440   21.2610 O.2   129  ALA129     -0.2718
    114  CB         5.0930   13.7200   20.7130 C.3   129  ALA129      0.0304
    115  N          6.4600   11.4300   22.6120 N.am  130  VAL130     -0.1980
    116  CA         7.2440   10.1950   22.5820 C.3   130  VAL130      0.1595
    117  C          7.2650    9.4960   21.2010 C.2   130  VAL130      0.2287
    118  O          8.2170    8.8290   20.8460 O.2   130  VAL130     -0.2864
    119  CB         6.7330    9.2700   23.6590 C.3   130  VAL130      0.0276
    120  CG1        5.4280    8.5970   23.2290 C.3   130  VAL130      0.0022
    121  CG2        7.8230    8.3070   24.0620 C.3   130  VAL130      0.0022
    122  N          7.4600   11.2420   18.4820 N.3   132  PHE132     -0.1228
    123  CA         8.3300   12.0650   17.6140 C.3   132  PHE132      0.1721
    124  C          9.3460   11.1410   16.9330 C.2   132  PHE132      0.2437
    125  O          9.9090   10.3000   17.6020 O.2   132  PHE132     -0.2733
    126  CB         9.0950   13.1030   18.4560 C.3   132  PHE132      0.0547
    127  CG         9.7590   14.1840   17.6480 C.ar  132  PHE132     -0.0202
    128  CD1        8.9790   15.1000   16.9370 C.ar  132  PHE132     -0.0042
    129  CD2       11.1430   14.3220   17.6190 C.ar  132  PHE132     -0.0042
    130  CE1        9.5630   16.1040   16.1880 C.ar  132  PHE132     -0.0003
    131  CE2       11.7320   15.3330   16.8600 C.ar  132  PHE132     -0.0003
    132  CZ        10.9490   16.2060   16.1390 C.ar  132  PHE132     -0.0000
    133  N          9.6050   11.3060   15.6250 N.am  133  PRO133     -0.2718
    134  CA        10.4860   10.3850   14.9180 C.3   133  PRO133      0.1535
    135  C         11.9450   10.4160   15.3040 C.2   133  PRO133      0.2599
    136  O         12.6220    9.4690   15.0190 O.2   133  PRO133     -0.2715
    137  CB        10.3830   10.8280   13.4630 C.3   133  PRO133      0.0310
    138  CG         9.1410   11.5920   13.3640 C.3   133  PRO133      0.0237
    139  CD         8.9460   12.2390   14.7010 C.3   133  PRO133      0.0939
    140  N         12.4480   11.5060   15.8780 N.am  134  THR134     -0.1937
    141  CA        13.8640   11.6030   16.2490 C.3   134  THR134      0.2028
    142  C         14.0590   11.1850   17.7050 C.2   134  THR134      0.2642
    143  O         13.3870   11.6510   18.5880 O.2   134  THR134     -0.2714
    144  CB        14.4210   13.0340   16.0250 C.3   134  THR134      0.1808
    145  OG1       14.4540   13.3590   14.6160 O.3   134  THR134     -0.2208
    146  CG2       15.8260   13.1570   16.5960 C.3   134  THR134      0.0379
    147  N         15.0190   10.3120   17.9440 N.am  135  TYR135     -0.1959
    148  CA        15.3120    9.8830   19.2920 C.3   135  TYR135      0.1771
    149  C         16.2360   10.8900   19.9400 C.2   135  TYR135      0.2619
    150  O         17.2100   11.3210   19.3480 O.2   135  TYR135     -0.2715
    151  CB        15.9620    8.4910   19.3490 C.3   135  TYR135      0.0574
    152  CG        16.5800    8.2240   20.7110 C.ar  135  TYR135     -0.0198
    153  CD1       15.8330    7.6500   21.7580 C.ar  135  TYR135     -0.0009
    154  CD2       17.8830    8.5910   20.9840 C.ar  135  TYR135     -0.0009
    155  CE1       16.3880    7.3950   23.0050 C.ar  135  TYR135      0.0417
    156  CE2       18.4400    8.3870   22.2480 C.ar  135  TYR135      0.0417
    157  CZ        17.6860    7.7840   23.2530 C.ar  135  TYR135      0.1957
    158  OH        18.2230    7.5740   24.4960 O.3   135  TYR135     -0.2866
    159  N         15.9360   11.2120   21.1850 N.am  136  LYS136     -0.1977
    160  CA        16.8000   12.0100   22.0080 C.3   136  LYS136      0.1596
    161  C         16.5540   11.6040   23.4430 C.2   136  LYS136      0.2287
    162  O         15.4380   11.2920   23.8230 O.2   136  LYS136     -0.2864
    163  CB        16.5340   13.5060   21.7830 C.3   136  LYS136      0.0298
    164  CG        15.2080   14.0060   22.3120 C.3   136  LYS136      0.0038
    165  CD        14.7870   15.3130   21.6430 C.3   136  LYS136      0.0206
    166  CE        15.8390   16.4150   21.7400 C.3   136  LYS136      0.1093
    167  NZ        16.0730   16.7810   23.1680 N.3   136  LYS136     -0.1314
@<TRIPOS>BOND
     1    10     9   ar
     2    10     8   ar
     3     9     7   ar
     4     8     6   ar
     5     1     2    1
     6     7     6   ar
     7     6     5    1
     8     2     5    1
     9     2     3    1
    10    15    12    1
    11    11     3   am
    12    11    12    1
    13     3     4    2
    14    12    13    1
    15    14    13    2
    16    25    27    1
    17    25    24    1
    18    24    26    1
    19    24    21    1
    20    49    47   ar
    21    49    50   ar
    22    47    46   ar
    23    17    18    1
    24    17    16    1
    25    20    21    1
    26    20    18   am
    27   107   109   ar
    28   107   105   ar
    29    50    48   ar
    30    46    45    1
    31    46    48   ar
    32    21    22    1
    33    18    19    2
    34    45    42    1
    35   109   108   ar
    36   138   137    1
    37   138   139    1
    38   104   105    1
    39   104   101    1
    40   137   134    1
    41   105   106   ar
    42    54    53    2
    43   100   101    1
    44   103   102    2
    45    22    23    2
    46    22    28   am
    47   101   102    1
    48    53    52    1
    49   108   106   ar
    50    42    43    1
    51    42    41    1
    52   145   144    1
    53   139   133    1
    54    39    38    2
    55   134   135    1
    56   134   133    1
    57    98    96   ar
    58    98    99   ar
    59    51    43   am
    60    51    52    1
    61   136   135    2
    62    28    29    1
    63    43    44    2
    64    96    95   ar
    65    41    38   am
    66    99    97   ar
    67   135   140   am
    68    52    55    1
    69    38    37    1
    70   133   124   am
    71    95    97   ar
    72    95    94    1
    73   140   141    1
    74   144   141    1
    75   144   146    1
    76    94    91    1
    77   132   130   ar
    78   132   131   ar
    79   130   128   ar
    80    36    37    1
    81    36    30   am
    82   141   142    1
    83    93    92    2
    84    37    40    1
    85    29    30    1
    86    29    32    1
    87    30    31    2
    88    88    87   ar
    89   131   129   ar
    90    91    92    1
    91    91    90    1
    92   124   125    2
    93   124   123    1
    94   128   127   ar
    95    80    79   ar
    96    80    78   ar
    97    89    87   ar
    98    33    32    1
    99    33    35    1
   100    33    34    1
   101    87    86    1
   102   123   126    1
   103   123   122    1
   104   129   127   ar
   105   127   126    1
   106   142   147   am
   107   142   143    2
   108    79    77   ar
   109   147   148    1
   110    78    76   ar
   111    86    85    1
   112    84    83    2
   113    77    76   ar
   114   148   151    1
   115   148   149    1
   116   150   149    2
   117   151   152    1
   118    76    75    1
   119    82    85    1
   120    82    83    1
   121    82    81    1
   122    74    73    2
   123   149   159   am
   124    73    81   am
   125    73    72    1
   126   152   154   ar
   127   152   153   ar
   128   114   111    1
   129    75    72    1
   130   118   117    2
   131   154   156   ar
   132    70    68    1
   133   159   160    1
   134   117   116    1
   135   113   112    2
   136    72    71    1
   137   165   166    1
   138   165   164    1
   139   166   167    1
   140   153   155   ar
   141    67    66    2
   142   163   160    1
   143   163   164    1
   144   112   111    1
   145   112   115   am
   146   111   110    1
   147   160   161    1
   148   156   157   ar
   149    68    69    1
   150    68    65    1
   151   116   115    1
   152   116   119    1
   153    65    66    1
   154    65    64    1
   155   155   157   ar
   156   120   119    1
   157   157   158    1
   158   161   162    2
   159   119   121    1
   160    59    58    2
   161    64    58   am
   162    58    57    1
   163    60    57    1
   164    60    61    1
   165    57    56    1
   166    62    61    1
   167    61    63    1
