@<TRIPOS>MOLECULE
tmp/5i0nA00.pdb
 170 160 0 0 0
SMALL
GASTEIGER

@<TRIPOS>ATOM
      1  N        -27.3450   29.5970    4.4850 N.3    31  ILE31      -0.1245
      2  CA       -26.3310   30.2850    5.2790 C.3    31  ILE31       0.1561
      3  C        -25.4910   31.1980    4.3930 C.2    31  ILE31       0.2260
      4  O        -25.4930   32.4180    4.5590 O.2    31  ILE31      -0.2867
      5  CB       -25.4090   29.2900    6.0090 C.3    31  ILE31       0.0252
      6  CG1      -26.2100   28.4620    7.0180 C.3    31  ILE31       0.0019
      7  CG2      -24.2740   30.0260    6.7030 C.3    31  ILE31       0.0019
      8  CD1      -25.3930   27.4040    7.7290 C.3    31  ILE31       0.0001
      9  N        -22.1840   31.8250    3.8940 N.3    33  GLN33      -0.1196
     10  CA       -21.1210   32.6460    4.4680 C.3    33  GLN33       0.1782
     11  C        -20.2840   31.8420    5.4590 C.2    33  GLN33       0.2306
     12  O        -20.4490   30.6280    5.5840 O.2    33  GLN33      -0.2863
     13  CB       -21.7040   33.8830    5.1550 C.2    33  GLN33       0.0051
     14  CG       -22.5180   33.6730    6.4070 C.2    33  GLN33       0.0584
     15  CD       -23.0090   34.9400    7.0810 C.2    33  GLN33       0.2840
     16  OE1      -23.3040   35.9080    6.3800 O.2    33  GLN33      -0.2667
     17  NE2      -23.2350   34.9610    8.3940 N.am   33  GLN33      -0.0837
     18  N        -22.0690   26.8850    0.8760 N.3    34  SER34      -0.1202
     19  CA       -22.8420   26.9330   -0.3600 C.3    34  SER34       0.2020
     20  C        -24.0430   25.9960   -0.2940 C.2    34  SER34       0.2619
     21  O        -25.1370   26.3410   -0.7360 O.2    34  SER34      -0.2717
     22  CB       -21.9610   26.5730   -1.5570 C.3    34  SER34       0.2103
     23  OG       -22.6840   26.6780   -2.7710 O.3    34  SER34      -0.2182
     24  N        -23.8310   24.8090    0.2660 N.am   35  GLY35      -0.1942
     25  CA       -24.8890   23.8250    0.4090 C.3    35  GLY35       0.2014
     26  C        -25.4090   23.7070    1.8290 C.2    35  GLY35       0.2639
     27  O        -25.8640   22.6420    2.2450 O.2    35  GLY35      -0.2714
     28  N        -25.3430   24.8050    2.5760 N.am   36  SER36      -0.1949
     29  CA       -25.7490   24.7950    3.9760 C.3    36  SER36       0.1924
     30  C        -26.9350   25.7180    4.2480 C.2    36  SER36       0.2314
     31  O        -27.0610   26.7830    3.6430 O.2    36  SER36      -0.2863
     32  CB       -24.5690   25.1850    4.8670 C.3    36  SER36       0.2116
     33  OG       -24.0810   26.4730    4.5320 O.3    36  SER36      -0.2180
     34  N        -29.6560   27.3310    7.4720 N.3    38  PHE38      -0.1241
     35  CA       -30.0580   27.4990    8.8620 C.3    38  PHE38       0.1605
     36  C        -31.4930   27.0230    9.0560 C.2    38  PHE38       0.2264
     37  O        -32.4410   27.7310    8.7180 O.2    38  PHE38      -0.2867
     38  CB       -29.9190   28.9590    9.2940 C.3    38  PHE38       0.0534
     39  CG       -28.5200   29.3480    9.6780 C.ar   38  PHE38      -0.0203
     40  CD1      -27.7260   28.4840   10.4160 C.ar   38  PHE38      -0.0042
     41  CD2      -27.9970   30.5720    9.2980 C.ar   38  PHE38      -0.0042
     42  CE1      -26.4390   28.8370   10.7710 C.ar   38  PHE38      -0.0003
     43  CE2      -26.7090   30.9290    9.6500 C.ar   38  PHE38      -0.0003
     44  CZ       -25.9290   30.0600   10.3870 C.ar   38  PHE38      -0.0000
     45  N        -28.1710   23.3490   11.7140 N.3    49  VAL49      -0.1245
     46  CA       -27.5360   23.5510   10.4180 C.3    49  VAL49       0.1561
     47  C        -27.6990   22.2940    9.5720 C.2    49  VAL49       0.2260
     48  O        -27.3510   21.1980   10.0100 O.2    49  VAL49      -0.2867
     49  CB       -26.0380   23.8820   10.5600 C.3    49  VAL49       0.0252
     50  CG1      -25.4020   24.0760    9.1890 C.3    49  VAL49       0.0019
     51  CG2      -25.8440   25.1170   11.4240 C.3    49  VAL49       0.0019
     52  N        -26.9660   20.2770    5.8950 N.3    51  LYS51      -0.1245
     53  CA       -26.1210   20.2130    4.7090 C.3    51  LYS51       0.1561
     54  C        -26.4370   18.9690    3.8870 C.2    51  LYS51       0.2260
     55  O        -25.8990   17.8940    4.1520 O.2    51  LYS51      -0.2867
     56  CB       -24.6420   20.2230    5.1000 C.3    51  LYS51       0.0271
     57  CG       -24.2210   21.4270    5.9260 C.3    51  LYS51       0.0035
     58  CD       -22.7380   21.3720    6.2600 C.3    51  LYS51       0.0206
     59  CE       -22.3230   22.5440    7.1340 C.3    51  LYS51       0.1093
     60  NZ       -20.8720   22.4980    7.4720 N.3    51  LYS51      -0.1314
     61  N        -21.6890   19.5940   18.5030 N.3   267  PRO267     -0.2116
     62  CA       -23.1530   19.6220   18.5880 C.3   267  PRO267      0.1372
     63  C        -23.7490   18.4000   17.8940 C.2   267  PRO267      0.2244
     64  O        -23.3270   18.0880   16.7800 O.2   267  PRO267     -0.2868
     65  CB       -23.5250   20.9140   17.8570 C.3   267  PRO267      0.0268
     66  CG       -22.3210   21.7820   17.9970 C.3   267  PRO267      0.0207
     67  CD       -21.1450   20.8430   17.9420 C.3   267  PRO267      0.0892
     68  N        -27.2490   19.1810   12.1900 N.3   306  GLN306     -0.1231
     69  CA       -26.4760   19.5290   13.3800 C.3   306  GLN306      0.1698
     70  C        -27.1690   20.5960   14.2220 C.2   306  GLN306      0.2592
     71  O        -27.5230   21.6630   13.7220 O.2   306  GLN306     -0.2718
     72  CB       -25.0740   19.9990   12.9810 C.3   306  GLN306      0.0381
     73  CG       -24.1820   20.3770   14.1540 C.3   306  GLN306      0.0905
     74  CD       -22.7320   20.5630   13.7450 C.2   306  GLN306      0.2608
     75  OE1      -22.2430   21.6870   13.6390 O.2   306  GLN306     -0.2717
     76  NE2      -22.0370   19.4550   13.5170 N.am  306  GLN306     -0.0878
     77  N        -27.3480   20.3000   15.5070 N.am  307  LEU307     -0.1966
     78  CA       -28.0320   21.2050   16.4260 C.3   307  LEU307      0.1728
     79  C        -27.3030   22.5360   16.5680 C.2   307  LEU307      0.2616
     80  O        -26.0850   22.5720   16.7400 O.2   307  LEU307     -0.2715
     81  CB       -28.1820   20.5520   17.8020 C.3   307  LEU307      0.0311
     82  CG       -29.0040   19.2650   17.8840 C.3   307  LEU307      0.0022
     83  CD1      -28.8870   18.6520   19.2710 C.3   307  LEU307      0.0001
     84  CD2      -30.4590   19.5350   17.5360 C.3   307  LEU307      0.0001
     85  N        -28.0570   23.6280   16.5010 N.am  308  PHE308     -0.1960
     86  CA       -27.4970   24.9650   16.6580 C.3   308  PHE308      0.1771
     87  C        -27.2590   25.2860   18.1320 C.2   308  PHE308      0.2619
     88  O        -28.1180   25.0290   18.9760 O.2   308  PHE308     -0.2715
     89  CB       -28.4260   26.0070   16.0280 C.3   308  PHE308      0.0574
     90  CG       -27.8230   27.3800   15.9260 C.ar  308  PHE308     -0.0200
     91  CD1      -27.1810   27.7830   14.7670 C.ar  308  PHE308     -0.0042
     92  CD2      -27.9040   28.2690   16.9850 C.ar  308  PHE308     -0.0042
     93  CE1      -26.6290   29.0450   14.6660 C.ar  308  PHE308     -0.0003
     94  CE2      -27.3510   29.5330   16.8900 C.ar  308  PHE308     -0.0003
     95  CZ       -26.7120   29.9210   15.7290 C.ar  308  PHE308     -0.0000
     96  N        -26.0930   25.8460   18.4370 N.am  309  VAL309     -0.1977
     97  CA       -25.7660   26.2350   19.8060 C.3   309  VAL309      0.1596
     98  C        -25.6890   27.7540   19.9390 C.2   309  VAL309      0.2287
     99  O        -25.1310   28.4330   19.0800 O.2   309  VAL309     -0.2864
    100  CB       -24.4370   25.6090   20.2700 C.3   309  VAL309      0.0276
    101  CG1      -24.6020   24.1120   20.4840 C.3   309  VAL309      0.0022
    102  CG2      -23.3310   25.8970   19.2650 C.3   309  VAL309      0.0022
    103  N        -22.2130   31.3830   21.3930 N.3   312  TYR312     -0.1241
    104  CA       -20.8360   31.1980   20.9430 C.3   312  TYR312      0.1605
    105  C        -20.3870   32.2610   19.9470 C.2   312  TYR312      0.2264
    106  O        -21.2020   32.8710   19.2550 O.2   312  TYR312     -0.2867
    107  CB       -20.6660   29.8120   20.3140 C.3   312  TYR312      0.0534
    108  CG       -20.8020   28.6720   21.2950 C.ar  312  TYR312     -0.0201
    109  CD1      -22.0500   28.2650   21.7470 C.ar  312  TYR312     -0.0009
    110  CD2      -19.6830   27.9980   21.7640 C.ar  312  TYR312     -0.0009
    111  CE1      -22.1800   27.2210   22.6410 C.ar  312  TYR312      0.0417
    112  CE2      -19.8010   26.9520   22.6590 C.ar  312  TYR312      0.0417
    113  CZ       -21.0520   26.5680   23.0940 C.ar  312  TYR312      0.1957
    114  OH       -21.1760   25.5290   23.9860 O.3   312  TYR312     -0.2866
    115  N        -16.6610   33.1290   17.2380 N.3   314  ASP314     -0.1239
    116  CA       -15.5000   32.5080   16.6070 C.3   314  ASP314      0.1674
    117  C        -14.3830   32.2660   17.6160 C.2   314  ASP314      0.2266
    118  O        -14.1570   33.0820   18.5090 O.2   314  ASP314     -0.2867
    119  CB       -14.9810   33.3770   15.4590 C.3   314  ASP314      0.1410
    120  CG       -15.2470   32.7660   14.0970 C.2   314  ASP314      0.3668
    121  OD1      -14.4870   31.8590   13.6960 O.co2 314  ASP314     -0.2456
    122  OD2      -16.2100   33.1940   13.4270 O.co2 314  ASP314     -0.2456
    123  N         -9.6050   20.2450    7.7640 N.3   353  ASP353     -0.1239
    124  CA       -10.0380   21.6360    7.7720 C.3   353  ASP353      0.1674
    125  C        -10.5260   22.0680    9.1510 C.2   353  ASP353      0.2266
    126  O        -11.7230   22.0320    9.4370 O.2   353  ASP353     -0.2867
    127  CB       -11.1400   21.8530    6.7320 C.3   353  ASP353      0.1410
    128  CG       -11.6530   23.2780    6.7110 C.2   353  ASP353      0.3668
    129  OD1      -10.8660   24.2020    7.0070 O.co2 353  ASP353     -0.2456
    130  OD2      -12.8470   23.4750    6.4020 O.co2 353  ASP353     -0.2456
    131  N        -11.6220   29.2540   12.4350 N.3   357  ASP357     -0.1225
    132  CA       -12.9560   29.5920   11.9570 C.3   357  ASP357      0.1805
    133  C        -13.9110   28.4030   12.0590 C.2   357  ASP357      0.2597
    134  O        -15.1230   28.5600   11.9130 O.2   357  ASP357     -0.2718
    135  CB       -12.8940   30.0880   10.5100 C.3   357  ASP357      0.1424
    136  CG       -12.2910   29.0650    9.5680 C.2   357  ASP357      0.3668
    137  OD1      -11.4240   28.2830   10.0110 O.co2 357  ASP357     -0.2456
    138  OD2      -12.6820   29.0420    8.3820 O.co2 357  ASP357     -0.2456
    139  N        -13.3620   27.2190   12.3070 N.am  358  ASN358     -0.1974
    140  CA       -14.1620   25.9980   12.3220 C.3   358  ASN358      0.1688
    141  C        -14.4500   25.4410   13.7160 C.2   358  ASN358      0.2292
    142  O        -14.9160   24.3100   13.8480 O.2   358  ASN358     -0.2864
    143  CB       -13.4850   24.9180   11.4800 C.3   358  ASN358      0.1181
    144  CG       -13.8700   24.9990   10.0180 C.2   358  ASN358      0.2629
    145  OD1      -14.8890   25.5930    9.6660 O.2   358  ASN358     -0.2716
    146  ND2      -13.0620   24.3930    9.1580 N.am  358  ASN358     -0.0877
    147  N        -15.9490   26.9430   17.7670 N.3   360  LEU360     -0.1245
    148  CA       -16.5020   28.0760   18.4990 C.3   360  LEU360      0.1561
    149  C        -16.1340   28.0440   19.9770 C.2   360  LEU360      0.2260
    150  O        -15.7810   26.9970   20.5210 O.2   360  LEU360     -0.2867
    151  CB       -18.0250   28.1110   18.3450 C.3   360  LEU360      0.0270
    152  CG       -18.5610   27.9860   16.9170 C.3   360  LEU360      0.0019
    153  CD1      -20.0820   28.0340   16.9030 C.3   360  LEU360      0.0001
    154  CD2      -17.9750   29.0670   16.0220 C.3   360  LEU360      0.0001
    155  N        -17.5240   22.6740   15.1820 N.3   380  ILE380     -0.1231
    156  CA       -18.4770   22.6940   14.0770 C.3   380  ILE380      0.1692
    157  C        -17.8140   22.3970   12.7370 C.2   380  ILE380      0.2592
    158  O        -16.5890   22.3050   12.6460 O.2   380  ILE380     -0.2718
    159  CB       -19.1900   24.0560   13.9710 C.3   380  ILE380      0.0266
    160  CG1      -18.1800   25.1550   13.6310 C.3   380  ILE380      0.0019
    161  CG2      -19.9320   24.3740   15.2610 C.3   380  ILE380      0.0020
    162  CD1      -18.8140   26.4640   13.2220 C.3   380  ILE380      0.0001
    163  N        -18.6380   22.2460   11.7030 N.am  381  ASP381     -0.1974
    164  CA       -18.1620   22.0890   10.3310 C.3   381  ASP381      0.1709
    165  C        -17.1560   20.9490   10.1940 C.2   381  ASP381      0.2293
    166  O        -16.0020   21.1690    9.8280 O.2   381  ASP381     -0.2864
    167  CB       -17.5360   23.3960    9.8370 C.3   381  ASP381      0.1436
    168  CG       -17.3990   23.4430    8.3270 C.2   381  ASP381      0.3671
    169  OD1      -17.7470   22.4480    7.6580 O.co2 381  ASP381     -0.2456
    170  OD2      -16.9350   24.4770    7.8070 O.co2 381  ASP381     -0.2456
@<TRIPOS>BOND
     1    23    22    1
     2    22    19    1
     3    21    20    2
     4    19    20    1
     5    19    18    1
     6    20    24   am
     7    24    25    1
     8    25    26    1
     9    26    27    2
    10    26    28   am
    11    28    29    1
    12    31    30    2
    13    54    55    2
    14    54    53    1
    15     9    10    1
    16    29    30    1
    17    29    32    1
    18     3     4    2
    19     3     2    1
    20    10    13    1
    21    10    11    1
    22     1     2    1
    23    33    32    1
    24    53    56    1
    25    53    52    1
    26    56    57    1
    27    13    14    2
    28     2     5    1
    29    11    12    2
    30    57    58    1
    31     5     7    1
    32     5     6    1
    33    58    59    1
    34    16    15    2
    35   130   128   ar
    36    14    15    1
    37   128   127    1
    38   128   129   ar
    39   127   124    1
    40     6     8    1
    41    15    17   am
    42    59    60    1
    43    34    35    1
    44   169   168   ar
    45   123   124    1
    46   124   125    1
    47   170   168   ar
    48   168   167    1
    49   138   136   ar
    50    37    36    2
    51    35    36    1
    52    35    38    1
    53   125   126    2
    54   146   144   am
    55    50    49    1
    56    38    39    1
    57    41    43   ar
    58    41    39   ar
    59   136   137   ar
    60   136   135    1
    61    47    48    2
    62    47    46    1
    63    43    44   ar
    64   145   144    2
    65    39    40   ar
    66   166   165    2
    67   167   164    1
    68   144   143    1
    69   165   164    1
    70   164   163    1
    71    44    42   ar
    72    40    42   ar
    73    46    49    1
    74    46    45    1
    75   135   132    1
    76    49    51    1
    77   143   140    1
    78   163   157   am
    79   134   133    2
    80   132   133    1
    81   132   131    1
    82   133   139   am
    83    68    69    1
    84   139   140    1
    85   140   141    1
    86   158   157    2
    87   157   156    1
    88    72    69    1
    89    72    73    1
    90   162   160    1
    91    69    70    1
    92   122   120   ar
    93    76    74   am
    94   160   159    1
    95    75    74    2
    96   121   120   ar
    97   141   142    2
    98    71    70    2
    99    74    73    1
   100   159   156    1
   101   159   161    1
   102   156   155    1
   103   120   119    1
   104    70    77   am
   105    93    91   ar
   106    93    95   ar
   107    91    90   ar
   108   119   116    1
   109    77    78    1
   110    95    94   ar
   111    90    89    1
   112    90    92   ar
   113   154   152    1
   114    89    86    1
   115    78    79    1
   116    78    81    1
   117    85    79   am
   118    85    86    1
   119    79    80    2
   120   116   115    1
   121   116   117    1
   122    86    87    1
   123    64    63    2
   124    94    92   ar
   125   153   152    1
   126   152   151    1
   127    84    82    1
   128   117   118    2
   129   147   148    1
   130    81    82    1
   131    65    66    1
   132    65    62    1
   133    82    83    1
   134    63    62    1
   135    67    66    1
   136    67    61    1
   137    87    96   am
   138    87    88    2
   139   151   148    1
   140    96    97    1
   141   148   149    1
   142    61    62    1
   143    99    98    2
   144   106   105    2
   145   102   100    1
   146    97    98    1
   147    97   100    1
   148   105   104    1
   149   149   150    2
   150   100   101    1
   151   107   104    1
   152   107   108    1
   153   104   103    1
   154   108   109   ar
   155   108   110   ar
   156   109   111   ar
   157   110   112   ar
   158   111   113   ar
   159   112   113   ar
   160   113   114    1
