@<TRIPOS>MOLECULE
tmp/5i0nA01.pdb
 119 121 0 0 0
SMALL
GASTEIGER

@<TRIPOS>ATOM
      1  N         -9.0300   12.8580   11.6880 N.3   350  ARG350     -0.1245
      2  CA        -8.0290   13.5230   10.8920 C.3   350  ARG350      0.1563
      3  C         -8.5850   14.6540   10.0860 C.2   350  ARG350      0.2260
      4  O         -8.6270   14.6040    8.8880 O.2   350  ARG350     -0.2867
      5  CB        -7.2500   12.5690   10.0200 C.3   350  ARG350      0.0307
      6  CG        -6.2500   13.2650    9.1310 C.3   350  ARG350      0.0489
      7  CD        -5.1680   13.9610    9.9120 C.3   350  ARG350      0.2205
      8  NE        -4.1980   14.6350    9.0780 N.pl3 350  ARG350     -0.0865
      9  CZ        -4.3370   15.8620    8.6140 C.cat 350  ARG350      0.5346
     10  NH1       -5.3990   16.5660    8.9040 N.pl3 350  ARG350      0.1354
     11  NH2       -3.4100   16.3840    7.8660 N.pl3 350  ARG350      0.1354
     12  N          1.2710   17.8620    4.1000 N.3   394  TRP394     -0.1227
     13  CA         0.6420   18.2220    5.3630 C.3   394  TRP394      0.1737
     14  C          0.4950   19.7340    5.4800 C.2   394  TRP394      0.2595
     15  O         -0.3830   20.2260    6.1830 O.2   394  TRP394     -0.2718
     16  CB         1.4430   17.6710    6.5460 C.3   394  TRP394      0.0564
     17  CG         2.7850   18.3100    6.7260 C.ar  394  TRP394      0.0003
     18  CD1        3.9760   17.8680    6.2310 C.ar  394  TRP394      0.0946
     19  CD2        3.0730   19.5060    7.4600 C.ar  394  TRP394      0.0152
     20  NE1        4.9890   18.7160    6.6090 N.ar  394  TRP394     -0.2442
     21  CE2        4.4610   19.7300    7.3630 C.ar  394  TRP394      0.0810
     22  CE3        2.2930   20.4110    8.1860 C.ar  394  TRP394      0.0012
     23  CZ2        5.0850   20.8210    7.9660 C.ar  394  TRP394      0.0191
     24  CZ3        2.9140   21.4930    8.7840 C.ar  394  TRP394      0.0001
     25  CH2        4.2960   21.6880    8.6710 C.ar  394  TRP394      0.0015
     26  N          1.3560   20.4680    4.7820 N.am  395  ARG395     -0.1980
     27  CA         1.2790   21.9240    4.7770 C.3   395  ARG395      0.1597
     28  C          0.0150   22.4040    4.0700 C.2   395  ARG395      0.2287
     29  O         -0.5050   23.4780    4.3710 O.2   395  ARG395     -0.2864
     30  CB         2.5180   22.5280    4.1140 C.3   395  ARG395      0.0334
     31  CG         3.7650   22.4800    4.9810 C.3   395  ARG395      0.0492
     32  CD         4.9360   23.1840    4.3160 C.3   395  ARG395      0.2205
     33  NE         6.0880   23.2760    5.2080 N.pl3 395  ARG395     -0.0865
     34  CZ         6.9620   22.2940    5.4020 C.cat 395  ARG395      0.5346
     35  NH1        6.8160   21.1400    4.7660 N.pl3 395  ARG395      0.1354
     36  NH2        7.9810   22.4650    6.2330 N.pl3 395  ARG395      0.1354
     37  N         -2.9980   20.8580    7.0620 N.3   398  PRO398     -0.2102
     38  CA        -2.4230   20.7040    8.4010 C.3   398  PRO398      0.1504
     39  C         -3.4460   20.8160    9.5280 C.2   398  PRO398      0.2575
     40  O         -4.5870   21.2140    9.2930 O.2   398  PRO398     -0.2718
     41  CB        -1.4330   21.8640    8.4720 C.3   398  PRO398      0.0282
     42  CG        -2.1140   22.9420    7.6860 C.3   398  PRO398      0.0208
     43  CD        -2.8930   22.2490    6.5850 C.3   398  PRO398      0.0893
     44  N         -3.0320   20.4560   10.7390 N.am  399  PHE399     -0.1977
     45  CA        -3.8040   20.7670   11.9350 C.3   399  PHE399      0.1639
     46  C         -3.4750   22.1920   12.3670 C.2   399  PHE399      0.2290
     47  O         -2.4400   22.4360   12.9860 O.2   399  PHE399     -0.2864
     48  CB        -3.4990   19.7810   13.0650 C.3   399  PHE399      0.0560
     49  CG        -3.8550   18.3560   12.7430 C.ar  399  PHE399     -0.0200
     50  CD1       -5.1800   17.9650   12.6450 C.ar  399  PHE399     -0.0042
     51  CD2       -2.8650   17.4050   12.5530 C.ar  399  PHE399     -0.0042
     52  CE1       -5.5110   16.6550   12.3520 C.ar  399  PHE399     -0.0003
     53  CE2       -3.1900   16.0940   12.2620 C.ar  399  PHE399     -0.0003
     54  CZ        -4.5150   15.7190   12.1620 C.ar  399  PHE399     -0.0000
     55  N         -2.3350   23.4560   15.8090 N.3   402  ALA402     -0.1231
     56  CA        -0.9930   23.0540   16.2170 C.3   402  ALA402      0.1694
     57  C         -0.0570   24.2560   16.3110 C.2   402  ALA402      0.2592
     58  O          0.8930   24.2520   17.0930 O.2   402  ALA402     -0.2718
     59  CB        -0.4340   22.0220   15.2510 C.3   402  ALA402      0.0304
     60  N         -0.3290   25.2810   15.5090 N.am  403  TRP403     -0.1976
     61  CA         0.4760   26.4980   15.5220 C.3   403  TRP403      0.1640
     62  C          0.0830   27.4300   16.6660 C.2   403  TRP403      0.2290
     63  O          0.7580   28.4250   16.9250 O.2   403  TRP403     -0.2864
     64  CB         0.3600   27.2340   14.1850 C.3   403  TRP403      0.0576
     65  CG         1.2060   26.6420   13.0980 C.ar  403  TRP403      0.0006
     66  CD1        2.5690   26.6090   13.0490 C.ar  403  TRP403      0.0946
     67  CD2        0.7460   26.0100   11.8970 C.ar  403  TRP403      0.0152
     68  NE1        2.9870   25.9900   11.8970 N.ar  403  TRP403     -0.2442
     69  CE2        1.8880   25.6130   11.1710 C.ar  403  TRP403      0.0810
     70  CE3       -0.5190   25.7380   11.3660 C.ar  403  TRP403      0.0012
     71  CZ2        1.8020   24.9600    9.9430 C.ar  403  TRP403      0.0191
     72  CZ3       -0.6010   25.0890   10.1460 C.ar  403  TRP403      0.0001
     73  CH2        0.5530   24.7090    9.4480 C.ar  403  TRP403      0.0015
     74  N          1.2800   19.6630   20.0170 N.3   476  LEU476     -0.1245
     75  CA         2.2770   19.9770   18.9970 C.3   476  LEU476      0.1561
     76  C          3.2240   18.8050   18.7560 C.2   476  LEU476      0.2260
     77  O          3.4950   18.4410   17.6120 O.2   476  LEU476     -0.2867
     78  CB         3.0770   21.2190   19.3920 C.3   476  LEU476      0.0270
     79  CG         4.2760   21.5510   18.5020 C.3   476  LEU476      0.0019
     80  CD1        3.8500   21.6740   17.0470 C.3   476  LEU476      0.0001
     81  CD2        4.9600   22.8240   18.9740 C.3   476  LEU476      0.0001
     82  N          1.3630   15.9900   16.8210 N.3   479  VAL479     -0.1231
     83  CA         1.2490   16.1120   15.3740 C.3   479  VAL479      0.1692
     84  C          2.6020   15.8890   14.7090 C.2   479  VAL479      0.2592
     85  O          2.6720   15.4230   13.5740 O.2   479  VAL479     -0.2718
     86  CB         0.6900   17.4880   14.9550 C.3   479  VAL479      0.0266
     87  CG1       -0.6400   17.7530   15.6450 C.3   479  VAL479      0.0020
     88  CG2        1.6860   18.5920   15.2680 C.3   479  VAL479      0.0020
     89  N          3.6740   16.2090   15.4280 N.am  480  GLN480     -0.1966
     90  CA         5.0250   16.0490   14.9010 C.3   480  GLN480      0.1733
     91  C          5.4300   14.5820   14.7840 C.2   480  GLN480      0.2616
     92  O          6.4140   14.2550   14.1200 O.2   480  GLN480     -0.2715
     93  CB         6.0300   16.8040   15.7710 C.3   480  GLN480      0.0408
     94  CG         6.0720   18.2980   15.4970 C.3   480  GLN480      0.0908
     95  CD         6.9080   19.0550   16.5060 C.2   480  GLN480      0.2608
     96  OE1        7.3370   18.5000   17.5170 O.2   480  GLN480     -0.2717
     97  NE2        7.1460   20.3340   16.2360 N.am  480  GLN480     -0.0878
     98  N          4.6760   13.7020   15.4350 N.am  481  MET481     -0.1964
     99  CA         4.8930   12.2690   15.2830 C.3   481  MET481      0.1722
    100  C          4.6010   11.8660   13.8430 C.2   481  MET481      0.2458
    101  O          3.5820   12.2680   13.2820 O.2   481  MET481     -0.2730
    102  CB         4.0130   11.4720   16.2490 C.3   481  MET481      0.0427
    103  CG         4.2680   11.7630   17.7200 C.3   481  MET481      0.0599
    104  SD         3.1410   10.8660   18.8080 S.3   481  MET481     -0.1393
    105  CE         3.5560    9.1690   18.4130 C.3   481  MET481      0.0692
    106  N          5.5010   11.0780   13.2350 N.am  482  PRO482     -0.2716
    107  CA         5.3250   10.6460   11.8440 C.3   482  PRO482      0.1521
    108  C          3.9980    9.9260   11.6310 C.2   482  PRO482      0.2440
    109  O          3.7490    8.9070   12.2760 O.2   482  PRO482     -0.2731
    110  CB         6.5060    9.6970   11.6210 C.3   482  PRO482      0.0310
    111  CG         7.5360   10.1470   12.5990 C.3   482  PRO482      0.0237
    112  CD         6.7700   10.5980   13.8070 C.3   482  PRO482      0.0939
    113  N          3.1500   10.4600   10.7380 N.am  483  PRO483     -0.2727
    114  CA         1.8540    9.8530   10.4190 C.3   483  PRO483      0.1402
    115  C          2.0100    8.4200    9.9250 C.2   483  PRO483      0.2269
    116  O          2.9350    8.1290    9.1670 O.2   483  PRO483     -0.2865
    117  CB         1.3040   10.7590    9.3130 C.3   483  PRO483      0.0296
    118  CG         1.9760   12.0700    9.5370 C.3   483  PRO483      0.0237
    119  CD         3.3540   11.7310   10.0230 C.3   483  PRO483      0.0939
@<TRIPOS>BOND
     1    28    29    2
     2    28    27    1
     3    12    13    1
     4    30    27    1
     5    30    31    1
     6    32    31    1
     7    32    33    1
     8    35    34    1
     9    27    26    1
    10    26    14   am
    11    33    34    2
    12    13    14    1
    13    13    16    1
    14    34    36    1
    15    14    15    2
    16    18    20   ar
    17    18    17   ar
    18    16    17    1
    19    43    37    1
    20    43    42    1
    21    20    21   ar
    22    17    19   ar
    23    37    38    1
    24    21    19   ar
    25    21    23   ar
    26    19    22   ar
    27    42    41    1
    28    11     9    1
    29    23    25   ar
    30    22    24   ar
    31    38    41    1
    32    38    39    1
    33     9    10    1
    34     9     8    2
    35    25    24   ar
    36     4     3    2
    37     8     7    1
    38     6     7    1
    39     6     5    1
    40   116   115    2
    41    40    39    2
    42   117   118    1
    43   117   114    1
    44    73    71   ar
    45    73    72   ar
    46    39    44   am
    47   118   119    1
    48   115   114    1
    49    71    69   ar
    50     5     2    1
    51   119   113    1
    52     3     2    1
    53    72    70   ar
    54   114   113    1
    55   113   108   am
    56    44    45    1
    57     2     1    1
    58    69    67   ar
    59    69    68   ar
    60    70    67   ar
    61   110   107    1
    62   110   111    1
    63   108   107    1
    64   108   109    2
    65   107   106    1
    66    67    65   ar
    67    68    66   ar
    68    45    46    1
    69    45    48    1
    70    54    53   ar
    71    54    52   ar
    72    53    51   ar
    73    52    50   ar
    74    46    47    2
    75    51    49   ar
    76   111   112    1
    77    50    49   ar
    78    49    48    1
    79    66    65   ar
    80    65    64    1
    81   106   112    1
    82   106   100   am
    83   101   100    2
    84    85    84    2
    85   100    99    1
    86    92    91    2
    87    64    61    1
    88    84    83    1
    89    84    89   am
    90    91    90    1
    91    91    98   am
    92    90    89    1
    93    90    93    1
    94    86    88    1
    95    86    83    1
    96    86    87    1
    97    59    56    1
    98    99    98    1
    99    99   102    1
   100    83    82    1
   101    94    93    1
   102    94    95    1
   103    60    61    1
   104    60    57   am
   105    61    62    1
   106    55    56    1
   107    56    57    1
   108    97    95   am
   109   102   103    1
   110    57    58    2
   111    95    96    2
   112    62    63    2
   113    80    79    1
   114    77    76    2
   115   103   104    1
   116   105   104    1
   117    79    81    1
   118    79    78    1
   119    76    75    1
   120    75    78    1
   121    75    74    1
