@<TRIPOS>MOLECULE
tmp/5i12A00.pdb
 176 176 0 0 0
SMALL
GASTEIGER

@<TRIPOS>ATOM
      1  N         14.6950  -21.7430    7.8700 N.3    69  PHE69      -0.1241
      2  CA        13.8920  -21.5360    9.0540 C.3    69  PHE69       0.1605
      3  C         12.8280  -22.6330    9.1530 C.2    69  PHE69       0.2264
      4  O         12.7590  -23.5200    8.2900 O.2    69  PHE69      -0.2867
      5  CB        13.2700  -20.1280    9.0320 C.3    69  PHE69       0.0534
      6  CG        14.2730  -19.0130    9.2330 C.ar   69  PHE69      -0.0203
      7  CD1       15.2780  -19.1290   10.1820 C.ar   69  PHE69      -0.0042
      8  CD2       14.2000  -17.8470    8.4740 C.ar   69  PHE69      -0.0042
      9  CE1       16.1970  -18.1020   10.3830 C.ar   69  PHE69      -0.0003
     10  CE2       15.1160  -16.8110    8.6640 C.ar   69  PHE69      -0.0003
     11  CZ        16.1260  -16.9490    9.6180 C.ar   69  PHE69      -0.0000
     12  N         10.4220  -21.9510   17.5450 N.3    74  GLY74      -0.1210
     13  CA        11.7000  -22.5850   17.2600 C.3    74  GLY74       0.1956
     14  C         12.7290  -21.5100   16.9340 C.2    74  GLY74       0.2612
     15  O         12.8860  -20.5450   17.6900 O.2    74  GLY74      -0.2717
     16  N         13.4300  -21.6750   15.8140 N.am   75  LEU75      -0.1965
     17  CA        14.4000  -20.6870   15.3520 C.3    75  LEU75       0.1728
     18  C         13.7060  -19.3660   15.0570 C.2    75  LEU75       0.2616
     19  O         12.6710  -19.3520   14.3870 O.2    75  LEU75      -0.2715
     20  CB        15.1180  -21.1830   14.0950 C.3    75  LEU75       0.0311
     21  CG        15.8700  -22.5110   14.1910 C.3    75  LEU75       0.0022
     22  CD1       16.3210  -22.9590   12.8070 C.3    75  LEU75       0.0001
     23  CD2       17.0580  -22.3940   15.1540 C.3    75  LEU75       0.0001
     24  N         14.2740  -18.2630   15.5460 N.am   76  LEU76      -0.1963
     25  CA        13.6890  -16.9390   15.3280 C.3    76  LEU76       0.1728
     26  C         14.3990  -16.1770   14.2240 C.2    76  LEU76       0.2616
     27  O         13.7840  -15.3990   13.5070 O.2    76  LEU76      -0.2715
     28  CB        13.7360  -16.1100   16.6080 C.3    76  LEU76       0.0311
     29  CG        13.1160  -16.7630   17.8430 C.3    76  LEU76       0.0022
     30  CD1       13.4180  -15.9480   19.1010 C.3    76  LEU76       0.0001
     31  CD2       11.6190  -16.9280   17.6330 C.3    76  LEU76       0.0001
     32  N         15.7040  -16.3870   14.1100 N.am   77  ALA77      -0.1963
     33  CA        16.5360  -15.5610   13.2540 C.3    77  ALA77       0.1728
     34  C         17.9330  -16.1340   13.2770 C.2    77  ALA77       0.2616
     35  O         18.2270  -16.9900   14.1050 O.2    77  ALA77      -0.2715
     36  CB        16.5540  -14.0950   13.7430 C.3    77  ALA77       0.0334
     37  N         18.7910  -15.6640   12.3730 N.am   78  HIS78      -0.1959
     38  CA        20.2050  -16.0180   12.4440 C.3    78  HIS78       0.1787
     39  C         21.0590  -14.9670   11.7390 C.2    78  HIS78       0.2620
     40  O         20.5490  -14.1570   10.9570 O.2    78  HIS78      -0.2715
     41  CB        20.4580  -17.4280   11.8790 C.3    78  HIS78       0.0785
     42  CG        20.0900  -17.6200   10.4340 C.ar   78  HIS78       0.0821
     43  ND1       19.6890  -18.8440    9.9400 N.ar   78  HIS78      -0.2267
     44  CD2       20.0990  -16.7750    9.3730 C.ar   78  HIS78       0.1154
     45  CE1       19.4560  -18.7450    8.6420 C.ar   78  HIS78       0.1986
     46  NE2       19.7000  -17.5000    8.2710 N.ar   78  HIS78      -0.2212
     47  N         22.3560  -14.9630   12.0420 N.am   79  ALA79      -0.1977
     48  CA        23.2700  -13.9910   11.4610 C.3    79  ALA79       0.1597
     49  C         24.6520  -14.5990   11.2980 C.2    79  ALA79       0.2287
     50  O         25.0800  -15.4130   12.1180 O.2    79  ALA79      -0.2864
     51  CB        23.3420  -12.7470   12.3150 C.3    79  ALA79       0.0319
     52  N         14.8040   -6.6050   20.3670 N.3   110  LEU110     -0.1231
     53  CA        15.6390   -7.5180   21.1500 C.3   110  LEU110      0.1693
     54  C         16.2520   -8.5920   20.2670 C.2   110  LEU110      0.2591
     55  O         17.4500   -8.9130   20.3790 O.2   110  LEU110     -0.2718
     56  CB        14.8310   -8.1740   22.2800 C.3   110  LEU110      0.0284
     57  CG        14.4610   -7.2640   23.4490 C.3   110  LEU110      0.0019
     58  CD1       13.5310   -7.9800   24.4370 C.3   110  LEU110      0.0001
     59  CD2       15.7130   -6.7500   24.1490 C.3   110  LEU110      0.0001
     60  N         15.4610   -9.1730   19.3710 N.am  111  VAL111     -0.1980
     61  CA        16.0280  -10.2490   18.5570 C.3   111  VAL111      0.1595
     62  C         17.0780   -9.6700   17.6080 C.2   111  VAL111      0.2287
     63  O         18.1380  -10.2800   17.4110 O.2   111  VAL111     -0.2864
     64  CB        14.9290  -11.0280   17.7730 C.3   111  VAL111      0.0276
     65  CG1       15.5540  -12.0610   16.8310 C.3   111  VAL111      0.0022
     66  CG2       13.9730  -11.7190   18.7530 C.3   111  VAL111      0.0022
     67  N         20.3630   -9.0130   19.4530 N.3   114  HIS114     -0.1226
     68  CA        21.0610  -10.2940   19.6110 C.3   114  HIS114      0.1752
     69  C         21.7730  -10.6980   18.3190 C.2   114  HIS114      0.2595
     70  O         22.9760  -11.0200   18.3190 O.2   114  HIS114     -0.2718
     71  CB        20.0540  -11.3800   20.0290 C.3   114  HIS114      0.0759
     72  CG        20.6500  -12.7470   20.1760 C.ar  114  HIS114      0.0818
     73  ND1       21.1290  -13.2310   21.3750 N.ar  114  HIS114     -0.2268
     74  CD2       20.7970  -13.7480   19.2770 C.ar  114  HIS114      0.1154
     75  CE1       21.5700  -14.4690   21.1990 C.ar  114  HIS114      0.1986
     76  NE2       21.3770  -14.8020   19.9350 N.ar  114  HIS114     -0.2212
     77  N         21.0310  -10.6670   17.2120 N.am  115  GLU115     -0.1979
     78  CA        21.5900  -11.0810   15.9250 C.3   115  GLU115      0.1602
     79  C         22.7310  -10.1760   15.4770 C.2   115  GLU115      0.2287
     80  O         23.7200  -10.6660   14.9530 O.2   115  GLU115     -0.2864
     81  CB        20.4880  -11.1260   14.8600 C.3   115  GLU115      0.0415
     82  CG        19.4270  -12.1980   15.1380 C.3   115  GLU115      0.1163
     83  CD        20.0090  -13.6040   15.3100 C.2   115  GLU115      0.3649
     84  OE1       21.1000  -13.9060   14.7500 O.co2 115  GLU115     -0.2457
     85  OE2       19.3640  -14.4150   16.0190 O.co2 115  GLU115     -0.2457
     86  N         25.8230  -11.3300   16.9410 N.3   118  HIS118     -0.1241
     87  CA        26.4920  -12.3880   16.1630 C.3   118  HIS118      0.1621
     88  C         27.2110  -11.8200   14.9400 C.2   118  HIS118      0.2264
     89  O         28.3120  -12.2680   14.5880 O.2   118  HIS118     -0.2867
     90  CB        25.5080  -13.4630   15.6950 C.3   118  HIS118      0.0745
     91  CG        24.9910  -14.3490   16.7850 C.ar  118  HIS118      0.0817
     92  ND1       25.8160  -15.0320   17.6550 N.ar  118  HIS118     -0.2268
     93  CD2       23.7240  -14.6940   17.1190 C.ar  118  HIS118      0.1154
     94  CE1       25.0780  -15.7410   18.4940 C.ar  118  HIS118      0.1986
     95  NE2       23.8060  -15.5540   18.1900 N.ar  118  HIS118     -0.2212
     96  N         29.7660  -14.7340   20.2040 N.3   123  ASP123     -0.1225
     97  CA        29.0730  -16.0060   20.3330 C.3   123  ASP123      0.1805
     98  C         28.1660  -15.9140   21.5510 C.2   123  ASP123      0.2597
     99  O         27.8880  -14.8190   22.0450 O.2   123  ASP123     -0.2718
    100  CB        30.0490  -17.1830   20.4570 C.3   123  ASP123      0.1424
    101  CG        29.4270  -18.5070   20.0150 C.2   123  ASP123      0.3668
    102  OD1       29.2500  -18.7050   18.7930 O.co2 123  ASP123     -0.2456
    103  OD2       29.1110  -19.3450   20.8870 O.co2 123  ASP123     -0.2456
    104  N         27.6930  -17.0520   22.0370 N.am  124  HIS124     -0.1975
    105  CA        26.6890  -17.0160   23.0930 C.3   124  HIS124      0.1656
    106  C         27.2860  -16.8620   24.4840 C.2   124  HIS124      0.2291
    107  O         28.4250  -17.2480   24.7450 O.2   124  HIS124     -0.2864
    108  CB        25.8110  -18.2690   23.0330 C.3   124  HIS124      0.0771
    109  CG        24.8200  -18.2530   21.9080 C.ar  124  HIS124      0.0820
    110  ND1       24.5390  -19.3660   21.1450 N.ar  124  HIS124     -0.2267
    111  CD2       24.0360  -17.2570   21.4220 C.ar  124  HIS124      0.1154
    112  CE1       23.6350  -19.0580   20.2330 C.ar  124  HIS124      0.1986
    113  NE2       23.3130  -17.7850   20.3790 N.ar  124  HIS124     -0.2212
    114  N         22.1530  -11.8920   30.0740 N.3   130  ALA130     -0.1231
    115  CA        22.9030  -11.2850   28.9800 C.3   130  ALA130      0.1694
    116  C         22.1140  -11.3130   27.6750 C.2   130  ALA130      0.2591
    117  O         21.3510  -12.2460   27.4050 O.2   130  ALA130     -0.2718
    118  CB        24.2580  -11.9890   28.7940 C.3   130  ALA130      0.0304
    119  N         22.3050  -10.2820   26.8610 N.am  131  LEU131     -0.1980
    120  CA        21.6700  -10.2160   25.5540 C.3   131  LEU131      0.1596
    121  C         22.0880  -11.4070   24.6870 C.2   131  LEU131      0.2287
    122  O         21.2820  -11.9560   23.9460 O.2   131  LEU131     -0.2864
    123  CB        22.0170   -8.8930   24.8710 C.3   131  LEU131      0.0297
    124  CG        21.5260   -8.7240   23.4310 C.3   131  LEU131      0.0022
    125  CD1       20.0100   -8.8300   23.3360 C.3   131  LEU131      0.0001
    126  CD2       21.9830   -7.3870   22.8800 C.3   131  LEU131      0.0001
    127  N         22.7290  -14.3980   25.4910 N.3   133  TYR133     -0.1228
    128  CA        22.2200  -15.6840   25.9630 C.3   133  TYR133      0.1721
    129  C         21.3960  -16.3680   24.8630 C.2   133  TYR133      0.2437
    130  O         20.6910  -15.6910   24.1290 O.2   133  TYR133     -0.2733
    131  CB        21.3700  -15.4860   27.2150 C.3   133  TYR133      0.0547
    132  CG        21.2690  -16.7260   28.0510 C.ar  133  TYR133     -0.0200
    133  CD1       22.3790  -17.2020   28.7360 C.ar  133  TYR133     -0.0009
    134  CD2       20.0800  -17.4340   28.1490 C.ar  133  TYR133     -0.0009
    135  CE1       22.3120  -18.3320   29.5010 C.ar  133  TYR133      0.0417
    136  CE2       20.0030  -18.5840   28.9230 C.ar  133  TYR133      0.0417
    137  CZ        21.1270  -19.0200   29.5970 C.ar  133  TYR133      0.1957
    138  OH        21.0890  -20.1500   30.3740 O.3   133  TYR133     -0.2866
    139  N         21.4690  -17.7090   24.7540 N.am  134  PRO134     -0.2718
    140  CA        20.8770  -18.3790   23.5840 C.3   134  PRO134      0.1535
    141  C         19.3820  -18.6880   23.6670 C.2   134  PRO134      0.2598
    142  O         18.8620  -19.3840   22.8010 O.2   134  PRO134     -0.2715
    143  CB        21.6680  -19.7000   23.4940 C.3   134  PRO134      0.0310
    144  CG        22.7470  -19.6080   24.5220 C.3   134  PRO134      0.0237
    145  CD        22.2920  -18.6360   25.5450 C.3   134  PRO134      0.0939
    146  N         18.7110  -18.1790   24.6920 N.am  135  MET135     -0.1964
    147  CA        17.2690  -18.3300   24.7940 C.3   135  MET135      0.1736
    148  C         16.6280  -16.9470   24.8510 C.2   135  MET135      0.2616
    149  O         17.1180  -16.0570   25.5430 O.2   135  MET135     -0.2715
    150  CB        16.8920  -19.1580   26.0240 C.3   135  MET135      0.0427
    151  CG        17.4940  -20.5570   26.0420 C.3   135  MET135      0.0599
    152  SD        17.0370  -21.4930   27.5140 S.3   135  MET135     -0.1393
    153  CE        15.2740  -21.6920   27.2630 C.3   135  MET135      0.0692
    154  N         15.5470  -16.7640   24.1040 N.am  136  TYR136     -0.1960
    155  CA        14.8300  -15.4940   24.1150 C.3   136  TYR136      0.1771
    156  C         14.0550  -15.3340   25.4030 C.2   136  TYR136      0.2619
    157  O         13.3180  -16.2250   25.8030 O.2   136  TYR136     -0.2715
    158  CB        13.8730  -15.4020   22.9240 C.3   136  TYR136      0.0574
    159  CG        12.9820  -14.1740   22.9210 C.ar  136  TYR136     -0.0198
    160  CD1       11.7480  -14.1810   23.5700 C.ar  136  TYR136     -0.0009
    161  CD2       13.3560  -13.0310   22.2380 C.ar  136  TYR136     -0.0009
    162  CE1       10.9300  -13.0580   23.5650 C.ar  136  TYR136      0.0417
    163  CE2       12.5360  -11.9090   22.2150 C.ar  136  TYR136      0.0417
    164  CZ        11.3350  -11.9340   22.8830 C.ar  136  TYR136      0.1957
    165  OH        10.5180  -10.8250   22.8690 O.3   136  TYR136     -0.2866
    166  N         14.2170  -14.1910   26.0530 N.am  137  ARG137     -0.1977
    167  CA        13.3750  -13.8560   27.1910 C.3   137  ARG137      0.1597
    168  C         13.0220  -12.3880   27.0780 C.2   137  ARG137      0.2287
    169  O         13.9100  -11.5390   27.0430 O.2   137  ARG137     -0.2864
    170  CB        14.0850  -14.1540   28.5180 C.3   137  ARG137      0.0334
    171  CG        13.1800  -14.0820   29.7290 C.3   137  ARG137      0.0492
    172  CD        13.9780  -14.2320   31.0160 C.3   137  ARG137      0.2205
    173  NE        13.1200  -14.2480   32.1980 N.pl3 137  ARG137     -0.0865
    174  CZ        13.5490  -14.0210   33.4370 C.cat 137  ARG137      0.5346
    175  NH1       12.6990  -14.0570   34.4560 N.pl3 137  ARG137      0.1354
    176  NH2       14.8300  -13.7530   33.6580 N.pl3 137  ARG137      0.1354
@<TRIPOS>BOND
     1     1     2    1
     2    46    45   ar
     3    46    44   ar
     4     4     3    2
     5     8    10   ar
     6     8     6   ar
     7    45    43   ar
     8    10    11   ar
     9     5     2    1
    10     5     6    1
    11     2     3    1
    12     6     7   ar
    13    44    42   ar
    14    11     9   ar
    15    43    42   ar
    16     7     9   ar
    17    42    41    1
    18    40    39    2
    19    49    48    1
    20    49    50    2
    21    48    47    1
    22    48    51    1
    23    39    47   am
    24    39    38    1
    25    41    38    1
    26    37    38    1
    27    37    34   am
    28    22    21    1
    29    33    34    1
    30    33    36    1
    31    33    32    1
    32    34    35    2
    33    27    26    2
    34    20    21    1
    35    20    17    1
    36    32    26   am
    37    21    23    1
    38    26    25    1
    39    19    18    2
    40    89    88    2
    41    84    83   ar
    42    81    82    1
    43    81    78    1
    44    88    87    1
    45    80    79    2
    46    18    17    1
    47    18    24   am
    48    82    83    1
    49    83    85   ar
    50    25    24    1
    51    25    28    1
    52    17    16    1
    53    79    78    1
    54    90    87    1
    55    90    91    1
    56    16    14   am
    57    78    77    1
    58    87    86    1
    59    28    29    1
    60    91    93   ar
    61    91    92   ar
    62    65    64    1
    63    14    13    1
    64    14    15    2
    65    93    95   ar
    66    77    69   am
    67    13    12    1
    68    63    62    2
    69    62    61    1
    70    31    29    1
    71    92    94   ar
    72    64    61    1
    73    64    66    1
    74    29    30    1
    75    95    94   ar
    76    69    70    2
    77    69    68    1
    78    61    60    1
    79   102   101   ar
    80    74    76   ar
    81    74    72   ar
    82    60    54   am
    83    67    68    1
    84    68    71    1
    85    76    75   ar
    86   101   100    1
    87   101   103   ar
    88    71    72    1
    89    72    73   ar
    90    96    97    1
    91   112   113   ar
    92   112   110   ar
    93    54    55    2
    94    54    53    1
    95    97   100    1
    96    97    98    1
    97    52    53    1
    98   113   111   ar
    99   110   109   ar
   100    53    56    1
   101    75    73   ar
   102   111   109   ar
   103    98   104   am
   104    98    99    2
   105   109   108    1
   106   104   105    1
   107   163   161   ar
   108   163   164   ar
   109   161   159   ar
   110    56    57    1
   111   142   141    2
   112   165   164    1
   113   126   124    1
   114   164   162   ar
   115   159   158    1
   116   159   160   ar
   117   158   155    1
   118   108   105    1
   119   105   106    1
   120   125   124    1
   121   124   123    1
   122    57    59    1
   123    57    58    1
   124   143   140    1
   125   143   144    1
   126   162   160   ar
   127   140   141    1
   128   140   139    1
   129   141   146   am
   130   122   121    2
   131   154   155    1
   132   154   148   am
   133   155   156    1
   134   130   129    2
   135   106   107    2
   136   144   145    1
   137   121   120    1
   138   146   147    1
   139   139   129   am
   140   139   145    1
   141   147   148    1
   142   147   150    1
   143   148   149    2
   144   129   128    1
   145   123   120    1
   146   156   157    2
   147   156   166   am
   148   127   128    1
   149   120   119    1
   150   128   131    1
   151   150   151    1
   152   151   152    1
   153   166   167    1
   154   119   116   am
   155   169   168    2
   156   168   167    1
   157   167   170    1
   158   131   132    1
   159   153   152    1
   160   117   116    2
   161   116   115    1
   162   132   134   ar
   163   132   133   ar
   164   134   136   ar
   165   170   171    1
   166   133   135   ar
   167   118   115    1
   168   136   137   ar
   169   115   114    1
   170   135   137   ar
   171   137   138    1
   172   171   172    1
   173   172   173    1
   174   173   174    2
   175   174   176    1
   176   174   175    1
