@<TRIPOS>MOLECULE
tmp/5i13A01.pdb
 98 92 0 0 0
SMALL
GASTEIGER

@<TRIPOS>ATOM
      1  N         11.2400  -31.7060  -11.7740 N.3    29  TYR29      -0.1241
      2  CA        11.5270  -31.8040  -13.1950 C.3    29  TYR29       0.1605
      3  C         12.9630  -31.3890  -13.4870 C.2    29  TYR29       0.2264
      4  O         13.3680  -31.3220  -14.6460 O.2    29  TYR29      -0.2867
      5  CB        10.5650  -30.9450  -14.0020 C.3    29  TYR29       0.0534
      6  CG         9.1960  -31.5510  -14.1620 C.ar   29  TYR29      -0.0201
      7  CD1        8.9810  -32.9040  -13.9280 C.ar   29  TYR29      -0.0009
      8  CD2        8.1190  -30.7710  -14.5580 C.ar   29  TYR29      -0.0009
      9  CE1        7.7300  -33.4590  -14.0810 C.ar   29  TYR29       0.0417
     10  CE2        6.8660  -31.3170  -14.7130 C.ar   29  TYR29       0.0417
     11  CZ         6.6750  -32.6600  -14.4740 C.ar   29  TYR29       0.1957
     12  OH         5.4240  -33.2060  -14.6280 O.3    29  TYR29      -0.2866
     13  N         -1.8900  -22.9090  -12.5290 N.3    46  HIS46      -0.1241
     14  CA        -2.5610  -24.1960  -12.6330 C.3    46  HIS46       0.1621
     15  C         -2.8550  -24.7820  -11.2460 C.2    46  HIS46       0.2264
     16  O         -3.9600  -25.2820  -10.9870 O.2    46  HIS46      -0.2867
     17  CB        -1.6970  -25.1480  -13.4550 C.3    46  HIS46       0.0745
     18  CG        -2.2260  -26.5410  -13.5490 C.ar   46  HIS46       0.0817
     19  ND1       -1.8260  -27.5460  -12.6980 N.ar   46  HIS46      -0.2268
     20  CD2       -3.1050  -27.1060  -14.4100 C.ar   46  HIS46       0.1154
     21  CE1       -2.4460  -28.6700  -13.0210 C.ar   46  HIS46       0.1986
     22  NE2       -3.2250  -28.4310  -14.0610 N.ar   46  HIS46      -0.2212
     23  N         -2.9730  -33.2540   -7.7850 N.3    65  GLU65      -0.1245
     24  CA        -1.9390  -32.2980   -8.1630 C.3    65  GLU65       0.1567
     25  C         -1.3100  -31.6170   -6.9410 C.2    65  GLU65       0.2260
     26  O         -1.9990  -31.2900   -5.9680 O.2    65  GLU65      -0.2867
     27  CB        -2.5270  -31.2420   -9.1080 C.3    65  GLU65       0.0388
     28  CG        -1.5240  -30.2740   -9.7340 C.3    65  GLU65       0.1160
     29  CD        -0.4910  -30.9760  -10.6010 C.2    65  GLU65       0.3649
     30  OE1       -0.8200  -31.4090  -11.7320 O.co2  65  GLU65      -0.2457
     31  OE2        0.6540  -31.0960  -10.1330 O.co2  65  GLU65      -0.2457
     32  N         -1.2660  -39.2810  -14.2440 N.3    91  LEU91      -0.1245
     33  CA        -1.7270  -38.6280  -13.0270 C.3    91  LEU91       0.1561
     34  C         -2.6750  -37.4890  -13.3610 C.2    91  LEU91       0.2260
     35  O         -2.3040  -36.5360  -14.0510 O.2    91  LEU91      -0.2867
     36  CB        -0.5730  -38.0550  -12.2150 C.3    91  LEU91       0.0270
     37  CG         0.1810  -38.9340  -11.2240 C.3    91  LEU91       0.0019
     38  CD1        1.2570  -38.0960  -10.5580 C.3    91  LEU91       0.0001
     39  CD2       -0.7600  -39.5360  -10.1830 C.3    91  LEU91       0.0001
     40  N         -5.5780  -34.4780  -11.8980 N.3    93  ASP93      -0.1239
     41  CA        -5.4570  -33.3860  -10.9560 C.3    93  ASP93       0.1674
     42  C         -6.3800  -33.5320   -9.7540 C.2    93  ASP93       0.2266
     43  O         -6.0310  -33.1190   -8.6500 O.2    93  ASP93      -0.2867
     44  CB        -5.7250  -32.0700  -11.6540 C.3    93  ASP93       0.1410
     45  CG        -4.6550  -31.7210  -12.6520 C.2    93  ASP93       0.3668
     46  OD1       -3.4670  -31.9180  -12.3220 O.co2  93  ASP93      -0.2456
     47  OD2       -5.0050  -31.2670  -13.7620 O.co2  93  ASP93      -0.2456
     48  N         -9.0270  -33.8870  -14.9660 N.3   104  GLU104     -0.1231
     49  CA        -7.8430  -33.1980  -15.4330 C.3   104  GLU104      0.1699
     50  C         -8.1750  -31.7260  -15.6740 C.2   104  GLU104      0.2592
     51  O         -9.1270  -31.3880  -16.3930 O.2   104  GLU104     -0.2718
     52  CB        -7.3180  -33.8380  -16.7200 C.3   104  GLU104      0.0402
     53  CG        -6.1690  -33.0740  -17.3680 C.3   104  GLU104      0.1161
     54  CD        -4.9920  -32.9210  -16.4310 C.2   104  GLU104      0.3649
     55  OE1       -4.6420  -33.9260  -15.7740 O.co2 104  GLU104     -0.2457
     56  OE2       -4.4380  -31.7960  -16.3430 O.co2 104  GLU104     -0.2457
     57  N         -7.3910  -30.8530  -15.0590 N.am  105  ILE105     -0.1966
     58  CA        -7.6000  -29.4240  -15.1900 C.3   105  ILE105      0.1727
     59  C         -6.5640  -28.8130  -16.1210 C.2   105  ILE105      0.2616
     60  O         -5.3610  -29.0360  -15.9670 O.2   105  ILE105     -0.2715
     61  CB        -7.4990  -28.7180  -13.8420 C.3   105  ILE105      0.0290
     62  CG1       -8.5820  -29.2270  -12.8880 C.3   105  ILE105      0.0022
     63  CG2       -7.6350  -27.2160  -14.0240 C.3   105  ILE105      0.0023
     64  CD1       -9.9850  -28.8130  -13.2790 C.3   105  ILE105      0.0001
     65  N         -7.0370  -28.0380  -17.0860 N.am  106  GLY106     -0.1955
     66  CA        -6.1470  -27.3490  -17.9920 C.3   106  GLY106      0.1869
     67  C         -6.3160  -25.8480  -17.8840 C.2   106  GLY106      0.2309
     68  O         -7.4210  -25.3530  -17.6880 O.2   106  GLY106     -0.2863
     69  N         -7.0760  -26.8410  -27.4480 N.3   115  TYR115     -0.1241
     70  CA        -6.3990  -27.3170  -26.2500 C.3   115  TYR115      0.1605
     71  C         -7.1250  -28.5380  -25.6630 C.2   115  TYR115      0.2264
     72  O         -6.5000  -29.5420  -25.3140 O.2   115  TYR115     -0.2867
     73  CB        -6.2790  -26.2000  -25.2170 C.3   115  TYR115      0.0534
     74  CG        -5.3760  -26.5380  -24.0590 C.ar  115  TYR115     -0.0201
     75  CD1       -4.0040  -26.3360  -24.1430 C.ar  115  TYR115     -0.0009
     76  CD2       -5.8940  -27.0620  -22.8810 C.ar  115  TYR115     -0.0009
     77  CE1       -3.1730  -26.6440  -23.0910 C.ar  115  TYR115      0.0417
     78  CE2       -5.0710  -27.3730  -21.8200 C.ar  115  TYR115      0.0417
     79  CZ        -3.7130  -27.1610  -21.9300 C.ar  115  TYR115      0.1957
     80  OH        -2.8890  -27.4700  -20.8780 O.3   115  TYR115     -0.2866
     81  N         -5.6290  -32.3250  -25.0870 N.3   119  LYS119     -0.1245
     82  CA        -5.6910  -33.0160  -23.7960 C.3   119  LYS119      0.1561
     83  C         -6.4220  -34.3510  -23.9000 C.2   119  LYS119      0.2260
     84  O         -5.9610  -35.3690  -23.3870 O.2   119  LYS119     -0.2867
     85  CB        -6.3910  -32.1500  -22.7560 C.3   119  LYS119      0.0271
     86  CG        -5.4930  -31.1340  -22.0870 C.3   119  LYS119      0.0035
     87  CD        -4.6350  -31.7860  -21.0230 C.3   119  LYS119      0.0206
     88  CE        -4.1720  -30.7520  -20.0190 C.3   119  LYS119      0.1093
     89  NZ        -3.3050  -31.3920  -19.0030 N.3   119  LYS119     -0.1314
     90  N         -4.4300  -36.9010  -25.7300 N.3   122  LYS122     -0.1245
     91  CA        -3.3340  -37.4380  -24.9510 C.3   122  LYS122      0.1561
     92  C         -3.8270  -38.4280  -23.9030 C.2   122  LYS122      0.2260
     93  O         -3.2500  -39.5010  -23.7270 O.2   122  LYS122     -0.2867
     94  CB        -2.5470  -36.3310  -24.2680 C.3   122  LYS122      0.0271
     95  CG        -1.6290  -36.8560  -23.1840 C.3   122  LYS122      0.0035
     96  CD        -1.1730  -35.7500  -22.2650 C.3   122  LYS122      0.0206
     97  CE         0.3060  -35.4720  -22.4410 C.3   122  LYS122      0.1093
     98  NZ         0.7420  -34.3400  -21.5770 N.3   122  LYS122     -0.1314
@<TRIPOS>BOND
     1    69    70    1
     2    70    71    1
     3    70    73    1
     4    90    91    1
     5    71    72    2
     6    73    74    1
     7    81    82    1
     8    91    94    1
     9    91    92    1
    10    94    95    1
    11    75    74   ar
    12    75    77   ar
    13    74    76   ar
    14    92    93    2
    15    83    82    1
    16    83    84    2
    17    82    85    1
    18    95    96    1
    19    77    79   ar
    20    76    78   ar
    21    85    86    1
    22    97    96    1
    23    97    98    1
    24    86    87    1
    25    79    78   ar
    26    79    80    1
    27    87    88    1
    28    88    89    1
    29    66    67    1
    30    66    65    1
    31    67    68    2
    32    53    52    1
    33    53    54    1
    34    65    59   am
    35    52    49    1
    36    54    56   ar
    37    54    55   ar
    38    51    50    2
    39    59    60    2
    40    59    58    1
    41    50    49    1
    42    50    57   am
    43    49    48    1
    44    58    57    1
    45    58    61    1
    46    10     8   ar
    47    10    11   ar
    48     4     3    2
    49    12    11    1
    50     8     6   ar
    51    11     9   ar
    52    20    22   ar
    53    20    18   ar
    54    32    33    1
    55     6     5    1
    56     6     7   ar
    57     9     7   ar
    58    22    21   ar
    59    35    34    2
    60    63    61    1
    61     5     2    1
    62    61    62    1
    63    47    45   ar
    64    18    17    1
    65    18    19   ar
    66     3     2    1
    67    17    14    1
    68    34    33    1
    69    64    62    1
    70     2     1    1
    71    33    36    1
    72    21    19   ar
    73    45    46   ar
    74    45    44    1
    75    14    13    1
    76    14    15    1
    77    36    37    1
    78    40    41    1
    79    30    29   ar
    80    44    41    1
    81    15    16    2
    82    37    38    1
    83    37    39    1
    84    41    42    1
    85    29    31   ar
    86    29    28    1
    87    42    43    2
    88    28    27    1
    89    27    24    1
    90    24    23    1
    91    24    25    1
    92    25    26    2
