@<TRIPOS>MOLECULE
tmp/5i13A00.pdb
 129 125 0 0 0
SMALL
GASTEIGER

@<TRIPOS>ATOM
      1  N         13.3720  -20.4070  -16.2600 N.3    36  GLU36      -0.1245
      2  CA        12.0230  -20.6470  -16.7400 C.3    36  GLU36       0.1567
      3  C         11.0320  -20.0080  -15.7750 C.2    36  GLU36       0.2260
      4  O         10.4220  -20.6870  -14.9470 O.2    36  GLU36      -0.2867
      5  CB        11.7620  -22.1390  -16.8850 C.3    36  GLU36       0.0388
      6  CG        12.7300  -22.8260  -17.8340 C.3    36  GLU36       0.1160
      7  CD        12.0520  -23.3520  -19.0870 C.2    36  GLU36       0.3649
      8  OE1       11.6850  -22.5390  -19.9650 O.co2  36  GLU36      -0.2457
      9  OE2       11.8850  -24.5870  -19.1890 O.co2  36  GLU36      -0.2457
     10  N          8.4050  -17.8610  -16.7050 N.3    38  ASN38      -0.1225
     11  CA         7.0530  -17.8880  -17.2310 C.3    38  ASN38       0.1785
     12  C          6.3730  -19.2070  -16.9000 C.2    38  ASN38       0.2597
     13  O          5.2180  -19.2370  -16.4860 O.2    38  ASN38      -0.2718
     14  CB         7.0300  -17.6300  -18.7290 C.3    38  ASN38       0.1169
     15  CG         7.2810  -16.1710  -19.0700 C.2    38  ASN38       0.2627
     16  OD1        7.0330  -15.2770  -18.2550 O.2    38  ASN38      -0.2716
     17  ND2        7.7760  -15.9230  -20.2790 N.am   38  ASN38      -0.0877
     18  N          7.1150  -20.2940  -17.0610 N.am   39  LYS39      -0.1980
     19  CA         6.5900  -21.6080  -16.7490 C.3    39  LYS39       0.1596
     20  C          6.2960  -21.7630  -15.2560 C.2    39  LYS39       0.2287
     21  O          5.3160  -22.3900  -14.8710 O.2    39  LYS39      -0.2864
     22  CB         7.5550  -22.6890  -17.1860 C.3    39  LYS39       0.0298
     23  CG         7.0440  -24.0550  -16.8430 C.3    39  LYS39       0.0038
     24  CD         7.4770  -25.0510  -17.8690 C.3    39  LYS39       0.0206
     25  CE         8.9330  -25.3530  -17.6780 C.3    39  LYS39       0.1093
     26  NZ         9.1450  -25.7950  -16.2780 N.3    39  LYS39      -0.1314
     27  N          3.0890  -20.2220  -14.7570 N.3    42  ALA42      -0.1245
     28  CA         2.0520  -21.1160  -15.2580 C.3    42  ALA42       0.1562
     29  C          1.7190  -22.2340  -14.2620 C.2    42  ALA42       0.2260
     30  O          0.5560  -22.5770  -14.0530 O.2    42  ALA42      -0.2867
     31  CB         2.4690  -21.7120  -16.5810 C.3    42  ALA42       0.0290
     32  N         -5.2130  -25.1240  -17.9970 N.3   107  VAL107     -0.1231
     33  CA        -5.2460  -23.6740  -18.0380 C.3   107  VAL107      0.1692
     34  C         -4.4270  -23.2350  -19.2430 C.2   107  VAL107      0.2593
     35  O         -3.2870  -23.6710  -19.4010 O.2   107  VAL107     -0.2718
     36  CB        -4.6580  -23.0540  -16.7660 C.3   107  VAL107      0.0266
     37  CG1       -4.5810  -21.5460  -16.8980 C.3   107  VAL107      0.0020
     38  CG2       -5.5090  -23.4270  -15.5570 C.3   107  VAL107      0.0020
     39  N         -5.0050  -22.3940  -20.1000 N.am  108  THR108     -0.1939
     40  CA        -4.3320  -22.0500  -21.3510 C.3   108  THR108      0.2028
     41  C         -4.6650  -20.6440  -21.8150 C.2   108  THR108      0.2642
     42  O         -5.6220  -20.0370  -21.3370 O.2   108  THR108     -0.2714
     43  CB        -4.7200  -23.0480  -22.4770 C.3   108  THR108      0.1808
     44  OG1       -3.9660  -22.7790  -23.6580 O.3   108  THR108     -0.2208
     45  CG2       -6.2030  -22.9350  -22.8020 C.3   108  THR108      0.0379
     46  N         -3.8670  -20.1180  -22.7400 N.am  109  ARG109     -0.1977
     47  CA        -4.2810  -18.9370  -23.4910 C.3   109  ARG109      0.1597
     48  C         -4.3890  -19.2830  -24.9790 C.2   109  ARG109      0.2287
     49  O         -4.7330  -18.4490  -25.8160 O.2   109  ARG109     -0.2864
     50  CB        -3.3530  -17.7500  -23.2410 C.3   109  ARG109      0.0334
     51  CG        -3.7510  -16.4440  -23.9360 C.3   109  ARG109      0.0492
     52  CD        -5.2110  -16.0480  -23.7010 C.3   109  ARG109      0.2205
     53  NE        -5.5090  -14.7560  -24.3160 N.pl3 109  ARG109     -0.0865
     54  CZ        -6.1200  -14.5990  -25.4880 C.cat 109  ARG109      0.5346
     55  NH1       -6.5240  -15.6610  -26.1720 N.pl3 109  ARG109      0.1354
     56  NH2       -6.3430  -13.3810  -25.9740 N.pl3 109  ARG109      0.1354
     57  N         -7.6190  -17.7340  -19.9590 N.3   135  PHE135     -0.1241
     58  CA        -7.4800  -16.4680  -19.2580 C.3   135  PHE135      0.1605
     59  C         -8.5210  -15.4450  -19.7070 C.2   135  PHE135      0.2264
     60  O         -8.7170  -14.4200  -19.0570 O.2   135  PHE135     -0.2867
     61  CB        -6.0800  -15.9090  -19.4480 C.3   135  PHE135      0.0534
     62  CG        -5.0910  -16.4110  -18.4510 C.ar  135  PHE135     -0.0203
     63  CD1       -4.4000  -17.5900  -18.6720 C.ar  135  PHE135     -0.0042
     64  CD2       -4.8480  -15.6990  -17.2910 C.ar  135  PHE135     -0.0042
     65  CE1       -3.4870  -18.0470  -17.7530 C.ar  135  PHE135     -0.0003
     66  CE2       -3.9400  -16.1500  -16.3710 C.ar  135  PHE135     -0.0003
     67  CZ        -3.2590  -17.3310  -16.6020 C.ar  135  PHE135     -0.0000
     68  N          2.6220   -9.6670  -19.4190 N.3   173  TRP173     -0.1241
     69  CA         1.6360  -10.5140  -20.0850 C.3   173  TRP173      0.1605
     70  C          2.0500  -11.0490  -21.4620 C.2   173  TRP173      0.2264
     71  O          1.8250  -12.2180  -21.7530 O.2   173  TRP173     -0.2867
     72  CB         0.2720   -9.8310  -20.1590 C.3   173  TRP173      0.0550
     73  CG        -0.7390  -10.6080  -20.9320 C.ar  173  TRP173      0.0003
     74  CD1       -1.2620  -10.2860  -22.1450 C.ar  173  TRP173      0.0946
     75  CD2       -1.3450  -11.8530  -20.5500 C.ar  173  TRP173      0.0152
     76  NE1       -2.1620  -11.2410  -22.5460 N.ar  173  TRP173     -0.2442
     77  CE2       -2.2320  -12.2130  -21.5850 C.ar  173  TRP173      0.0810
     78  CE3       -1.2270  -12.6920  -19.4370 C.ar  173  TRP173      0.0012
     79  CZ2       -2.9950  -13.3760  -21.5430 C.ar  173  TRP173      0.0191
     80  CZ3       -1.9870  -13.8450  -19.3930 C.ar  173  TRP173      0.0001
     81  CH2       -2.8600  -14.1770  -20.4420 C.ar  173  TRP173      0.0015
     82  N          4.6030  -13.9090  -21.1760 N.3   176  PHE176     -0.1227
     83  CA         3.9270  -15.0340  -20.5350 C.3   176  PHE176      0.1736
     84  C          3.0220  -15.7600  -21.5220 C.2   176  PHE176      0.2595
     85  O          3.1210  -16.9700  -21.6960 O.2   176  PHE176     -0.2718
     86  CB         3.1240  -14.5650  -19.3250 C.3   176  PHE176      0.0547
     87  CG         2.3740  -15.6620  -18.6340 C.ar  176  PHE176     -0.0202
     88  CD1        3.0500  -16.6780  -17.9890 C.ar  176  PHE176     -0.0042
     89  CD2        0.9890  -15.6650  -18.6130 C.ar  176  PHE176     -0.0042
     90  CE1        2.3630  -17.6820  -17.3410 C.ar  176  PHE176     -0.0003
     91  CE2        0.2980  -16.6640  -17.9640 C.ar  176  PHE176     -0.0003
     92  CZ         0.9870  -17.6740  -17.3290 C.ar  176  PHE176     -0.0000
     93  N          2.1720  -14.9980  -22.1920 N.am  177  ARG177     -0.1980
     94  CA         1.2360  -15.5450  -23.1500 C.3   177  ARG177      0.1597
     95  C          1.9420  -16.2380  -24.3020 C.2   177  ARG177      0.2287
     96  O          1.5570  -17.3300  -24.7160 O.2   177  ARG177     -0.2864
     97  CB         0.3560  -14.4440  -23.7180 C.3   177  ARG177      0.0334
     98  CG        -0.4750  -14.9270  -24.8680 C.3   177  ARG177      0.0492
     99  CD        -1.1890  -13.8070  -25.5670 C.3   177  ARG177      0.2205
    100  NE        -1.9490  -14.3340  -26.6910 N.pl3 177  ARG177     -0.0865
    101  CZ        -3.0260  -13.7540  -27.2030 C.cat 177  ARG177      0.5346
    102  NH1       -3.4720  -12.6190  -26.6860 N.pl3 177  ARG177      0.1354
    103  NH2       -3.6570  -14.3130  -28.2260 N.pl3 177  ARG177      0.1354
    104  N          4.7320  -17.5680  -24.3000 N.3   179  SER179     -0.1202
    105  CA         5.6370  -18.6120  -23.8510 C.3   179  SER179      0.2020
    106  C          4.9740  -19.9830  -23.7040 C.2   179  SER179      0.2619
    107  O          5.6540  -20.9680  -23.4190 O.2   179  SER179     -0.2717
    108  CB         6.3060  -18.2190  -22.5310 C.3   179  SER179      0.2103
    109  OG         5.4500  -18.4540  -21.4300 O.3   179  SER179     -0.2182
    110  N          3.6610  -20.0600  -23.8980 N.am  180  GLU180     -0.1965
    111  CA         2.9720  -21.3380  -23.7530 C.3   180  GLU180      0.1733
    112  C          3.3780  -22.3450  -24.8330 C.2   180  GLU180      0.2616
    113  O          3.6080  -21.9730  -25.9890 O.2   180  GLU180     -0.2715
    114  CB         1.4550  -21.1680  -23.7560 C.3   180  GLU180      0.0429
    115  CG         0.7210  -22.4220  -23.3020 C.3   180  GLU180      0.1163
    116  CD        -0.7870  -22.3180  -23.4410 C.2   180  GLU180      0.3649
    117  OE1       -1.3210  -21.1860  -23.4200 O.co2 180  GLU180     -0.2457
    118  OE2       -1.4360  -23.3750  -23.5760 O.co2 180  GLU180     -0.2457
    119  N          3.4460  -23.6150  -24.4300 N.am  181  ARG181     -0.1977
    120  CA         3.7850  -24.7370  -25.3050 C.3   181  ARG181      0.1597
    121  C          5.2060  -24.6080  -25.8240 C.2   181  ARG181      0.2287
    122  O          6.1520  -24.5960  -25.0340 O.2   181  ARG181     -0.2864
    123  CB         2.7750  -24.8940  -26.4530 C.3   181  ARG181      0.0334
    124  CG         3.0140  -26.1120  -27.3590 C.3   181  ARG181      0.0492
    125  CD         3.2190  -27.4010  -26.5560 C.3   181  ARG181      0.2205
    126  NE         3.1830  -28.6110  -27.3830 N.pl3 181  ARG181     -0.0865
    127  CZ         4.2520  -29.3120  -27.7600 C.cat 181  ARG181      0.5346
    128  NH1        5.4710  -28.9350  -27.3960 N.pl3 181  ARG181      0.1354
    129  NH2        4.0990  -30.4010  -28.5060 N.pl3 181  ARG181      0.1354
@<TRIPOS>BOND
     1   129   127    1
     2   103   101    1
     3   127   128    1
     4   127   126    2
     5   126   125    1
     6   124   125    1
     7   124   123    1
     8   101   100    2
     9   101   102    1
    10   100    99    1
    11   123   120    1
    12    55    54    1
    13   113   112    2
    14    56    54    1
    15   121   120    1
    16   121   122    2
    17    49    48    2
    18    99    98    1
    19    54    53    2
    20   120   119    1
    21    48    47    1
    22    98    97    1
    23   112   119   am
    24   112   111    1
    25    96    95    2
    26    53    52    1
    27    95    94    1
    28   104   105    1
    29    51    52    1
    30    51    50    1
    31   110   111    1
    32   110   106   am
    33   105   106    1
    34   105   108    1
    35   114   111    1
    36   114   115    1
    37    97    94    1
    38   106   107    2
    39    44    43    1
    40   118   116   ar
    41    47    50    1
    42    47    46    1
    43   116   117   ar
    44   116   115    1
    45    94    93    1
    46    45    43    1
    47    46    41   am
    48    76    74   ar
    49    76    77   ar
    50   108   109    1
    51    43    40    1
    52    93    84   am
    53    74    73   ar
    54    41    40    1
    55    41    42    2
    56    71    70    2
    57    85    84    2
    58    77    79   ar
    59    77    75   ar
    60    79    81   ar
    61    84    83    1
    62    70    69    1
    63    40    39    1
    64    82    83    1
    65    73    75   ar
    66    73    72    1
    67    75    78   ar
    68    83    86    1
    69    81    80   ar
    70    17    15   am
    71    72    69    1
    72    39    34   am
    73    69    68    1
    74     8     7   ar
    75    57    58    1
    76    59    58    1
    77    59    60    2
    78    61    58    1
    79    61    62    1
    80    78    80   ar
    81    35    34    2
    82    86    87    1
    83    34    33    1
    84     9     7   ar
    85     7     6    1
    86    15    14    1
    87    15    16    2
    88    14    11    1
    89    63    62   ar
    90    63    65   ar
    91    87    89   ar
    92    87    88   ar
    93    89    91   ar
    94    62    64   ar
    95    33    32    1
    96    33    36    1
    97    88    90   ar
    98    91    92   ar
    99    24    25    1
   100    24    23    1
   101     6     5    1
   102    65    67   ar
   103    25    26    1
   104    90    92   ar
   105    64    66   ar
   106    11    12    1
   107    11    10    1
   108    22    23    1
   109    22    19    1
   110    18    12   am
   111    18    19    1
   112    12    13    2
   113    37    36    1
   114     5     2    1
   115    36    38    1
   116    19    20    1
   117     2     1    1
   118     2     3    1
   119    67    66   ar
   120    31    28    1
   121     3     4    2
   122    28    27    1
   123    28    29    1
   124    20    21    2
   125    29    30    2
