@<TRIPOS>MOLECULE
tmp/5i15B00.pdb
 84 80 0 0 0
SMALL
GASTEIGER

@<TRIPOS>ATOM
      1  N        -69.6930   -0.0540   23.5500 N.3    32  ALA32      -0.1231
      2  CA       -70.5150    0.3290   22.4070 C.3    32  ALA32       0.1694
      3  C        -69.7700    1.3200   21.4960 C.2    32  ALA32       0.2592
      4  O        -68.7750    1.9390   21.9010 O.2    32  ALA32      -0.2718
      5  CB       -71.8340    0.9100   22.8800 C.3    32  ALA32       0.0304
      6  N        -70.2280    1.4490   20.2580 N.am   33  ILE33      -0.1966
      7  CA       -69.6690    2.4500   19.3540 C.3    33  ILE33       0.1727
      8  C        -70.7680    3.3760   18.8580 C.2    33  ILE33       0.2616
      9  O        -71.7990    2.9090   18.3730 O.2    33  ILE33      -0.2715
     10  CB       -68.9430    1.8100   18.1510 C.3    33  ILE33       0.0290
     11  CG1      -67.7870    0.9180   18.6250 C.3    33  ILE33       0.0022
     12  CG2      -68.4480    2.8850   17.1900 C.3    33  ILE33       0.0023
     13  CD1      -66.5710    1.6580   19.1540 C.3    33  ILE33       0.0001
     14  N        -70.5460    4.6830   18.9900 N.am   34  SER34      -0.1950
     15  CA       -71.4710    5.6760   18.4370 C.3    34  SER34       0.1924
     16  C        -70.8550    6.4130   17.2700 C.2    34  SER34       0.2314
     17  O        -69.6260    6.5350   17.1770 O.2    34  SER34      -0.2863
     18  CB       -71.9140    6.6790   19.5010 C.3    34  SER34       0.2116
     19  OG       -73.0250    6.1970   20.2410 O.3    34  SER34      -0.2180
     20  N        -75.6540   13.3010   16.7120 N.3    46  TRP46      -0.1241
     21  CA       -75.5500   11.8500   16.8820 C.3    46  TRP46       0.1605
     22  C        -76.2810   11.1460   15.7820 C.2    46  TRP46       0.2264
     23  O        -77.4730   11.3860   15.5650 O.2    46  TRP46      -0.2867
     24  CB       -76.1130   11.4530   18.2380 C.3    46  TRP46       0.0550
     25  CG       -75.9680    9.9970   18.6140 C.ar   46  TRP46       0.0003
     26  CD1      -74.8250    9.3440   19.0630 C.ar   46  TRP46       0.0946
     27  CD2      -77.0230    8.9690   18.6320 C.ar   46  TRP46       0.0152
     28  NE1      -75.0870    8.0260   19.3300 N.ar   46  TRP46      -0.2442
     29  CE2      -76.3830    7.7350   19.0940 C.ar   46  TRP46       0.0810
     30  CE3      -78.3750    8.9510   18.3190 C.ar   46  TRP46       0.0012
     31  CZ2      -77.0890    6.5480   19.2300 C.ar   46  TRP46       0.0191
     32  CZ3      -79.0750    7.7450   18.4540 C.ar   46  TRP46       0.0001
     33  CH2      -78.4460    6.5750   18.9010 C.ar   46  TRP46       0.0015
     34  N        -75.7320    4.2930   17.0090 N.3    49  GLY49      -0.1210
     35  CA       -74.7710    3.4590   17.7150 C.3    49  GLY49       0.1956
     36  C        -75.0120    1.9770   17.5350 C.2    49  GLY49       0.2612
     37  O        -76.0950    1.5580   17.1150 O.2    49  GLY49      -0.2717
     38  N        -73.9920    1.1860   17.8540 N.am   50  ILE50      -0.1965
     39  CA       -74.0900   -0.2660   17.7980 C.3    50  ILE50       0.1727
     40  C        -73.4680   -0.9390   19.0210 C.2    50  ILE50       0.2616
     41  O        -72.4120   -0.5150   19.5000 O.2    50  ILE50      -0.2715
     42  CB       -73.4370   -0.8220   16.5160 C.3    50  ILE50       0.0290
     43  CG1      -73.7670   -2.3130   16.3600 C.3    50  ILE50       0.0022
     44  CG2      -71.9310   -0.5710   16.5180 C.3    50  ILE50       0.0023
     45  CD1      -73.7450   -2.8110   14.9320 C.3    50  ILE50       0.0001
     46  N        -74.1350   -1.9780   19.5250 N.am   51  ILE51      -0.1977
     47  CA       -73.5220   -2.8960   20.4880 C.3    51  ILE51       0.1596
     48  C        -72.8280   -3.9830   19.6690 C.2    51  ILE51       0.2287
     49  O        -73.4980   -4.8740   19.1390 O.2    51  ILE51      -0.2864
     50  CB       -74.5610   -3.5340   21.4200 C.3    51  ILE51       0.0276
     51  CG1      -75.2700   -2.4580   22.2410 C.3    51  ILE51       0.0022
     52  CG2      -73.8790   -4.5310   22.3440 C.3    51  ILE51       0.0022
     53  CD1      -76.6230   -2.8760   22.7800 C.3    51  ILE51       0.0001
     54  N        -76.5830   -5.3640   17.4350 N.3    56  THR56      -0.1218
     55  CA       -77.8130   -4.5580   17.4190 C.3    56  THR56       0.1862
     56  C        -77.4820   -3.0710   17.2870 C.2    56  THR56       0.2287
     57  O        -76.6490   -2.5230   18.0200 O.2    56  THR56      -0.2866
     58  CB       -78.7350   -4.8040   18.6350 C.3    56  THR56       0.1770
     59  OG1      -78.0390   -4.4950   19.8460 O.3    56  THR56      -0.2211
     60  CG2      -79.2140   -6.2560   18.6730 C.3    56  THR56       0.0375
     61  N        -78.7300    1.0760   16.6840 N.3    58  ASN58      -0.1240
     62  CA       -79.7100    2.0670   17.0840 C.3    58  ASN58       0.1653
     63  C        -79.4420    3.3400   16.2730 C.2    58  ASN58       0.2266
     64  O        -78.3350    3.8910   16.3080 O.2    58  ASN58      -0.2867
     65  CB       -79.5590    2.3180   18.5870 C.3    58  ASN58       0.1155
     66  CG       -80.7500    3.0300   19.1970 C.2    58  ASN58       0.2627
     67  OD1      -81.6650    3.4680   18.5000 O.2    58  ASN58      -0.2716
     68  ND2      -80.7360    3.1550   20.5180 N.am   58  ASN58      -0.0877
     69  N        -68.8250    4.3810   23.4880 N.3    98  TYR98      -0.1241
     70  CA       -69.8700    4.5870   24.4710 C.3    98  TYR98       0.1605
     71  C        -69.6970    3.5730   25.5980 C.2    98  TYR98       0.2264
     72  O        -69.5930    2.3740   25.3520 O.2    98  TYR98      -0.2867
     73  CB       -71.2220    4.4150   23.7780 C.3    98  TYR98       0.0534
     74  CG       -72.4470    4.5810   24.6520 C.ar   98  TYR98      -0.0201
     75  CD1      -72.9390    3.5220   25.4170 C.ar   98  TYR98      -0.0009
     76  CD2      -73.1420    5.7880   24.6800 C.ar   98  TYR98      -0.0009
     77  CE1      -74.0820    3.6660   26.1930 C.ar   98  TYR98       0.0417
     78  CE2      -74.2810    5.9430   25.4560 C.ar   98  TYR98       0.0417
     79  CZ       -74.7480    4.8810   26.2090 C.ar   98  TYR98       0.1957
     80  OH       -75.8790    5.0410   26.9740 O.3    98  TYR98      -0.2866
     81  N        -71.3550    2.0140   29.1230 N.3   100  GLY100     -0.1225
     82  CA       -72.7670    1.7430   29.4250 C.3   100  GLY100      0.1811
     83  C        -73.3050    2.0450   30.8080 C.2   100  GLY100      0.2280
     84  O        -74.5110    1.9170   31.0410 O.2   100  GLY100     -0.2866
@<TRIPOS>BOND
     1    45    43    1
     2    23    22    2
     3    22    21    1
     4    63    64    2
     5    63    62    1
     6    43    42    1
     7    42    44    1
     8    42    39    1
     9    61    62    1
    10    20    21    1
    11    21    24    1
    12    34    35    1
    13    62    65    1
    14    37    36    2
    15    17    16    2
    16    12    10    1
    17    16    15    1
    18    56    55    1
    19    56    57    2
    20    55    54    1
    21    55    58    1
    22    36    35    1
    23    36    38   am
    24    39    38    1
    25    39    40    1
    26    10    11    1
    27    10     7    1
    28    24    25    1
    29    30    32   ar
    30    30    27   ar
    31     9     8    2
    32    15    14    1
    33    15    18    1
    34    32    33   ar
    35    67    66    2
    36    65    66    1
    37    25    27   ar
    38    25    26   ar
    39    11    13    1
    40    27    29   ar
    41    58    60    1
    42    58    59    1
    43     8    14   am
    44     8     7    1
    45    33    31   ar
    46    40    41    2
    47    40    46   am
    48    26    28   ar
    49    29    31   ar
    50    29    28   ar
    51    49    48    2
    52    66    68   am
    53     7     6    1
    54    18    19    1
    55    46    47    1
    56    48    47    1
    57     6     3   am
    58    47    50    1
    59    50    51    1
    60    50    52    1
    61     3     4    2
    62     3     2    1
    63    51    53    1
    64     2     5    1
    65     2     1    1
    66    69    70    1
    67    73    70    1
    68    73    74    1
    69    70    71    1
    70    74    76   ar
    71    74    75   ar
    72    76    78   ar
    73    72    71    2
    74    75    77   ar
    75    78    79   ar
    76    77    79   ar
    77    79    80    1
    78    81    82    1
    79    82    83    1
    80    83    84    2
