@<TRIPOS>MOLECULE
tmp/5i1qA00.pdb
 164 165 0 0 0
SMALL
GASTEIGER

@<TRIPOS>ATOM
      1  N         -6.4220   15.2060   -1.5670 N.3    26  TRP26      -0.1228
      2  CA        -5.7540   14.7020   -0.2810 C.3    26  TRP26       0.1722
      3  C         -6.4590   15.1370    1.0180 C.2    26  TRP26       0.2437
      4  O         -6.4040   14.3190    1.9450 O.2    26  TRP26      -0.2733
      5  CB        -4.2640   15.0830   -0.2900 C.3    26  TRP26       0.0563
      6  CG        -4.0570   16.5660   -0.2620 C.ar   26  TRP26       0.0003
      7  CD1       -3.8870   17.3740   -1.3670 C.ar   26  TRP26       0.0946
      8  CD2       -4.1350   17.4490    0.8600 C.ar   26  TRP26       0.0152
      9  NE1       -3.8390   18.7060   -1.0070 N.ar   26  TRP26      -0.2442
     10  CE2       -3.9920   18.7800    0.3830 C.ar   26  TRP26       0.0810
     11  CE3       -4.3030   17.2580    2.2710 C.ar   26  TRP26       0.0012
     12  CZ2       -4.0250   19.8870    1.2350 C.ar   26  TRP26       0.0191
     13  CZ3       -4.3230   18.3830    3.1230 C.ar   26  TRP26       0.0001
     14  CH2       -4.1770   19.6790    2.5870 C.ar   26  TRP26       0.0015
     15  N         -7.1130   16.3270    1.1030 N.am   27  PRO27      -0.2718
     16  CA        -7.6590   16.6310    2.4610 C.3    27  PRO27       0.1535
     17  C         -8.7080   15.6190    2.8660 C.2    27  PRO27       0.2598
     18  O         -8.9500   15.4810    4.1120 O.2    27  PRO27      -0.2715
     19  CB        -8.3870   18.0000    2.2520 C.3    27  PRO27       0.0310
     20  CG        -7.5720   18.6420    1.0930 C.3    27  PRO27       0.0237
     21  CD        -7.2420   17.4910    0.1730 C.3    27  PRO27       0.0939
     22  N         -9.3170   14.9050    1.9070 N.am   28  PHE28      -0.1974
     23  CA       -10.4760   14.0080    2.2050 C.3    28  PHE28       0.1639
     24  C        -10.0370   12.5360    2.2320 C.2    28  PHE28       0.2290
     25  O        -10.9160   11.6930    2.4210 O.2    28  PHE28      -0.2864
     26  CB       -11.5460   14.2450    1.0820 C.3    28  PHE28       0.0560
     27  CG       -11.9650   15.6730    1.0290 C.ar   28  PHE28      -0.0200
     28  CD1      -12.8120   16.1720    2.0200 C.ar   28  PHE28      -0.0042
     29  CD2      -11.4530   16.5800    0.0560 C.ar   28  PHE28      -0.0042
     30  CE1      -13.1700   17.5010    2.0800 C.ar   28  PHE28      -0.0003
     31  CE2      -11.7900   17.9500    0.0700 C.ar   28  PHE28      -0.0003
     32  CZ       -12.6680   18.4150    1.0720 C.ar   28  PHE28      -0.0000
     33  N         -8.1590   10.7460    4.3130 N.3    30  HIS30      -0.1227
     34  CA        -7.9630   10.0730    5.6070 C.3    30  HIS30       0.1738
     35  C         -8.6850   10.8870    6.6570 C.2    30  HIS30       0.2443
     36  O         -8.9350   12.0900    6.4560 O.2    30  HIS30      -0.2733
     37  CB        -6.4440   10.0080    5.9570 C.3    30  HIS30       0.0758
     38  CG        -5.6590    9.2200    4.9740 C.ar   30  HIS30       0.0818
     39  ND1       -5.7150    7.8360    4.8980 N.ar   30  HIS30      -0.2268
     40  CD2       -4.8550    9.6520    3.9390 C.ar   30  HIS30       0.1154
     41  CE1       -4.9670    7.4380    3.8530 C.ar   30  HIS30       0.1986
     42  NE2       -4.4110    8.5190    3.2880 N.ar   30  HIS30      -0.2212
     43  N         -8.9900   10.2810    7.8540 N.am   31  PRO31      -0.2643
     44  CA        -9.5450   11.0960    8.9120 C.3    31  PRO31       0.1762
     45  C         -8.5870   12.2600    9.3050 C.2    31  PRO31       0.2642
     46  O         -7.3720   12.1430    9.2930 O.2    31  PRO31      -0.2712
     47  CB        -9.6730   10.1130   10.1020 C.2    31  PRO31      -0.0003
     48  CG        -9.1900    8.8280    9.6400 C.2    31  PRO31      -0.0071
     49  CD        -8.6820    8.8880    8.2230 C.3    31  PRO31       0.1204
     50  N         -9.2460   13.3490    9.7300 N.am   32  VAL32      -0.1961
     51  CA        -8.4890   14.5330   10.1750 C.3    32  VAL32       0.1727
     52  C         -7.7700   14.2300   11.4840 C.2    32  VAL32       0.2616
     53  O         -8.3870   13.6330   12.3840 O.2    32  VAL32      -0.2715
     54  CB        -9.4950   15.6820   10.4490 C.3    32  VAL32       0.0290
     55  CG1       -8.6920   16.8590   10.9790 C.3    32  VAL32       0.0023
     56  CG2      -10.1260   16.0480    9.0910 C.3    32  VAL32       0.0023
     57  N         -6.5360   14.6450   11.6050 N.am   33  ASN33      -0.1972
     58  CA        -5.7580   14.4910   12.8920 C.3    33  ASN33       0.1688
     59  C         -5.8260   15.8400   13.5250 C.2    33  ASN33       0.2292
     60  O         -5.4130   16.8360   12.9450 O.2    33  ASN33      -0.2864
     61  CB        -4.3110   14.1560   12.5000 C.3    33  ASN33       0.1181
     62  CG        -3.4150   13.8040   13.6670 C.2    33  ASN33       0.2629
     63  OD1       -3.5840   14.3180   14.7740 O.2    33  ASN33      -0.2716
     64  ND2       -2.4520   12.8970   13.4000 N.am   33  ASN33      -0.0877
     65  N         -3.0980   18.3260   13.4120 N.3    36  PHE36      -0.1227
     66  CA        -2.9150   19.1070   12.1110 C.3    36  PHE36       0.1736
     67  C         -4.0260   20.1280   11.9600 C.2    36  PHE36       0.2595
     68  O         -3.8180   21.1590   11.2520 O.2    36  PHE36      -0.2718
     69  CB        -2.8480   18.1250   10.9340 C.3    36  PHE36       0.0547
     70  CG        -1.7860   17.0670   11.0420 C.ar   36  PHE36      -0.0202
     71  CD1       -0.6740   17.1700   11.9450 C.ar   36  PHE36      -0.0042
     72  CD2       -1.9800   15.9330   10.3290 C.ar   36  PHE36      -0.0042
     73  CE1        0.2780   16.1160   11.9970 C.ar   36  PHE36      -0.0003
     74  CE2       -1.0210   14.8740   10.3950 C.ar   36  PHE36      -0.0003
     75  CZ         0.0860   15.0030   11.2170 C.ar   36  PHE36      -0.0000
     76  N         -5.2290   19.8580   12.5000 N.am   37  VAL37      -0.1980
     77  CA        -6.4080   20.7670   12.3890 C.3    37  VAL37       0.1595
     78  C         -7.0920   20.8640   13.7660 C.2    37  VAL37       0.2287
     79  O         -7.9860   20.1070   14.0610 O.2    37  VAL37      -0.2864
     80  CB        -7.3910   20.3050   11.3040 C.3    37  VAL37       0.0276
     81  CG1       -8.4300   21.4290   11.0900 C.3    37  VAL37       0.0022
     82  CG2       -6.7050   19.9810    9.9180 C.3    37  VAL37       0.0022
     83  N        -10.9670   21.0490   14.3390 N.3    40  TYR40      -0.1241
     84  CA       -11.8870   20.2850   13.5350 C.3    40  TYR40       0.1605
     85  C        -13.0910   19.6580   14.1810 C.2    40  TYR40       0.2264
     86  O        -14.2450   19.8270   13.7680 O.2    40  TYR40      -0.2867
     87  CB       -11.0980   19.2760   12.6180 C.3    40  TYR40       0.0534
     88  CG       -11.9650   18.6770   11.5190 C.ar   40  TYR40      -0.0201
     89  CD1      -12.1690   19.4980   10.3930 C.ar   40  TYR40      -0.0009
     90  CD2      -12.5510   17.4580   11.5970 C.ar   40  TYR40      -0.0009
     91  CE1      -12.9270   18.9840    9.3440 C.ar   40  TYR40       0.0417
     92  CE2      -13.3260   16.9010   10.5680 C.ar   40  TYR40       0.0417
     93  CZ       -13.5030   17.7210    9.4590 C.ar   40  TYR40       0.1957
     94  OH       -14.3040   17.2550    8.4210 O.3    40  TYR40      -0.2866
     95  N        -16.2970   12.3010    8.4820 N.3    48  MET48      -0.1230
     96  CA       -16.2270   11.2600    7.4200 C.3    48  MET48       0.1702
     97  C        -15.0710   11.5210    6.5100 C.2    48  MET48       0.2592
     98  O        -14.6070   12.6570    6.3220 O.2    48  MET48      -0.2718
     99  CB       -17.5600   11.1560    6.6580 C.3    48  MET48       0.0401
    100  CG       -17.7300    9.9870    5.6560 C.3    48  MET48       0.0596
    101  SD       -17.3280    8.3520    6.3440 S.3    48  MET48      -0.1393
    102  CE       -18.4330    8.2790    7.7860 C.3    48  MET48       0.0692
    103  N        -14.5400   10.4250    5.9450 N.am   49  ASP49      -0.1974
    104  CA       -13.4370   10.5860    5.0140 C.3    49  ASP49       0.1709
    105  C        -13.3960    9.3540    4.0510 C.2    49  ASP49       0.2293
    106  O        -14.1090    8.3730    4.3060 O.2    49  ASP49      -0.2864
    107  CB       -12.0890   10.7170    5.7330 C.3    49  ASP49       0.1436
    108  CG       -11.8050    9.4620    6.4770 C.2    49  ASP49       0.3671
    109  OD1      -12.3090    9.2930    7.6220 O.co2  49  ASP49      -0.2456
    110  OD2      -11.1480    8.5800    5.9010 O.co2  49  ASP49      -0.2456
    111  N        -19.3510   13.9650    3.5530 N.3    75  ILE75      -0.1245
    112  CA       -18.0750   14.6460    3.3110 C.3    75  ILE75       0.1561
    113  C        -18.3740   16.0880    2.7760 C.2    75  ILE75       0.2260
    114  O        -17.8070   17.0920    3.2440 O.2    75  ILE75      -0.2867
    115  CB       -17.2060   13.8310    2.3430 C.3    75  ILE75       0.0252
    116  CG1      -16.7970   12.5300    3.0690 C.3    75  ILE75       0.0019
    117  CG2      -15.9870   14.6420    1.9710 C.3    75  ILE75       0.0019
    118  CD1      -15.9990   11.5750    2.1770 C.3    75  ILE75       0.0001
    119  N        -19.9910   18.2920    5.4980 N.3    78  ASN78      -0.1225
    120  CA       -19.0300   18.6850    6.5040 C.3    78  ASN78       0.1785
    121  C        -18.0760   19.7700    6.0350 C.2    78  ASN78       0.2597
    122  O        -17.6880   20.7320    6.7920 O.2    78  ASN78      -0.2718
    123  CB       -18.1570   17.5160    7.0100 C.3    78  ASN78       0.1169
    124  CG       -18.8850   16.5850    7.9640 C.2    78  ASN78       0.2627
    125  OD1      -19.8770   17.0130    8.5730 O.2    78  ASN78      -0.2716
    126  ND2      -18.4500   15.3410    8.0110 N.am   78  ASN78      -0.0877
    127  N        -17.6970   19.7100    4.7330 N.am   79  SER79      -0.1952
    128  CA       -16.8440   20.8010    4.1740 C.3    79  SER79       0.1924
    129  C        -17.6100   22.1200    4.1020 C.2    79  SER79       0.2314
    130  O        -17.0440   23.1980    4.4400 O.2    79  SER79      -0.2863
    131  CB       -16.3140   20.4690    2.7600 C.3    79  SER79       0.2116
    132  OG       -15.3460   21.4260    2.4280 O.3    79  SER79      -0.2180
    133  N        -17.5120   23.3460    7.7320 N.3    82  TYR82      -0.1227
    134  CA       -16.2330   23.7120    8.3450 C.3    82  TYR82       0.1736
    135  C        -15.5190   24.8520    7.5860 C.2    82  TYR82       0.2595
    136  O        -14.8840   25.7300    8.1810 O.2    82  TYR82      -0.2718
    137  CB       -15.3180   22.4370    8.4410 C.3    82  TYR82       0.0548
    138  CG       -14.0990   22.7520    9.3040 C.ar   82  TYR82      -0.0200
    139  CD1      -14.2960   22.8940   10.6800 C.ar   82  TYR82      -0.0009
    140  CD2      -12.8230   22.9560    8.7770 C.ar   82  TYR82      -0.0009
    141  CE1      -13.2210   23.2110   11.4840 C.ar   82  TYR82       0.0417
    142  CE2      -11.7290   23.3260    9.6330 C.ar   82  TYR82       0.0417
    143  CZ       -11.9910   23.4160   10.9830 C.ar   82  TYR82       0.1957
    144  OH       -10.9460   23.7220   11.8350 O.3    82  TYR82      -0.2866
    145  N        -15.5520   24.7340    6.2560 N.am   83  ASN83      -0.1974
    146  CA       -14.8070   25.6730    5.3860 C.3    83  ASN83       0.1688
    147  C        -15.6730   26.7480    4.7160 C.2    83  ASN83       0.2292
    148  O        -15.0980   27.7670    4.2920 O.2    83  ASN83      -0.2864
    149  CB       -14.1320   24.8300    4.2850 C.3    83  ASN83       0.1181
    150  CG       -13.2420   23.7390    4.9050 C.2    83  ASN83       0.2629
    151  OD1      -12.3380   24.0830    5.6890 O.2    83  ASN83      -0.2716
    152  ND2      -13.5030   22.4920    4.5640 N.am   83  ASN83      -0.0877
    153  N        -11.7230   23.9870   -0.5550 N.3    89  TYR89      -0.1241
    154  CA       -11.9230   22.6410    0.0040 C.3    89  TYR89       0.1605
    155  C        -13.3080   22.1700   -0.4010 C.2    89  TYR89       0.2264
    156  O        -13.4410   20.9560   -0.7420 O.2    89  TYR89      -0.2867
    157  CB       -11.8850   22.6230    1.5570 C.3    89  TYR89       0.0534
    158  CG       -10.5250   22.7490    2.1300 C.ar   89  TYR89      -0.0201
    159  CD1       -9.5640   21.7210    2.0480 C.ar   89  TYR89      -0.0009
    160  CD2      -10.1590   23.9000    2.9060 C.ar   89  TYR89      -0.0009
    161  CE1       -8.3100   21.8520    2.6330 C.ar   89  TYR89       0.0417
    162  CE2       -8.9200   23.9990    3.4820 C.ar   89  TYR89       0.0417
    163  CZ        -8.0050   22.9920    3.3530 C.ar   89  TYR89       0.1957
    164  OH        -6.7300   23.0810    3.9110 O.3    89  TYR89      -0.2866
@<TRIPOS>BOND
     1     1     2    1
     2     7     9   ar
     3     7     6   ar
     4     9    10   ar
     5   156   155    2
     6   153   154    1
     7   155   154    1
     8     5     2    1
     9     5     6    1
    10     2     3    1
    11     6     8   ar
    12   154   157    1
    13    29    31   ar
    14    29    27   ar
    15    31    32   ar
    16    21    20    1
    17    21    15    1
    18    10     8   ar
    19    10    12   ar
    20     8    11   ar
    21     3    15   am
    22     3     4    2
    23    27    26    1
    24    27    28   ar
    25    32    30   ar
    26    26    23    1
    27    20    19    1
    28    15    16    1
    29    12    14   ar
    30   157   158    1
    31    22    23    1
    32    22    17   am
    33   117   115    1
    34    28    30   ar
    35   159   158   ar
    36   159   161   ar
    37   158   160   ar
    38   118   116    1
    39    23    24    1
    40    24    25    2
    41    19    16    1
    42    11    13   ar
    43   115   116    1
    44   115   112    1
    45   132   131    1
    46    16    17    1
    47    14    13   ar
    48   161   163   ar
    49   131   128    1
    50   113   114    2
    51   113   112    1
    52    17    18    2
    53   160   162   ar
    54    42    41   ar
    55    42    40   ar
    56   112   111    1
    57   163   162   ar
    58   163   164    1
    59    41    39   ar
    60    40    38   ar
    61   105   106    2
    62   105   104    1
    63   129   128    1
    64   129   130    2
    65   128   127    1
    66   149   150    1
    67   149   146    1
    68   148   147    2
    69    33    34    1
    70   152   150   am
    71   147   146    1
    72   127   121   am
    73    39    38   ar
    74   150   151    2
    75    38    37    1
    76   104   107    1
    77   104   103    1
    78   146   145    1
    79   119   120    1
    80    34    37    1
    81    34    35    1
    82   100   101    1
    83   100    99    1
    84   107   108    1
    85   110   108   ar
    86   103    97   am
    87   121   120    1
    88   121   122    2
    89   145   135   am
    90    98    97    2
    91   101   102    1
    92    36    35    2
    93   108   109   ar
    94   120   123    1
    95    97    96    1
    96    35    43   am
    97    99    96    1
    98   123   124    1
    99    96    95    1
   100   135   136    2
   101   135   134    1
   102   133   134    1
   103    43    49    1
   104    43    44    1
   105   124   126   am
   106   124   125    2
   107    49    48    1
   108   134   137    1
   109    94    93    1
   110   137   138    1
   111   140   138   ar
   112   140   142   ar
   113    44    45    1
   114    44    47    1
   115    56    54    1
   116    46    45    2
   117   138   139   ar
   118    45    50   am
   119    91    93   ar
   120    91    89   ar
   121    93    92   ar
   122   142   143   ar
   123    48    47    2
   124    50    51    1
   125    82    80    1
   126    51    54    1
   127    51    52    1
   128    72    74   ar
   129    72    70   ar
   130    89    88   ar
   131    74    75   ar
   132    54    55    1
   133    92    90   ar
   134   139   141   ar
   135    69    70    1
   136    69    66    1
   137   143   141   ar
   138   143   144    1
   139    70    71   ar
   140    81    80    1
   141    75    73   ar
   142    68    67    2
   143    80    77    1
   144    52    57   am
   145    52    53    2
   146    88    90   ar
   147    88    87    1
   148    57    58    1
   149    71    73   ar
   150    67    66    1
   151    67    76   am
   152    66    65    1
   153    77    76    1
   154    77    78    1
   155    61    58    1
   156    61    62    1
   157    87    84    1
   158    58    59    1
   159    60    59    2
   160    64    62   am
   161    84    85    1
   162    84    83    1
   163    62    63    2
   164    78    79    2
   165    86    85    2
