@<TRIPOS>MOLECULE
tmp/5i1tA01.pdb
 170 167 0 0 0
SMALL
GASTEIGER

@<TRIPOS>ATOM
      1  N        -59.7620   -4.6160   -6.6040 N.3    30  ALA30      -0.1231
      2  CA       -59.7870   -4.9190   -8.0390 C.3    30  ALA30       0.1694
      3  C        -58.9930   -3.9550   -8.8860 C.2    30  ALA30       0.2593
      4  O        -58.5230   -4.3230   -9.9580 O.2    30  ALA30      -0.2718
      5  CB       -61.2120   -4.9790   -8.5400 C.3    30  ALA30       0.0304
      6  N        -58.8600   -2.7330   -8.4070 N.am   31  GLY31      -0.1942
      7  CA       -58.1120   -1.6910   -9.0870 C.3    31  GLY31       0.2014
      8  C        -56.6870   -1.5020   -8.5810 C.2    31  GLY31       0.2639
      9  O        -55.8180   -1.0260   -9.3460 O.2    31  GLY31      -0.2714
     10  N        -56.4350   -1.8450   -7.3100 N.am   32  GLU32      -0.1963
     11  CA       -55.0850   -1.7130   -6.7420 C.3    32  GLU32       0.1733
     12  C        -54.2090   -2.9180   -7.0410 C.2    32  GLU32       0.2616
     13  O        -53.0210   -2.7680   -7.3200 O.2    32  GLU32      -0.2715
     14  CB       -55.1360   -1.4890   -5.2230 C.3    32  GLU32       0.0429
     15  CG       -55.6900   -0.1320   -4.7920 C.3    32  GLU32       0.1163
     16  CD       -54.7920    1.0600   -5.1510 C.2    32  GLU32       0.3649
     17  OE1      -53.6270    0.8640   -5.5880 O.co2  32  GLU32      -0.2457
     18  OE2      -55.2410    2.2140   -4.9540 O.co2  32  GLU32      -0.2457
     19  N        -54.8020   -4.1060   -6.9810 N.am   33  MET33      -0.1963
     20  CA       -54.0900   -5.3670   -7.2260 C.3    33  MET33       0.1736
     21  C        -54.7480   -6.2980   -8.2190 C.2    33  MET33       0.2617
     22  O        -55.9440   -6.2640   -8.4530 O.2    33  MET33      -0.2715
     23  CB       -53.9180   -6.1480   -5.9250 C.3    33  MET33       0.0427
     24  CG       -52.7640   -5.6880   -5.0890 C.3    33  MET33       0.0599
     25  SD       -52.6670   -6.6870   -3.5950 S.3    33  MET33      -0.1393
     26  CE       -51.2600   -5.9430   -2.7670 C.3    33  MET33       0.0692
     27  N        -53.9290   -7.1610   -8.7770 N.am   34  SER34      -0.1936
     28  CA       -54.3940   -8.1650   -9.7130 C.3    34  SER34       0.2055
     29  C        -55.0150   -9.3390   -8.9620 C.2    34  SER34       0.2643
     30  O        -54.5690   -9.7010   -7.8650 O.2    34  SER34      -0.2714
     31  CB       -53.1960   -8.6690  -10.5310 C.3    34  SER34       0.2130
     32  OG       -53.4820   -9.8860  -11.1880 O.3    34  SER34      -0.2179
     33  N        -56.0240   -9.9520   -9.5680 N.am   35  SER35      -0.1949
     34  CA       -56.6230  -11.1620   -9.0020 C.3    35  SER35       0.1924
     35  C        -55.5740  -12.2940   -8.9390 C.2    35  SER35       0.2314
     36  O        -55.7310  -13.2650   -8.1780 O.2    35  SER35      -0.2863
     37  CB       -57.8190  -11.6200   -9.8390 C.3    35  SER35       0.2116
     38  OG       -57.4190  -12.0560  -11.1290 O.3    35  SER35      -0.2180
     39  N        -52.5110  -11.9870   -7.7910 N.3    37  PHE37      -0.1241
     40  CA       -51.6020  -11.8820   -6.6490 C.3    37  PHE37       0.1605
     41  C        -51.9390  -12.9400   -5.6170 C.2    37  PHE37       0.2264
     42  O        -53.0720  -13.4110   -5.5100 O.2    37  PHE37      -0.2867
     43  CB       -51.6850  -10.4900   -6.0150 C.3    37  PHE37       0.0534
     44  CG       -50.7130   -9.4700   -6.5780 C.ar   37  PHE37      -0.0203
     45  CD1      -50.2500   -9.5270   -7.8930 C.ar   37  PHE37      -0.0042
     46  CD2      -50.3100   -8.3990   -5.7830 C.ar   37  PHE37      -0.0042
     47  CE1      -49.3720   -8.5580   -8.3730 C.ar   37  PHE37      -0.0003
     48  CE2      -49.4330   -7.4360   -6.2610 C.ar   37  PHE37      -0.0003
     49  CZ       -48.9780   -7.4990   -7.5620 C.ar   37  PHE37      -0.0000
     50  N        -57.3440    7.3840   -7.3180 N.3    74  TYR74      -0.1241
     51  CA       -56.0810    6.8970   -6.7500 C.3    74  TYR74       0.1605
     52  C        -55.0630    8.0300   -6.5070 C.2    74  TYR74       0.2264
     53  O        -54.0980    7.8450   -5.7720 O.2    74  TYR74      -0.2867
     54  CB       -55.4640    5.7950   -7.6490 C.3    74  TYR74       0.0534
     55  CG       -54.8190    6.2800   -8.9490 C.ar   74  TYR74      -0.0201
     56  CD1      -55.5740    6.4810  -10.0950 C.ar   74  TYR74      -0.0009
     57  CD2      -53.4380    6.5090   -9.0230 C.ar   74  TYR74      -0.0009
     58  CE1      -54.9850    6.9150  -11.2740 C.ar   74  TYR74       0.0417
     59  CE2      -52.8420    6.9490  -10.1960 C.ar   74  TYR74       0.0417
     60  CZ       -53.6190    7.1470  -11.3210 C.ar   74  TYR74       0.1957
     61  OH       -53.0480    7.5810  -12.4900 O.3    74  TYR74      -0.2866
     62  N        -57.7070    3.6770   -5.4640 N.3    79  GLU79      -0.1245
     63  CA       -58.3710    3.2300   -6.6870 C.3    79  GLU79       0.1567
     64  C        -59.7390    2.5810   -6.3980 C.2    79  GLU79       0.2260
     65  O        -60.0420    2.2290   -5.2610 O.2    79  GLU79      -0.2867
     66  CB       -57.4130    2.2950   -7.4510 C.3    79  GLU79       0.0388
     67  CG       -57.8840    1.8220   -8.8150 C.3    79  GLU79       0.1160
     68  CD       -58.0470    2.9260   -9.8470 C.2    79  GLU79       0.3649
     69  OE1      -57.0290    3.5010  -10.3130 O.co2  79  GLU79      -0.2457
     70  OE2      -59.2070    3.1550  -10.2370 O.co2  79  GLU79      -0.2457
     71  N        -62.9830    0.2500   -8.7110 N.3    81  LYS81      -0.1245
     72  CA       -63.6120   -0.2770   -9.9280 C.3    81  LYS81       0.1561
     73  C        -64.9210   -0.9320   -9.5010 C.2    81  LYS81       0.2260
     74  O        -64.9150   -1.9050   -8.7280 O.2    81  LYS81      -0.2867
     75  CB       -62.7500   -1.3340  -10.6120 C.3    81  LYS81       0.0271
     76  CG       -61.3850   -0.8860  -11.0820 C.3    81  LYS81       0.0035
     77  CD       -61.4270    0.1880  -12.1580 C.3    81  LYS81       0.0206
     78  CE       -60.0060    0.4620  -12.6370 C.3    81  LYS81       0.1093
     79  NZ       -59.9030    1.8000  -13.2690 N.3    81  LYS81      -0.1314
     80  N        -65.6460   -4.7420  -18.6170 N.3    89  LEU89      -0.1231
     81  CA       -64.2520   -4.7310  -19.0160 C.3    89  LEU89       0.1693
     82  C        -63.6560   -6.1550  -19.0810 C.2    89  LEU89       0.2592
     83  O        -62.8970   -6.4620  -19.9970 O.2    89  LEU89      -0.2718
     84  CB       -63.4880   -3.8220  -18.0440 C.3    89  LEU89       0.0284
     85  CG       -62.1340   -3.1910  -18.3760 C.3    89  LEU89       0.0019
     86  CD1      -61.8340   -2.0960  -17.3520 C.3    89  LEU89       0.0001
     87  CD2      -60.9820   -4.1880  -18.4290 C.3    89  LEU89       0.0001
     88  N        -64.0430   -7.0360  -18.1550 N.am   90  ASN90      -0.1974
     89  CA       -63.4680   -8.4050  -18.0810 C.3    90  ASN90       0.1688
     90  C        -64.3740   -9.5850  -18.4080 C.2    90  ASN90       0.2292
     91  O        -63.8690  -10.6570  -18.7330 O.2    90  ASN90      -0.2864
     92  CB       -62.9000   -8.6470  -16.6790 C.3    90  ASN90       0.1181
     93  CG       -61.8600   -7.6220  -16.2850 C.2    90  ASN90       0.2629
     94  OD1      -61.1940   -7.0400  -17.1320 O.2    90  ASN90      -0.2716
     95  ND2      -61.7130   -7.4050  -14.9910 N.am   90  ASN90      -0.0877
     96  N        -64.7950  -13.9940  -15.6840 N.3    94  TRP94      -0.1241
     97  CA       -63.8060  -13.3730  -14.8480 C.3    94  TRP94       0.1605
     98  C        -64.4160  -13.0850  -13.4790 C.2    94  TRP94       0.2264
     99  O        -63.8170  -13.3910  -12.4380 O.2    94  TRP94      -0.2867
    100  CB       -63.2940  -12.0950  -15.4990 C.3    94  TRP94       0.0550
    101  CG       -62.2230  -11.4780  -14.7280 C.ar   94  TRP94       0.0003
    102  CD1      -60.8990  -11.7520  -14.8230 C.ar   94  TRP94       0.0946
    103  CD2      -62.3620  -10.4730  -13.7090 C.ar   94  TRP94       0.0152
    104  NE1      -60.1860  -10.9770  -13.9160 N.ar   94  TRP94      -0.2442
    105  CE2      -61.0630  -10.1820  -13.2270 C.ar   94  TRP94       0.0810
    106  CE3      -63.4510   -9.7900  -13.1680 C.ar   94  TRP94       0.0012
    107  CZ2      -60.8280   -9.2420  -12.2280 C.ar   94  TRP94       0.0191
    108  CZ3      -63.2210   -8.8470  -12.1700 C.ar   94  TRP94       0.0001
    109  CH2      -61.9180   -8.5850  -11.7080 C.ar   94  TRP94       0.0015
    110  N        -48.2950    1.8450   -2.0340 N.3   126  PHE126     -0.1227
    111  CA       -47.9050    2.1590   -3.4120 C.3   126  PHE126      0.1736
    112  C        -47.4150    0.8930   -4.1290 C.2   126  PHE126      0.2596
    113  O        -47.1440   -0.1330   -3.4980 O.2   126  PHE126     -0.2718
    114  CB       -46.7540    3.1660   -3.3410 C.3   126  PHE126      0.0547
    115  CG       -45.5650    2.6400   -2.5820 C.ar  126  PHE126     -0.0202
    116  CD1      -45.5540    2.6610   -1.1910 C.ar  126  PHE126     -0.0042
    117  CD2      -44.5000    2.0750   -3.2440 C.ar  126  PHE126     -0.0042
    118  CE1      -44.4880    2.1540   -0.4700 C.ar  126  PHE126     -0.0003
    119  CE2      -43.4360    1.5440   -2.5330 C.ar  126  PHE126     -0.0003
    120  CZ       -43.4300    1.5900   -1.1390 C.ar  126  PHE126     -0.0000
    121  N        -47.2060    0.9940   -5.4300 N.am  127  SER127     -0.1952
    122  CA       -46.8360   -0.1720   -6.2340 C.3   127  SER127      0.1924
    123  C        -45.5020   -0.8390   -5.9330 C.2   127  SER127      0.2314
    124  O        -45.4860   -1.9830   -5.5130 O.2   127  SER127     -0.2863
    125  CB       -46.8730    0.1710   -7.7300 C.3   127  SER127      0.2116
    126  OG       -46.3090   -0.8850   -8.5120 O.3   127  SER127     -0.2180
    127  N        -42.3120   -3.1210  -12.4830 N.3   160  LYS160     -0.1245
    128  CA       -42.2430   -1.6560  -12.3450 C.3   160  LYS160      0.1561
    129  C        -41.0900   -1.1740  -11.4760 C.2   160  LYS160      0.2260
    130  O        -41.0910   -0.0410  -11.0330 O.2   160  LYS160     -0.2867
    131  CB       -43.5710   -1.1170  -11.8130 C.3   160  LYS160      0.0271
    132  CG       -44.7420   -1.4090  -12.7310 C.3   160  LYS160      0.0035
    133  CD       -46.0800   -1.1400  -12.0490 C.3   160  LYS160      0.0206
    134  CE       -47.2430   -1.4850  -12.9810 C.3   160  LYS160      0.1093
    135  NZ       -48.5980   -1.3700  -12.3690 N.3   160  LYS160     -0.1314
    136  N        -42.2750    2.7760   -8.4260 N.3   247  TYR247     -0.1241
    137  CA       -43.5180    3.2520   -8.9850 C.3   247  TYR247      0.1605
    138  C        -44.3560    3.6410   -7.7940 C.2   247  TYR247      0.2264
    139  O        -44.6210    2.8070   -6.9560 O.2   247  TYR247     -0.2867
    140  CB       -44.1920    2.1400   -9.7890 C.3   247  TYR247      0.0534
    141  CG       -45.3150    2.5860  -10.6830 C.ar  247  TYR247     -0.0201
    142  CD1      -46.5220    3.0090  -10.1630 C.ar  247  TYR247     -0.0009
    143  CD2      -45.1920    2.5360  -12.0640 C.ar  247  TYR247     -0.0009
    144  CE1      -47.5650    3.4130  -10.9820 C.ar  247  TYR247      0.0417
    145  CE2      -46.2330    2.9350  -12.8950 C.ar  247  TYR247      0.0417
    146  CZ       -47.4180    3.3740  -12.3390 C.ar  247  TYR247      0.1957
    147  OH       -48.4600    3.7730  -13.1420 O.3   247  TYR247     -0.2866
    148  N        -46.9110   -2.7870   -2.7250 N.3   255  GLN255     -0.1231
    149  CA       -47.7930   -3.8140   -3.2250 C.3   255  GLN255      0.1698
    150  C        -46.9880   -4.9770   -3.8220 C.2   255  GLN255      0.2592
    151  O        -47.2590   -6.1360   -3.4980 O.2   255  GLN255     -0.2718
    152  CB       -48.7600   -3.2230   -4.2250 C.3   255  GLN255      0.0381
    153  CG       -49.6740   -2.1680   -3.6340 C.3   255  GLN255      0.0905
    154  CD       -50.4660   -1.4450   -4.7030 C.2   255  GLN255      0.2608
    155  OE1      -49.9220   -1.0730   -5.7600 O.2   255  GLN255     -0.2717
    156  NE2      -51.7410   -1.1990   -4.4310 N.am  255  GLN255     -0.0878
    157  N        -45.9890   -4.6820   -4.6590 N.am  256  TRP256     -0.1976
    158  CA       -45.1470   -5.7550   -5.2170 C.3   256  TRP256      0.1640
    159  C        -44.2880   -6.3830   -4.1350 C.2   256  TRP256      0.2290
    160  O        -43.9140   -7.5440   -4.2330 O.2   256  TRP256     -0.2864
    161  CB       -44.3150   -5.2950   -6.4110 C.3   256  TRP256      0.0576
    162  CG       -45.0910   -5.3570   -7.6430 C.ar  256  TRP256      0.0006
    163  CD1      -45.8170   -4.3630   -8.2010 C.ar  256  TRP256      0.0946
    164  CD2      -45.2560   -6.5050   -8.4840 C.ar  256  TRP256      0.0152
    165  NE1      -46.4480   -4.8190   -9.3500 N.ar  256  TRP256     -0.2442
    166  CE2      -46.1190   -6.1320   -9.5420 C.ar  256  TRP256      0.0810
    167  CE3      -44.7700   -7.8200   -8.4360 C.ar  256  TRP256      0.0012
    168  CZ2      -46.5210   -7.0320  -10.5560 C.ar  256  TRP256      0.0191
    169  CZ3      -45.1660   -8.7310   -9.4580 C.ar  256  TRP256      0.0001
    170  CH2      -46.0350   -8.3170  -10.5050 C.ar  256  TRP256      0.0015
@<TRIPOS>BOND
     1    83    82    2
     2    82    81    1
     3    82    88   am
     4    81    80    1
     5    81    84    1
     6    91    90    2
     7    87    85    1
     8    90    89    1
     9    85    84    1
    10    85    86    1
    11    88    89    1
    12    89    92    1
    13    94    93    2
    14    92    93    1
    15    93    95   am
    16    96    97    1
    17   100    97    1
    18   100   101    1
    19    97    98    1
    20   102   101   ar
    21   102   104   ar
    22   101   103   ar
    23   104   105   ar
    24   103   105   ar
    25   103   106   ar
    26    98    99    2
    27    79    78    1
    28   105   107   ar
    29   106   108   ar
    30   147   146    1
    31   134   135    1
    32   134   133    1
    33   145   146   ar
    34   145   143   ar
    35   132   133    1
    36   132   131    1
    37    78    77    1
    38    61    60    1
    39   127   128    1
    40   128   131    1
    41   128   129    1
    42   146   144   ar
    43   107   109   ar
    44   108   109   ar
    45    77    76    1
    46   143   141   ar
    47   129   130    2
    48    60    58   ar
    49    60    59   ar
    50    58    56   ar
    51    32    31    1
    52    38    37    1
    53    76    75    1
    54   144   142   ar
    55   141   142   ar
    56   141   140    1
    57    75    72    1
    58   168   170   ar
    59   168   166   ar
    60    31    28    1
    61   170   169   ar
    62    69    68   ar
    63    70    68   ar
    64    59    57   ar
    65    56    55   ar
    66     4     3    2
    67    72    73    1
    68    72    71    1
    69    68    67    1
    70    37    34    1
    71   140   137    1
    72    28    29    1
    73    28    27    1
    74    33    34    1
    75    33    29   am
    76   166   165   ar
    77   166   164   ar
    78    73    74    2
    79   169   167   ar
    80   165   163   ar
    81     9     8    2
    82     7     8    1
    83     7     6    1
    84    57    55   ar
    85    34    35    1
    86   137   136    1
    87   137   138    1
    88    29    30    2
    89    55    54    1
    90    35    36    2
    91     3     6   am
    92     3     2    1
    93    67    66    1
    94    27    21   am
    95     8    10   am
    96     5     2    1
    97   126   125    1
    98   164   167   ar
    99   164   162   ar
   100    22    21    2
   101    47    45   ar
   102    47    49   ar
   103    21    20    1
   104   163   162   ar
   105     2     1    1
   106    45    44   ar
   107   138   139    2
   108    39    40    1
   109   125   122    1
   110    54    51    1
   111   162   161    1
   112    49    48   ar
   113    66    63    1
   114    13    12    2
   115    50    51    1
   116    10    11    1
   117    20    19    1
   118    20    23    1
   119    12    19   am
   120    12    11    1
   121    51    52    1
   122    11    14    1
   123    63    64    1
   124    63    62    1
   125    40    43    1
   126    40    41    1
   127    44    43    1
   128    44    46   ar
   129    52    53    2
   130   161   158    1
   131    64    65    2
   132    48    46   ar
   133   122   123    1
   134   122   121    1
   135   123   124    2
   136    23    24    1
   137   155   154    2
   138    41    42    2
   139    17    16   ar
   140   121   112   am
   141    14    15    1
   142   158   157    1
   143   158   159    1
   144    16    18   ar
   145    16    15    1
   146    24    25    1
   147   154   156   am
   148   154   153    1
   149   157   150   am
   150   160   159    2
   151   152   153    1
   152   152   149    1
   153   112   113    2
   154   112   111    1
   155   150   151    2
   156   150   149    1
   157    25    26    1
   158   111   114    1
   159   111   110    1
   160   114   115    1
   161   117   115   ar
   162   117   119   ar
   163   149   148    1
   164   115   116   ar
   165   119   120   ar
   166   116   118   ar
   167   120   118   ar
