@<TRIPOS>MOLECULE
tmp/5i1tA00.pdb
 179 176 0 0 0
SMALL
GASTEIGER

@<TRIPOS>ATOM
      1  N        -56.4350   -1.8450   -7.3100 N.3    32  GLU32      -0.1245
      2  CA       -55.0850   -1.7130   -6.7420 C.3    32  GLU32       0.1567
      3  C        -54.2090   -2.9180   -7.0410 C.2    32  GLU32       0.2260
      4  O        -53.0210   -2.7680   -7.3200 O.2    32  GLU32      -0.2867
      5  CB       -55.1360   -1.4890   -5.2230 C.3    32  GLU32       0.0388
      6  CG       -55.6900   -0.1320   -4.7920 C.3    32  GLU32       0.1160
      7  CD       -54.7920    1.0600   -5.1510 C.2    32  GLU32       0.3649
      8  OE1      -53.6270    0.8640   -5.5880 O.co2  32  GLU32      -0.2457
      9  OE2      -55.2410    2.2140   -4.9540 O.co2  32  GLU32      -0.2457
     10  N        -57.7650    2.6000    5.7100 N.3    52  TYR52      -0.1241
     11  CA       -57.7210    3.9350    5.1000 C.3    52  TYR52       0.1605
     12  C        -59.0510    4.6390    5.3410 C.2    52  TYR52       0.2264
     13  O        -59.0930    5.7820    5.7770 O.2    52  TYR52      -0.2867
     14  CB       -57.4330    3.8350    3.5970 C.3    52  TYR52       0.0534
     15  CG       -56.9630    5.1170    2.9530 C.ar   52  TYR52      -0.0201
     16  CD1      -57.8710    6.0630    2.4890 C.ar   52  TYR52      -0.0009
     17  CD2      -55.5980    5.3760    2.7860 C.ar   52  TYR52      -0.0009
     18  CE1      -57.4370    7.2380    1.8870 C.ar   52  TYR52       0.0417
     19  CE2      -55.1480    6.5570    2.1960 C.ar   52  TYR52       0.0417
     20  CZ       -56.0710    7.4840    1.7420 C.ar   52  TYR52       0.1957
     21  OH       -55.6400    8.6520    1.1330 O.3    52  TYR52      -0.2866
     22  N        -59.7790    7.8890    7.8760 N.3    56  LYS56      -0.1245
     23  CA       -60.4160    9.1200    7.3970 C.3    56  LYS56       0.1561
     24  C        -61.6840    9.4670    8.1850 C.2    56  LYS56       0.2260
     25  O        -61.9200   10.6340    8.4410 O.2    56  LYS56      -0.2867
     26  CB       -60.7430    9.0460    5.9110 C.3    56  LYS56       0.0271
     27  CG       -59.5450    8.9520    4.9820 C.3    56  LYS56       0.0035
     28  CD       -58.7230   10.2180    4.9040 C.3    56  LYS56       0.0206
     29  CE       -57.6320   10.0420    3.8660 C.3    56  LYS56       0.1093
     30  NZ       -56.8340   11.2800    3.6700 N.3    56  LYS56      -0.1314
     31  N        -61.2260   18.4900   -0.7900 N.3    64  LYS64      -0.1245
     32  CA       -61.7220   17.9710   -2.0730 C.3    64  LYS64       0.1561
     33  C        -63.1800   17.4950   -2.0590 C.2    64  LYS64       0.2260
     34  O        -63.9830   17.9170   -2.8850 O.2    64  LYS64      -0.2867
     35  CB       -60.8500   16.7890   -2.5080 C.3    64  LYS64       0.0271
     36  CG       -59.5890   17.1250   -3.2760 C.3    64  LYS64       0.0035
     37  CD       -59.9050   17.3170   -4.7470 C.3    64  LYS64       0.0206
     38  CE       -58.6400   17.3430   -5.5780 C.3    64  LYS64       0.1093
     39  NZ       -58.9570   17.5140   -7.0200 N.3    64  LYS64      -0.1314
     40  N        -57.3440    7.3840   -7.3180 N.3    74  TYR74      -0.1227
     41  CA       -56.0810    6.8970   -6.7500 C.3    74  TYR74       0.1736
     42  C        -55.0630    8.0300   -6.5070 C.2    74  TYR74       0.2595
     43  O        -54.0980    7.8450   -5.7720 O.2    74  TYR74      -0.2718
     44  CB       -55.4640    5.7950   -7.6490 C.3    74  TYR74       0.0548
     45  CG       -54.8190    6.2800   -8.9490 C.ar   74  TYR74      -0.0200
     46  CD1      -55.5740    6.4810  -10.0950 C.ar   74  TYR74      -0.0009
     47  CD2      -53.4380    6.5090   -9.0230 C.ar   74  TYR74      -0.0009
     48  CE1      -54.9850    6.9150  -11.2740 C.ar   74  TYR74       0.0417
     49  CE2      -52.8420    6.9490  -10.1960 C.ar   74  TYR74       0.0417
     50  CZ       -53.6190    7.1470  -11.3210 C.ar   74  TYR74       0.1957
     51  OH       -53.0480    7.5810  -12.4900 O.3    74  TYR74      -0.2866
     52  N        -55.2750    9.1830   -7.1430 N.am   75  LYS75      -0.1966
     53  CA       -54.3980   10.3550   -6.9670 C.3    75  LYS75       0.1728
     54  C        -54.7020   11.1180   -5.6740 C.2    75  LYS75       0.2616
     55  O        -53.9020   11.9580   -5.2450 O.2    75  LYS75      -0.2715
     56  CB       -54.5180   11.3100   -8.1630 C.3    75  LYS75       0.0311
     57  CG       -54.0520   10.6990   -9.4720 C.3    75  LYS75       0.0038
     58  CD       -54.4280   11.5610  -10.6570 C.3    75  LYS75       0.0206
     59  CE       -54.0900   10.8470  -11.9530 C.3    75  LYS75       0.1093
     60  NZ       -54.5990   11.6120  -13.1170 N.3    75  LYS75      -0.1314
     61  N        -55.8560   10.8390   -5.0710 N.am   76  HIS76      -0.1959
     62  CA       -56.2330   11.5000   -3.8340 C.3    76  HIS76       0.1787
     63  C        -56.3720   10.5240   -2.6530 C.2    76  HIS76       0.2620
     64  O        -55.7600   10.7620   -1.5900 O.2    76  HIS76      -0.2715
     65  CB       -57.5120   12.3170   -3.9940 C.3    76  HIS76       0.0785
     66  CG       -57.7710   13.2030   -2.8230 C.ar   76  HIS76       0.0821
     67  ND1      -58.6340   12.8640   -1.8020 N.ar   76  HIS76      -0.2267
     68  CD2      -57.1960   14.3730   -2.4600 C.ar   76  HIS76       0.1154
     69  CE1      -58.6170   13.8190   -0.8880 C.ar   76  HIS76       0.1986
     70  NE2      -57.7520   14.7420   -1.2620 N.ar   76  HIS76      -0.2212
     71  N        -57.1680    9.4530   -2.8350 N.am   77  CYS77      -0.1954
     72  CA       -57.3590    8.4140   -1.7930 C.3    77  CYS77       0.1843
     73  C        -56.8370    7.0680   -2.2880 C.2    77  CYS77       0.2625
     74  O        -55.6720    6.7270   -2.0540 O.2    77  CYS77      -0.2714
     75  CB       -58.8290    8.2970   -1.3110 C.3    77  CYS77       0.0997
     76  SG       -59.4610    9.6960   -0.3350 S.3    77  CYS77      -0.0797
     77  N        -57.6960    6.3050   -2.9570 N.am   78  GLN78      -0.1977
     78  CA       -57.3050    5.0050   -3.4980 C.3    78  GLN78       0.1601
     79  C        -58.1910    4.6350   -4.6740 C.2    78  GLN78       0.2287
     80  O        -59.2630    5.2210   -4.8720 O.2    78  GLN78      -0.2864
     81  CB       -57.2780    3.9150   -2.4230 C.3    78  GLN78       0.0394
     82  CG       -58.5180    3.8260   -1.5450 C.3    78  GLN78       0.0908
     83  CD       -58.3300    2.9000   -0.3410 C.2    78  GLN78       0.2608
     84  OE1      -57.2550    2.3250   -0.1360 O.2    78  GLN78      -0.2717
     85  NE2      -59.3890    2.7480    0.4560 N.am   78  GLN78      -0.0878
     86  N        -52.7310    5.7870    9.3350 N.3   122  LEU122     -0.1231
     87  CA       -52.8310    6.2960    7.9660 C.3   122  LEU122      0.1678
     88  C        -52.0400    5.2560    7.1760 C.2   122  LEU122      0.2434
     89  O        -50.8320    5.3320    7.1340 O.2   122  LEU122     -0.2733
     90  CB       -52.1590    7.6610    7.8500 C.3   122  LEU122      0.0284
     91  CG       -52.1370    8.2770    6.4450 C.3   122  LEU122      0.0019
     92  CD1      -53.5250    8.6510    5.9380 C.3   122  LEU122      0.0001
     93  CD2      -51.2380    9.4930    6.4530 C.3   122  LEU122      0.0001
     94  N        -52.7160    4.2860    6.5440 N.am  123  PRO123     -0.2718
     95  CA       -52.0250    3.1770    5.9240 C.3   123  PRO123      0.1535
     96  C        -51.6860    3.4390    4.4430 C.2   123  PRO123      0.2598
     97  O        -52.3350    2.8920    3.5320 O.2   123  PRO123     -0.2715
     98  CB       -53.0660    2.0840    6.0590 C.3   123  PRO123      0.0310
     99  CG       -54.3730    2.8240    5.8300 C.3   123  PRO123      0.0237
    100  CD       -54.1090    4.2930    6.0770 C.3   123  PRO123      0.0939
    101  N        -50.6930    4.2910    4.2090 N.am  124  LEU124     -0.1964
    102  CA       -50.3120    4.6300    2.8490 C.3   124  LEU124      0.1728
    103  C        -49.7010    3.4060    2.1680 C.2   124  LEU124      0.2616
    104  O        -49.1000    2.5460    2.8140 O.2   124  LEU124     -0.2715
    105  CB       -49.3620    5.8230    2.8390 C.3   124  LEU124      0.0311
    106  CG       -49.8540    7.1130    3.5590 C.3   124  LEU124      0.0022
    107  CD1      -48.7580    8.1800    3.5270 C.3   124  LEU124      0.0001
    108  CD2      -51.1570    7.6750    2.9750 C.3   124  LEU124      0.0001
    109  N        -49.9070    3.3080    0.8660 N.am  125  TYR125     -0.1974
    110  CA       -49.3620    2.1940    0.1060 C.3   125  TYR125      0.1639
    111  C        -49.1510    2.5920   -1.3570 C.2   125  TYR125      0.2290
    112  O        -49.7560    3.5520   -1.8620 O.2   125  TYR125     -0.2864
    113  CB       -50.2350    0.9230    0.2730 C.3   125  TYR125      0.0560
    114  CG       -51.6460    1.0510   -0.2250 C.ar  125  TYR125     -0.0198
    115  CD1      -51.9220    0.9740   -1.5820 C.ar  125  TYR125     -0.0009
    116  CD2      -52.7000    1.2040    0.6480 C.ar  125  TYR125     -0.0009
    117  CE1      -53.2070    1.0910   -2.0620 C.ar  125  TYR125      0.0417
    118  CE2      -53.9970    1.3280    0.1770 C.ar  125  TYR125      0.0417
    119  CZ       -54.2320    1.2710   -1.1920 C.ar  125  TYR125      0.1957
    120  OH       -55.4910    1.3880   -1.6880 O.3   125  TYR125     -0.2866
    121  N        -42.3290    8.8660    5.9180 N.3   136  SER136     -0.1217
    122  CA       -43.4080    9.7870    5.5420 C.3   136  SER136      0.1889
    123  C        -42.9940   11.2480    5.3500 C.2   136  SER136      0.2288
    124  O        -43.3410   11.8550    4.3440 O.2   136  SER136     -0.2866
    125  CB       -44.5420    9.7030    6.5820 C.3   136  SER136      0.2089
    126  OG       -44.0850    9.9080    7.9260 O.3   136  SER136     -0.2183
    127  N        -43.7820   13.4580    2.2060 N.3   140  PHE140     -0.1227
    128  CA       -44.8940   14.3790    2.4290 C.3   140  PHE140      0.1736
    129  C        -44.4880   15.4410    3.4520 C.2   140  PHE140      0.2596
    130  O        -43.4740   16.1240    3.2390 O.2   140  PHE140     -0.2718
    131  CB       -46.1970   13.6210    2.7510 C.3   140  PHE140      0.0547
    132  CG       -46.6520   12.7010    1.6350 C.ar  140  PHE140     -0.0202
    133  CD1      -47.1260   13.2310    0.4260 C.ar  140  PHE140     -0.0042
    134  CD2      -46.6210   11.3140    1.7920 C.ar  140  PHE140     -0.0042
    135  CE1      -47.5490   12.3900   -0.5980 C.ar  140  PHE140     -0.0003
    136  CE2      -47.0540   10.4690    0.7770 C.ar  140  PHE140     -0.0003
    137  CZ       -47.5190   11.0040   -0.4190 C.ar  140  PHE140     -0.0000
    138  N        -45.2310   15.5910    4.5410 N.am  141  SER141     -0.1938
    139  CA       -44.9450   16.6480    5.5300 C.3   141  SER141      0.2055
    140  C        -44.6380   16.1580    6.9270 C.2   141  SER141      0.2642
    141  O        -43.6700   16.5900    7.5280 O.2   141  SER141     -0.2714
    142  CB       -46.1450   17.5760    5.6350 C.3   141  SER141      0.2130
    143  OG       -46.4330   18.1620    4.3910 O.3   141  SER141     -0.2179
    144  N        -45.4700   15.2620    7.4360 N.am  142  ALA142     -0.1977
    145  CA       -45.3540   14.7830    8.8110 C.3   142  ALA142      0.1597
    146  C        -44.6900   13.4220    9.0180 C.2   142  ALA142      0.2287
    147  O        -44.6930   12.5320    8.1460 O.2   142  ALA142     -0.2864
    148  CB       -46.7300   14.7810    9.4510 C.3   142  ALA142      0.0319
    149  N        -44.5230    9.9430   11.1890 N.3   144  TYR144     -0.1241
    150  CA       -45.4000    8.9950   11.9180 C.3   144  TYR144      0.1605
    151  C        -44.5840    7.7810   12.3490 C.2   144  TYR144      0.2264
    152  O        -43.8710    7.2070   11.5250 O.2   144  TYR144     -0.2867
    153  CB       -46.5750    8.5140   11.0720 C.3   144  TYR144      0.0534
    154  CG       -47.6390    9.5490   10.8470 C.ar  144  TYR144     -0.0201
    155  CD1      -48.5660    9.8530   11.8450 C.ar  144  TYR144     -0.0009
    156  CD2      -47.7420   10.2080    9.6420 C.ar  144  TYR144     -0.0009
    157  CE1      -49.5500   10.8140   11.6390 C.ar  144  TYR144      0.0417
    158  CE2      -48.7190   11.1520    9.4280 C.ar  144  TYR144      0.0417
    159  CZ       -49.6160   11.4570   10.4120 C.ar  144  TYR144      0.1957
    160  OH       -50.5620   12.4130   10.1350 O.3   144  TYR144     -0.2866
    161  N        -41.7130   15.2620   -7.0000 N.3   218  LYS218     -0.1245
    162  CA       -43.1030   15.0460   -7.3840 C.3   218  LYS218      0.1561
    163  C        -43.4640   15.9600   -8.5420 C.2   218  LYS218      0.2260
    164  O        -44.1340   15.5390   -9.4670 O.2   218  LYS218     -0.2867
    165  CB       -44.0760   15.2600   -6.2110 C.3   218  LYS218      0.0271
    166  CG       -45.4920   14.7560   -6.5130 C.3   218  LYS218      0.0035
    167  CD       -46.5840   15.4340   -5.6870 C.3   218  LYS218      0.0206
    168  CE       -46.8250   16.9020   -6.0940 C.3   218  LYS218      0.1093
    169  NZ       -47.2510   17.0800   -7.5250 N.3   218  LYS218     -0.1314
    170  N        -45.4930    6.6990   -4.5690 N.3   249  HIS249     -0.1241
    171  CA       -44.8980    7.6100   -3.5800 C.3   249  HIS249      0.1621
    172  C        -43.8460    7.0240   -2.6380 C.2   249  HIS249      0.2264
    173  O        -43.0620    7.7550   -2.0460 O.2   249  HIS249     -0.2867
    174  CB       -45.9730    8.4070   -2.8280 C.3   249  HIS249      0.0745
    175  CG       -46.9710    7.5590   -2.1060 C.ar  249  HIS249      0.0817
    176  ND1      -46.6190    6.7160   -1.0800 N.ar  249  HIS249     -0.2268
    177  CD2      -48.3140    7.4450   -2.2390 C.ar  249  HIS249      0.1154
    178  CE1      -47.6950    6.0960   -0.6280 C.ar  249  HIS249      0.1986
    179  NE2      -48.7380    6.5180   -1.3150 N.ar  249  HIS249     -0.2212
@<TRIPOS>BOND
     1    60    59    1
     2    51    50    1
     3    59    58    1
     4    50    48   ar
     5    50    49   ar
     6    48    46   ar
     7    58    57    1
     8    49    47   ar
     9    46    45   ar
    10    57    56    1
    11   164   163    2
    12    47    45   ar
    13    45    44    1
    14   163   162    1
    15    56    53    1
    16    44    41    1
    17   169   168    1
    18   162   161    1
    19   162   165    1
    20     4     3    2
    21    40    41    1
    22     1     2    1
    23    52    53    1
    24    52    42   am
    25     3     2    1
    26    39    38    1
    27    53    54    1
    28    41    42    1
    29     2     5    1
    30   166   165    1
    31   166   167    1
    32    42    43    2
    33   168   167    1
    34    54    55    2
    35    54    61   am
    36     8     7   ar
    37    38    37    1
    38     5     6    1
    39     7     9   ar
    40     7     6    1
    41    61    62    1
    42    80    79    2
    43    37    36    1
    44    79    78    1
    45   170   171    1
    46    65    62    1
    47    65    66    1
    48    62    63    1
    49   171   174    1
    50   171   172    1
    51    78    77    1
    52    78    81    1
    53    36    35    1
    54    77    73   am
    55    34    33    2
    56    71    63   am
    57    71    72    1
    58   174   175    1
    59    66    68   ar
    60    66    67   ar
    61    63    64    2
    62   172   173    2
    63    35    32    1
    64    68    70   ar
    65    81    82    1
    66    73    74    2
    67    73    72    1
    68   177   175   ar
    69   177   179   ar
    70   175   176   ar
    71    32    33    1
    72    32    31    1
    73   117   115   ar
    74   117   119   ar
    75   112   111    2
    76    67    69   ar
    77    72    75    1
    78   120   119    1
    79   115   114   ar
    80    82    83    1
    81   111   110    1
    82   179   178   ar
    83    75    76    1
    84    70    69   ar
    85   119   118   ar
    86   176   178   ar
    87   135   137   ar
    88   135   133   ar
    89   137   136   ar
    90    83    84    2
    91    83    85   am
    92   114   113    1
    93   114   116   ar
    94   110   113    1
    95   110   109    1
    96   118   116   ar
    97   133   132   ar
    98   136   134   ar
    99   109   103   am
   100    21    20    1
   101   132   134   ar
   102   132   131    1
   103    20    18   ar
   104    20    19   ar
   105    18    16   ar
   106   103   104    2
   107   103   102    1
   108    19    17   ar
   109   127   128    1
   110   128   131    1
   111   128   129    1
   112    16    15   ar
   113    17    15   ar
   114   105   102    1
   115   105   106    1
   116   102   101    1
   117    15    14    1
   118   108   106    1
   119   130   129    2
   120   129   138   am
   121   107   106    1
   122    97    96    2
   123    14    11    1
   124    30    29    1
   125    29    28    1
   126   101    96   am
   127   124   123    2
   128   143   142    1
   129    96    95    1
   130   138   139    1
   131    28    27    1
   132    27    26    1
   133    11    12    1
   134    11    10    1
   135    12    13    2
   136   123   122    1
   137   139   142    1
   138   139   140    1
   139   122   121    1
   140   122   125    1
   141    99    98    1
   142    99   100    1
   143    26    23    1
   144    95    98    1
   145    95    94    1
   146    92    91    1
   147   100    94    1
   148    91    93    1
   149    91    90    1
   150    94    88   am
   151   125   126    1
   152   140   144   am
   153   140   141    2
   154    89    88    2
   155    88    87    1
   156    23    22    1
   157    23    24    1
   158   144   145    1
   159    90    87    1
   160    87    86    1
   161   147   146    2
   162    24    25    2
   163   145   146    1
   164   145   148    1
   165   158   156   ar
   166   158   159   ar
   167   156   154   ar
   168   160   159    1
   169   159   157   ar
   170   154   153    1
   171   154   155   ar
   172   153   150    1
   173   149   150    1
   174   152   151    2
   175   157   155   ar
   176   150   151    1
