@<TRIPOS>MOLECULE
tmp/5i1wB01.pdb
 135 128 0 0 0
SMALL
GASTEIGER

@<TRIPOS>ATOM
      1  N         -4.9770   29.3320   62.8340 N.3    21  ASP21      -0.1225
      2  CA        -3.9810   30.0240   63.6540 C.3    21  ASP21       0.1805
      3  C         -2.5060   29.6010   63.4160 C.2    21  ASP21       0.2597
      4  O         -1.5870   30.4100   63.6230 O.2    21  ASP21      -0.2718
      5  CB        -4.2900   29.8270   65.1120 C.3    21  ASP21       0.1424
      6  CG        -3.3890   30.6730   66.0110 C.2    21  ASP21       0.3668
      7  OD1       -3.4360   31.9390   65.9250 O.co2  21  ASP21      -0.2456
      8  OD2       -2.6340   30.0700   66.8130 O.co2  21  ASP21      -0.2456
      9  N         -2.2870   28.3470   63.0160 N.am   22  ASN22      -0.1974
     10  CA        -0.9560   27.8460   62.8000 C.3    22  ASN22       0.1688
     11  C         -0.6780   27.4880   61.3420 C.2    22  ASN22       0.2292
     12  O         -1.1270   26.4650   60.8200 O.2    22  ASN22      -0.2864
     13  CB        -0.7060   26.6560   63.7100 C.3    22  ASN22       0.1181
     14  CG         0.7720   26.3330   63.8370 C.2    22  ASN22       0.2629
     15  OD1        1.5790   26.6820   62.9660 O.2    22  ASN22      -0.2716
     16  ND2        1.1330   25.6820   64.9240 N.am   22  ASN22      -0.0877
     17  N         -7.8010   27.3160   66.5620 N.3    62  HIS62      -0.1226
     18  CA        -6.7160   27.5750   67.4920 C.3    62  HIS62       0.1752
     19  C         -5.8930   26.3960   67.9180 C.2    62  HIS62       0.2596
     20  O         -4.9020   26.5590   68.6600 O.2    62  HIS62      -0.2718
     21  CB        -7.2120   28.3620   68.6920 C.3    62  HIS62       0.0759
     22  CG        -7.0480   29.8120   68.4570 C.ar   62  HIS62       0.0818
     23  ND1       -5.8460   30.4440   68.6790 N.ar   62  HIS62      -0.2268
     24  CD2       -7.8260   30.7020   67.8000 C.ar   62  HIS62       0.1154
     25  CE1       -5.9270   31.6990   68.2730 C.ar   62  HIS62       0.1986
     26  NE2       -7.1260   31.8800   67.7460 N.ar   62  HIS62      -0.2212
     27  N         -6.2500   25.2160   67.4260 N.am   63  CYS63      -0.1956
     28  CA        -5.4260   24.0230   67.7180 C.3    63  CYS63       0.1843
     29  C         -3.9090   24.2730   67.5190 C.2    63  CYS63       0.2626
     30  O         -3.4320   24.7920   66.4540 O.2    63  CYS63      -0.2714
     31  CB        -5.8390   22.8470   66.8550 C.3    63  CYS63       0.0997
     32  SG        -5.2720   21.2570   67.5220 S.3    63  CYS63      -0.0797
     33  N         -3.1640   23.8630   68.5370 N.am   64  GLY64      -0.1954
     34  CA        -1.7110   23.8810   68.5140 C.3    64  GLY64       0.1869
     35  C         -1.1010   22.8820   67.5410 C.2    64  GLY64       0.2309
     36  O         -0.0080   23.1260   67.0080 O.2    64  GLY64      -0.2863
     37  N         -7.8070   34.2580   77.6690 N.3   121  PHE121     -0.1227
     38  CA        -7.5580   35.6330   77.3150 C.3   121  PHE121      0.1736
     39  C         -7.4730   35.8830   75.7880 C.2   121  PHE121      0.2595
     40  O         -7.7510   36.9810   75.3240 O.2   121  PHE121     -0.2718
     41  CB        -6.3920   36.2430   78.1260 C.3   121  PHE121      0.0547
     42  CG        -5.1510   35.3890   78.2300 C.ar  121  PHE121     -0.0202
     43  CD1       -4.1010   35.5580   77.3430 C.ar  121  PHE121     -0.0042
     44  CD2       -5.0030   34.4560   79.2640 C.ar  121  PHE121     -0.0042
     45  CE1       -2.9520   34.7740   77.4440 C.ar  121  PHE121     -0.0003
     46  CE2       -3.8560   33.6720   79.3740 C.ar  121  PHE121     -0.0003
     47  CZ        -2.8280   33.8290   78.4600 C.ar  121  PHE121     -0.0000
     48  N         -7.1570   34.8690   74.9970 N.am  122  CYS122     -0.1970
     49  CA        -7.0330   35.0570   73.5520 C.3   122  CYS122      0.1712
     50  C         -8.3820   35.2750   72.8100 C.2   122  CYS122      0.2296
     51  O         -9.3660   34.5490   73.0030 O.2   122  CYS122     -0.2864
     52  CB        -6.2800   33.8750   72.9820 C.3   122  CYS122      0.0983
     53  SG        -4.6280   33.5840   73.7410 S.3   122  CYS122     -0.0798
     54  N         -4.7660   38.4810   73.5610 N.3   326  ILE326     -0.1245
     55  CA        -3.9570   38.4190   72.3720 C.3   326  ILE326      0.1561
     56  C         -4.8850   38.6570   71.1920 C.2   326  ILE326      0.2260
     57  O         -5.9540   38.0420   71.1250 O.2   326  ILE326     -0.2867
     58  CB        -3.2550   37.0460   72.2580 C.3   326  ILE326      0.0252
     59  CG1       -2.0140   37.0420   73.1640 C.3   326  ILE326      0.0019
     60  CG2       -2.8790   36.7150   70.8240 C.3   326  ILE326      0.0019
     61  CD1       -2.3600   36.6790   74.5810 C.3   326  ILE326      0.0001
     62  N          3.8100   28.0510   64.4610 N.3   338  ARG338     -0.1245
     63  CA         3.9230   27.9740   65.9280 C.3   338  ARG338      0.1563
     64  C          4.2810   26.6040   66.3610 C.2   338  ARG338      0.2260
     65  O          3.9640   25.6620   65.6800 O.2   338  ARG338     -0.2867
     66  CB         2.6060   28.2510   66.6350 C.3   338  ARG338      0.0307
     67  CG         2.1800   29.6960   66.6490 C.3   338  ARG338      0.0489
     68  CD         0.6980   29.8510   67.0000 C.3   338  ARG338      0.2205
     69  NE         0.1060   30.9830   66.2720 N.pl3 338  ARG338     -0.0865
     70  CZ         0.3970   32.2680   66.4760 C.cat 338  ARG338      0.5346
     71  NH1        1.2970   32.6490   67.4040 N.pl3 338  ARG338      0.1354
     72  NH2       -0.2220   33.1840   65.7450 N.pl3 338  ARG338      0.1354
     73  N          3.8380   24.9080   70.4210 N.3   340  VAL340     -0.1245
     74  CA         3.5890   25.1290   71.8410 C.3   340  VAL340      0.1561
     75  C          3.8050   23.9030   72.6960 C.2   340  VAL340      0.2260
     76  O          3.7350   22.8070   72.2070 O.2   340  VAL340     -0.2867
     77  CB         2.1700   25.5930   72.0810 C.3   340  VAL340      0.0252
     78  CG1        1.9040   26.7820   71.1660 C.3   340  VAL340      0.0019
     79  CG2        1.1710   24.4220   71.8820 C.3   340  VAL340      0.0019
     80  N          6.3510   30.8890   79.9560 N.3   374  GLU374     -0.1245
     81  CA         5.5310   31.6960   80.8240 C.3   374  GLU374      0.1567
     82  C          5.0950   30.9150   82.0440 C.2   374  GLU374      0.2260
     83  O          4.7840   29.7480   81.9370 O.2   374  GLU374     -0.2867
     84  CB         4.2530   32.1180   80.0890 C.3   374  GLU374      0.0388
     85  CG         4.4910   32.6970   78.7220 C.3   374  GLU374      0.1160
     86  CD         3.1930   33.0310   78.0020 C.2   374  GLU374      0.3649
     87  OE1        2.0880   32.8040   78.5720 O.co2 374  GLU374     -0.2457
     88  OE2        3.2890   33.5030   76.8440 O.co2 374  GLU374     -0.2457
     89  N          2.0670   31.1480   84.6540 N.3   376  ILE376     -0.1245
     90  CA         0.7410   31.6890   84.7320 C.3   376  ILE376      0.1561
     91  C          0.1690   31.2650   86.0470 C.2   376  ILE376      0.2260
     92  O          0.0670   30.0860   86.3030 O.2   376  ILE376     -0.2867
     93  CB        -0.1090   31.1060   83.6130 C.3   376  ILE376      0.0252
     94  CG1        0.5400   31.4360   82.2580 C.3   376  ILE376      0.0019
     95  CG2       -1.5380   31.6350   83.7180 C.3   376  ILE376      0.0019
     96  CD1        0.4950   30.2940   81.2650 C.3   376  ILE376      0.0001
     97  N          4.0050   27.4160   80.1720 N.3   401  PHE401     -0.1241
     98  CA         3.6120   27.4380   78.7840 C.3   401  PHE401      0.1605
     99  C          4.8120   27.8940   78.0060 C.2   401  PHE401      0.2264
    100  O          5.5000   28.8220   78.4180 O.2   401  PHE401     -0.2867
    101  CB         2.4060   28.3640   78.5960 C.3   401  PHE401      0.0534
    102  CG         2.0760   28.6470   77.1610 C.ar  401  PHE401     -0.0203
    103  CD1        1.3270   27.7570   76.4260 C.ar  401  PHE401     -0.0042
    104  CD2        2.5410   29.8010   76.5460 C.ar  401  PHE401     -0.0042
    105  CE1        1.0440   28.0010   75.0930 C.ar  401  PHE401     -0.0003
    106  CE2        2.2630   30.0590   75.2240 C.ar  401  PHE401     -0.0003
    107  CZ         1.5100   29.1570   74.4960 C.ar  401  PHE401     -0.0000
    108  N          6.3560   28.6830   73.9540 N.3   403  MET403     -0.1245
    109  CA         6.0210   28.9100   72.5570 C.3   403  MET403      0.1570
    110  C          7.1070   29.5530   71.7300 C.2   403  MET403      0.2261
    111  O          7.8120   30.4280   72.1940 O.2   403  MET403     -0.2867
    112  CB         4.6280   29.5900   72.4030 C.3   403  MET403      0.0387
    113  CG         4.5050   31.0840   72.1240 C.3   403  MET403      0.0595
    114  SD         2.7570   31.5150   71.7010 S.3   403  MET403     -0.1393
    115  CE         2.4600   30.6640   70.1510 C.3   403  MET403      0.0692
    116  N         -5.3850   21.3940   75.8870 N.3   446  ASN446     -0.1225
    117  CA        -5.5620   22.5040   74.9950 C.3   446  ASN446      0.1785
    118  C         -4.2700   23.2020   74.5540 C.2   446  ASN446      0.2597
    119  O         -4.3370   24.1840   73.7720 O.2   446  ASN446     -0.2718
    120  CB        -6.5610   23.4970   75.6030 C.3   446  ASN446      0.1169
    121  CG        -8.0260   23.0950   75.3140 C.2   446  ASN446      0.2627
    122  OD1       -8.3080   22.3820   74.3470 O.2   446  ASN446     -0.2716
    123  ND2       -8.9410   23.5440   76.1420 N.am  446  ASN446     -0.0877
    124  N         -3.1190   22.7410   75.0810 N.am  447  TYR447     -0.1976
    125  CA        -1.7900   23.0400   74.5190 C.3   447  TYR447      0.1639
    126  C         -1.0970   21.7230   74.0710 C.2   447  TYR447      0.2290
    127  O         -0.0340   21.3700   74.5610 O.2   447  TYR447     -0.2864
    128  CB        -0.8870   23.7700   75.5260 C.3   447  TYR447      0.0560
    129  CG        -1.4310   25.0350   76.2390 C.ar  447  TYR447     -0.0198
    130  CD1       -2.1720   25.9930   75.5760 C.ar  447  TYR447     -0.0009
    131  CD2       -1.1250   25.2740   77.5900 C.ar  447  TYR447     -0.0009
    132  CE1       -2.6210   27.1360   76.2310 C.ar  447  TYR447      0.0417
    133  CE2       -1.5650   26.3920   78.2620 C.ar  447  TYR447      0.0417
    134  CZ        -2.3200   27.3330   77.5850 C.ar  447  TYR447      0.1957
    135  OH        -2.7800   28.4730   78.2640 O.3   447  TYR447     -0.2866
@<TRIPOS>BOND
     1    12    11    2
     2    11    10    1
     3    10     9    1
     4    10    13    1
     5     1     2    1
     6    15    14    2
     7     9     3   am
     8     3     4    2
     9     3     2    1
    10     2     5    1
    11    13    14    1
    12    14    16   am
    13    62    63    1
    14     5     6    1
    15    65    64    2
    16    72    70    1
    17     7     6   ar
    18    63    64    1
    19    63    66    1
    20     6     8   ar
    21    69    70    2
    22    69    68    1
    23    30    29    2
    24    70    71    1
    25    17    18    1
    26    66    67    1
    27    67    68    1
    28    31    32    1
    29    31    28    1
    30    36    35    2
    31    27    28    1
    32    27    19   am
    33    18    19    1
    34    18    21    1
    35    29    28    1
    36    29    33   am
    37    35    34    1
    38    26    24   ar
    39    26    25   ar
    40    24    22   ar
    41    19    20    2
    42    25    23   ar
    43    22    23   ar
    44    22    21    1
    45    34    33    1
    46   115   114    1
    47    73    74    1
    48    60    58    1
    49    57    56    2
    50    78    77    1
    51    56    55    1
    52   114   113    1
    53   110   111    2
    54   110   109    1
    55    74    77    1
    56    74    75    1
    57    79    77    1
    58   113   112    1
    59    76    75    2
    60    58    55    1
    61    58    59    1
    62    55    54    1
    63   112   109    1
    64   109   108    1
    65    50    51    2
    66    50    49    1
    67    52    49    1
    68    52    53    1
    69    59    61    1
    70    49    48    1
    71   119   118    2
    72   126   125    1
    73   126   127    2
    74   122   121    2
    75   107   105   ar
    76   107   106   ar
    77   125   124    1
    78   125   128    1
    79   118   117    1
    80   118   124   am
    81   117   120    1
    82   117   116    1
    83    48    39   am
    84   105   103   ar
    85   106   104   ar
    86   121   120    1
    87   121   123   am
    88    40    39    2
    89   128   129    1
    90   130   132   ar
    91   130   129   ar
    92    39    38    1
    93   132   134   ar
    94   129   131   ar
    95   103   102   ar
    96   104   102   ar
    97    88    86   ar
    98   102   101    1
    99    38    37    1
   100    38    41    1
   101    43    45   ar
   102    43    42   ar
   103    45    47   ar
   104   134   133   ar
   105   134   135    1
   106   131   133   ar
   107    86    87   ar
   108    86    85    1
   109    99   100    2
   110    99    98    1
   111    41    42    1
   112    42    44   ar
   113    47    46   ar
   114   101    98    1
   115    85    84    1
   116    98    97    1
   117    44    46   ar
   118    80    81    1
   119    84    81    1
   120    81    82    1
   121    96    94    1
   122    83    82    2
   123    94    93    1
   124    93    95    1
   125    93    90    1
   126    89    90    1
   127    90    91    1
   128    91    92    2
