@<TRIPOS>MOLECULE
tmp/5i20B02.pdb
 75 67 0 0 0
SMALL
GASTEIGER

@<TRIPOS>ATOM
      1  N        129.4430   52.7900   94.3260 N.3     8  ILE8       -0.1245
      2  CA       129.6850   51.5810   93.5500 C.3     8  ILE8        0.1561
      3  C        129.8410   51.8990   92.0620 C.2     8  ILE8        0.2260
      4  O        130.7890   51.4500   91.4200 O.2     8  ILE8       -0.2867
      5  CB       128.5510   50.5590   93.7490 C.3     8  ILE8        0.0252
      6  CG1      128.5140   50.1010   95.2090 C.3     8  ILE8        0.0019
      7  CG2      128.7360   49.3700   92.8250 C.3     8  ILE8        0.0019
      8  CD1      127.4100   49.1140   95.5210 C.3     8  ILE8        0.0001
      9  N        133.1560   53.1230   90.7600 N.3    11  THR11      -0.1218
     10  CA       134.2430   52.1660   90.5610 C.3    11  THR11       0.1862
     11  C        134.3650   51.7750   89.0930 C.2    11  THR11       0.2287
     12  O        135.4300   51.3600   88.6430 O.2    11  THR11      -0.2866
     13  CB       134.0600   50.8880   91.4060 C.3    11  THR11       0.1770
     14  OG1      132.8960   50.1740   90.9660 O.3    11  THR11      -0.2211
     15  CG2      133.9250   51.2350   92.8820 C.3    11  THR11       0.0375
     16  N        136.5200   54.5210   87.5830 N.3    14  LEU14      -0.1231
     17  CA       137.9060   54.2440   87.9410 C.3    14  LEU14       0.1693
     18  C        138.5100   53.1500   87.0600 C.2    14  LEU14       0.2591
     19  O        139.6250   53.2900   86.5680 O.2    14  LEU14      -0.2718
     20  CB       138.0030   53.8360   89.4130 C.3    14  LEU14       0.0284
     21  CG       137.6780   54.9020   90.4610 C.3    14  LEU14       0.0019
     22  CD1      137.6920   54.3010   91.8610 C.3    14  LEU14       0.0001
     23  CD2      138.6610   56.0570   90.3690 C.3    14  LEU14       0.0001
     24  N        137.7720   52.0610   86.8660 N.am   15  LEU15      -0.1980
     25  CA       138.2460   50.9550   86.0390 C.3    15  LEU15       0.1596
     26  C        138.3800   51.3630   84.5730 C.2    15  LEU15       0.2287
     27  O        139.2890   50.9160   83.8800 O.2    15  LEU15      -0.2864
     28  CB       137.3100   49.7520   86.1680 C.3    15  LEU15       0.0297
     29  CG       137.3500   48.9850   87.4940 C.3    15  LEU15       0.0022
     30  CD1      136.1390   48.0770   87.6140 C.3    15  LEU15       0.0001
     31  CD2      138.6390   48.1770   87.6120 C.3    15  LEU15       0.0001
     32  N        139.2960   54.1230   83.6030 N.3    17  SER17      -0.1202
     33  CA       140.4620   55.0060   83.5180 C.3    17  SER17       0.2020
     34  C        141.7280   54.2580   83.1040 C.2    17  SER17       0.2619
     35  O        142.7170   54.8760   82.7030 O.2    17  SER17      -0.2717
     36  CB       140.7100   55.7100   84.8560 C.3    17  SER17       0.2103
     37  OG       139.6160   56.5330   85.2160 O.3    17  SER17      -0.2182
     38  N        141.7050   52.9340   83.2140 N.am   18  THR18      -0.1952
     39  CA       142.8870   52.1340   82.9090 C.3    18  THR18       0.1897
     40  C        142.8560   51.6290   81.4720 C.2    18  THR18       0.2313
     41  O        143.7250   50.8640   81.0570 O.2    18  THR18      -0.2863
     42  CB       143.0140   50.9310   83.8630 C.3    18  THR18       0.1794
     43  OG1      141.9780   49.9810   83.5810 O.3    18  THR18      -0.2208
     44  CG2      142.9040   51.3900   85.3110 C.3    18  THR18       0.0378
     45  N        133.5530   43.8730   85.7520 N.3   215  ILE215     -0.1245
     46  CA       133.1790   44.4920   87.0160 C.3   215  ILE215      0.1561
     47  C        132.5200   45.8390   86.7540 C.2   215  ILE215      0.2260
     48  O        131.4900   46.1600   87.3450 O.2   215  ILE215     -0.2867
     49  CB       134.3940   44.6730   87.9590 C.3   215  ILE215      0.0252
     50  CG1      134.8770   43.3160   88.4760 C.3   215  ILE215      0.0019
     51  CG2      134.0350   45.5620   89.1410 C.3   215  ILE215      0.0019
     52  CD1      136.0370   43.4090   89.4480 C.3   215  ILE215      0.0001
     53  N        128.9470   47.3010   88.0370 N.3   219  THR219     -0.1218
     54  CA       128.9150   48.3750   89.0200 C.3   219  THR219      0.1862
     55  C        128.2690   49.6310   88.4280 C.2   219  THR219      0.2287
     56  O        127.5990   50.3800   89.1350 O.2   219  THR219     -0.2866
     57  CB       130.3260   48.7030   89.5560 C.3   219  THR219      0.1770
     58  OG1      131.1950   49.0480   88.4690 O.3   219  THR219     -0.2211
     59  CG2      130.8970   47.5040   90.3040 C.3   219  THR219      0.0375
     60  N        142.2510   60.8680   84.9830 N.3   242  LEU242     -0.1245
     61  CA       142.9170   59.7500   85.6460 C.3   242  LEU242      0.1561
     62  C        143.6640   58.8670   84.6510 C.2   242  LEU242      0.2260
     63  O        144.7010   58.2930   84.9770 O.2   242  LEU242     -0.2867
     64  CB       141.9070   58.9110   86.4320 C.3   242  LEU242      0.0270
     65  CG       141.3340   59.5560   87.6950 C.3   242  LEU242      0.0019
     66  CD1      140.3280   58.6310   88.3530 C.3   242  LEU242      0.0001
     67  CD2      142.4440   59.9220   88.6650 C.3   242  LEU242      0.0001
     68  N        147.8370   57.9570   84.6720 N.3   246  LEU246     -0.1245
     69  CA       148.3980   56.6140   84.5760 C.3   246  LEU246      0.1561
     70  C        149.3730   56.5030   83.4060 C.2   246  LEU246      0.2260
     71  O        150.3980   55.8300   83.5060 O.2   246  LEU246     -0.2867
     72  CB       147.2850   55.5720   84.4330 C.3   246  LEU246      0.0270
     73  CG       146.3550   55.3820   85.6340 C.3   246  LEU246      0.0019
     74  CD1      145.2740   54.3560   85.3210 C.3   246  LEU246      0.0001
     75  CD2      147.1450   54.9730   86.8660 C.3   246  LEU246      0.0001
@<TRIPOS>BOND
     1    41    40    2
     2    40    39    1
     3    35    34    2
     4    39    38    1
     5    39    42    1
     6    34    38   am
     7    34    33    1
     8    70    71    2
     9    70    69    1
    10    33    32    1
    11    33    36    1
    12    43    42    1
    13    42    44    1
    14    27    26    2
    15    72    69    1
    16    72    73    1
    17    26    25    1
    18    69    68    1
    19    62    63    2
    20    62    61    1
    21    36    37    1
    22    60    61    1
    23    74    73    1
    24    73    75    1
    25    61    64    1
    26    45    46    1
    27    25    28    1
    28    25    24    1
    29    28    29    1
    30    64    65    1
    31    19    18    2
    32    47    46    1
    33    47    48    2
    34    24    18   am
    35    46    49    1
    36    18    17    1
    37    29    31    1
    38    29    30    1
    39    16    17    1
    40    65    66    1
    41    65    67    1
    42    17    20    1
    43    49    50    1
    44    49    51    1
    45    53    54    1
    46    55    54    1
    47    55    56    2
    48    58    57    1
    49    50    52    1
    50    12    11    2
    51    54    57    1
    52    11    10    1
    53    20    21    1
    54    57    59    1
    55    23    21    1
    56    21    22    1
    57    10     9    1
    58    10    13    1
    59    14    13    1
    60    13    15    1
    61     4     3    2
    62     3     2    1
    63     7     5    1
    64     2     5    1
    65     2     1    1
    66     5     6    1
    67     6     8    1
