@<TRIPOS>MOLECULE
tmp/5i20A00.pdb
 195 195 0 0 0
SMALL
GASTEIGER

@<TRIPOS>ATOM
      1  N        114.5820   58.0810   56.0070 N.3    16  TRP16      -0.1241
      2  CA       113.1900   57.9550   55.5790 C.3    16  TRP16       0.1605
      3  C        112.4390   56.9240   56.4190 C.2    16  TRP16       0.2264
      4  O        111.2110   56.9240   56.4590 O.2    16  TRP16      -0.2867
      5  CB       113.1160   57.5940   54.0940 C.3    16  TRP16       0.0550
      6  CG       113.5990   58.7000   53.2040 C.ar   16  TRP16       0.0003
      7  CD1      113.5540   60.0390   53.4640 C.ar   16  TRP16       0.0946
      8  CD2      114.2190   58.5610   51.9190 C.ar   16  TRP16       0.0152
      9  NE1      114.0970   60.7440   52.4170 N.ar   16  TRP16      -0.2442
     10  CE2      114.5160   59.8600   51.4570 C.ar   16  TRP16       0.0810
     11  CE3      114.5500   57.4650   51.1150 C.ar   16  TRP16       0.0012
     12  CZ2      115.1290   60.0930   50.2260 C.ar   16  TRP16       0.0191
     13  CZ3      115.1550   57.6980   49.8930 C.ar   16  TRP16       0.0001
     14  CH2      115.4390   59.0030   49.4610 C.ar   16  TRP16       0.0015
     15  N        110.2020   58.4590   59.3310 N.3    19  LEU19      -0.1245
     16  CA       109.0470   59.2850   58.9740 C.3    19  LEU19       0.1561
     17  C        107.8000   58.9980   59.8040 C.2    19  LEU19       0.2260
     18  O        107.1480   59.9220   60.2960 O.2    19  LEU19      -0.2867
     19  CB       108.7120   59.1080   57.4920 C.3    19  LEU19       0.0270
     20  CG       109.6180   59.8490   56.5110 C.3    19  LEU19       0.0019
     21  CD1      109.2090   59.5630   55.0750 C.3    19  LEU19       0.0001
     22  CD2      109.5850   61.3390   56.7980 C.3    19  LEU19       0.0001
     23  N         99.4510   68.4840   54.5310 N.3    31  PRO31      -0.2116
     24  CA       100.6850   68.0410   53.8630 C.3    31  PRO31       0.1372
     25  C        101.4780   69.1240   53.1250 C.2    31  PRO31       0.2244
     26  O        102.7060   69.1310   53.2210 O.2    31  PRO31      -0.2868
     27  CB       100.1770   66.9920   52.8640 C.3    31  PRO31       0.0268
     28  CG        98.7510   67.3440   52.6340 C.3    31  PRO31       0.0207
     29  CD        98.2610   67.8260   53.9630 C.3    31  PRO31       0.0892
     30  N        103.1750   71.5250   55.4710 N.3    34  LEU34      -0.1231
     31  CA       104.2230   70.7720   56.1510 C.3    34  LEU34       0.1693
     32  C        105.4120   70.5740   55.2190 C.2    34  LEU34       0.2592
     33  O        106.5650   70.5830   55.6500 O.2    34  LEU34      -0.2718
     34  CB       103.6860   69.4230   56.6380 C.3    34  LEU34       0.0284
     35  CG       104.5840   68.5950   57.5620 C.3    34  LEU34       0.0019
     36  CD1      104.8410   69.3280   58.8720 C.3    34  LEU34       0.0001
     37  CD2      103.9750   67.2230   57.8230 C.3    34  LEU34       0.0001
     38  N        105.1170   70.4030   53.9360 N.am   35  THR35      -0.1953
     39  CA       106.1460   70.2650   52.9150 C.3    35  THR35       0.1897
     40  C        106.9030   71.5780   52.7390 C.2    35  THR35       0.2313
     41  O        108.1350   71.5970   52.7060 O.2    35  THR35      -0.2863
     42  CB       105.5350   69.8270   51.5680 C.3    35  THR35       0.1794
     43  OG1      104.9110   68.5450   51.7220 O.3    35  THR35      -0.2208
     44  CG2      106.6030   69.7390   50.4900 C.3    35  THR35       0.0378
     45  N        109.1300   72.0830   55.8740 N.3    38  THR38      -0.1203
     46  CA       110.2320   71.1330   56.0090 C.3    38  THR38       0.1994
     47  C        111.2530   71.2250   54.8710 C.2    38  THR38       0.2617
     48  O        112.4400   70.9750   55.0810 O.2    38  THR38      -0.2717
     49  CB       109.7090   69.6830   56.0990 C.3    38  THR38       0.1784
     50  OG1      108.7580   69.4450   55.0540 O.3    38  THR38      -0.2211
     51  CG2      109.0430   69.4450   57.4460 C.3    38  THR38       0.0376
     52  N        110.8010   71.5880   53.6750 N.am   39  PHE39      -0.1975
     53  CA       111.7120   71.6880   52.5380 C.3    39  PHE39       0.1639
     54  C        112.4670   73.0110   52.5220 C.2    39  PHE39       0.2290
     55  O        113.5510   73.1020   51.9450 O.2    39  PHE39      -0.2864
     56  CB       110.9600   71.4860   51.2210 C.3    39  PHE39       0.0560
     57  CG       110.9030   70.0520   50.7820 C.ar   39  PHE39      -0.0200
     58  CD1      109.9360   69.1980   51.2850 C.ar   39  PHE39      -0.0042
     59  CD2      111.8290   69.5530   49.8850 C.ar   39  PHE39      -0.0042
     60  CE1      109.8870   67.8770   50.8890 C.ar   39  PHE39      -0.0003
     61  CE2      111.7860   68.2330   49.4860 C.ar   39  PHE39      -0.0003
     62  CZ       110.8140   67.3950   49.9900 C.ar   39  PHE39      -0.0000
     63  N        106.2800   64.0540   42.7230 N.3    75  TYR75      -0.1227
     64  CA       105.8770   62.8570   43.4510 C.3    75  TYR75       0.1736
     65  C        105.1770   63.2270   44.7580 C.2    75  TYR75       0.2595
     66  O        104.3480   62.4700   45.2580 O.2    75  TYR75      -0.2718
     67  CB       107.0850   61.9410   43.7060 C.3    75  TYR75       0.0548
     68  CG       107.8770   62.2420   44.9570 C.ar   75  TYR75      -0.0200
     69  CD1      108.9070   63.1730   44.9430 C.ar   75  TYR75      -0.0009
     70  CD2      107.6110   61.5760   46.1470 C.ar   75  TYR75      -0.0009
     71  CE1      109.6370   63.4440   46.0810 C.ar   75  TYR75       0.0417
     72  CE2      108.3320   61.8430   47.2890 C.ar   75  TYR75       0.0417
     73  CZ       109.3470   62.7740   47.2510 C.ar   75  TYR75       0.1957
     74  OH       110.0700   63.0420   48.3880 O.3    75  TYR75      -0.2866
     75  N        105.5000   64.4020   45.2940 N.am   76  HIS76      -0.1975
     76  CA       104.8100   64.9330   46.4700 C.3    76  HIS76       0.1656
     77  C        103.3430   65.2560   46.1870 C.2    76  HIS76       0.2291
     78  O        102.4570   64.8820   46.9530 O.2    76  HIS76      -0.2864
     79  CB       105.5120   66.1920   46.9760 C.3    76  HIS76       0.0771
     80  CG       106.4530   65.9460   48.1120 C.ar   76  HIS76       0.0820
     81  ND1      107.7850   65.6480   47.9240 N.ar   76  HIS76      -0.2267
     82  CD2      106.2540   65.9580   49.4510 C.ar   76  HIS76       0.1154
     83  CE1      108.3660   65.4840   49.0990 C.ar   76  HIS76       0.1986
     84  NE2      107.4600   65.6690   50.0420 N.ar   76  HIS76      -0.2212
     85  N        101.2280   62.0790   45.5040 N.3    79  TYR79      -0.1227
     86  CA       101.0580   61.2440   46.6820 C.3    79  TYR79       0.1736
     87  C        100.0430   61.8670   47.6390 C.2    79  TYR79       0.2595
     88  O         99.2610   61.1580   48.2740 O.2    79  TYR79      -0.2718
     89  CB       102.3900   61.0160   47.3910 C.3    79  TYR79       0.0548
     90  CG       102.2880   59.9920   48.4930 C.ar   79  TYR79      -0.0200
     91  CD1      101.9280   58.6800   48.2120 C.ar   79  TYR79      -0.0009
     92  CD2      102.5400   60.3350   49.8140 C.ar   79  TYR79      -0.0009
     93  CE1      101.8250   57.7370   49.2150 C.ar   79  TYR79       0.0417
     94  CE2      102.4410   59.3990   50.8250 C.ar   79  TYR79       0.0417
     95  CZ       102.0830   58.1020   50.5200 C.ar   79  TYR79       0.1957
     96  OH       101.9820   57.1680   51.5230 O.3    79  TYR79      -0.2866
     97  N        100.0520   63.1930   47.7330 N.am   80  PHE80      -0.1976
     98  CA        99.0690   63.9010   48.5490 C.3    80  PHE80       0.1639
     99  C         97.6750   63.7310   47.9540 C.2    80  PHE80       0.2290
    100  O         96.6860   63.6300   48.6800 O.2    80  PHE80      -0.2864
    101  CB        99.4200   65.3870   48.6670 C.3    80  PHE80       0.0560
    102  CG       100.7070   65.6490   49.3940 C.ar   80  PHE80      -0.0200
    103  CD1      101.2360   64.7020   50.2600 C.ar   80  PHE80      -0.0042
    104  CD2      101.3910   66.8400   49.2130 C.ar   80  PHE80      -0.0042
    105  CE1      102.4250   64.9370   50.9300 C.ar   80  PHE80      -0.0003
    106  CE2      102.5780   67.0810   49.8800 C.ar   80  PHE80      -0.0003
    107  CZ       103.0960   66.1280   50.7400 C.ar   80  PHE80      -0.0000
    108  N         99.9000   53.7140   50.2080 N.3    92  GLY92      -0.1225
    109  CA       101.2870   53.5070   50.5800 C.3    92  GLY92       0.1811
    110  C        101.8970   52.2930   49.9060 C.2    92  GLY92       0.2280
    111  O        103.0660   52.3150   49.5140 O.2    92  GLY92      -0.2866
    112  N        102.4000   53.1570   46.0770 N.3    95  ALA95      -0.1231
    113  CA       103.5660   54.0340   45.9800 C.3    95  ALA95       0.1694
    114  C        104.8740   53.2790   46.2120 C.2    95  ALA95       0.2592
    115  O        105.8960   53.5980   45.6020 O.2    95  ALA95      -0.2718
    116  CB       103.4480   55.1920   46.9650 C.3    95  ALA95       0.0304
    117  N        104.8450   52.2710   47.0800 N.am   96  TYR96      -0.1976
    118  CA       106.0720   51.5450   47.4050 C.3    96  TYR96       0.1639
    119  C        106.4160   50.4770   46.3710 C.2    96  TYR96       0.2290
    120  O        107.1530   49.5300   46.6500 O.2    96  TYR96      -0.2864
    121  CB       105.9890   50.9330   48.8060 C.3    96  TYR96       0.0560
    122  CG       106.9610   51.5970   49.7530 C.ar   96  TYR96      -0.0198
    123  CD1      108.3210   51.3270   49.6770 C.ar   96  TYR96      -0.0009
    124  CD2      106.5280   52.5180   50.6970 C.ar   96  TYR96      -0.0009
    125  CE1      109.2220   51.9400   50.5240 C.ar   96  TYR96       0.0417
    126  CE2      107.4240   53.1380   51.5530 C.ar   96  TYR96       0.0417
    127  CZ       108.7690   52.8440   51.4610 C.ar   96  TYR96       0.1957
    128  OH       109.6680   53.4530   52.3050 O.3    96  TYR96      -0.2866
    129  N        107.9460   51.8650   44.0470 N.3    98  TRP98      -0.1241
    130  CA       109.0700   52.6570   43.5420 C.3    98  TRP98       0.1605
    131  C        110.4590   52.0250   43.7250 C.2    98  TRP98       0.2264
    132  O        111.3380   52.2690   42.9010 O.2    98  TRP98      -0.2867
    133  CB       109.0660   54.0770   44.1450 C.3    98  TRP98       0.0550
    134  CG       109.4270   54.2500   45.6070 C.ar   98  TRP98       0.0003
    135  CD1      108.5570   54.3950   46.6490 C.ar   98  TRP98       0.0946
    136  CD2      110.7470   54.3560   46.1750 C.ar   98  TRP98       0.0152
    137  NE1      109.2450   54.5580   47.8260 N.ar   98  TRP98      -0.2442
    138  CE2      110.5890   54.5410   47.5660 C.ar   98  TRP98       0.0810
    139  CE3      112.0410   54.2960   45.6470 C.ar   98  TRP98       0.0012
    140  CZ2      111.6760   54.6710   48.4350 C.ar   98  TRP98       0.0191
    141  CZ3      113.1240   54.4260   46.5150 C.ar   98  TRP98       0.0001
    142  CH2      112.9310   54.6120   47.8920 C.ar   98  TRP98       0.0015
    143  N        103.0620   58.8290   41.5580 N.3   156  CYS156     -0.1235
    144  CA       104.0510   59.1860   42.5640 C.3   156  CYS156      0.1677
    145  C        105.2660   58.2660   42.5050 C.2   156  CYS156      0.2270
    146  O        106.4100   58.7250   42.5160 O.2   156  CYS156     -0.2867
    147  CB       103.4060   59.1350   43.9530 C.3   156  CYS156      0.0956
    148  SG       104.5500   59.0270   45.3270 S.3   156  CYS156     -0.0801
    149  N        109.0890   59.5580   41.2000 N.3   160  TRP160     -0.1241
    150  CA       110.2160   59.4390   42.1190 C.3   160  TRP160      0.1605
    151  C        111.2700   58.4630   41.5960 C.2   160  TRP160      0.2264
    152  O        112.4700   58.7050   41.7310 O.2   160  TRP160     -0.2867
    153  CB       109.7360   58.9980   43.5040 C.3   160  TRP160      0.0550
    154  CG       110.8630   58.6770   44.4370 C.ar  160  TRP160      0.0003
    155  CD1      111.2590   57.4380   44.8490 C.ar  160  TRP160      0.0946
    156  CD2      111.7540   59.6100   45.0610 C.ar  160  TRP160      0.0152
    157  NE1      112.3340   57.5420   45.6980 N.ar  160  TRP160     -0.2442
    158  CE2      112.6580   58.8650   45.8440 C.ar  160  TRP160      0.0810
    159  CE3      111.8710   61.0030   45.0370 C.ar  160  TRP160      0.0012
    160  CZ2      113.6680   59.4670   46.5950 C.ar  160  TRP160      0.0191
    161  CZ3      112.8710   61.5990   45.7840 C.ar  160  TRP160      0.0001
    162  CH2      113.7570   60.8320   46.5530 C.ar  160  TRP160      0.0015
    163  N        112.0880   66.6690   60.8060 N.3   213  LEU213     -0.1245
    164  CA       111.7870   66.2430   59.4460 C.3   213  LEU213      0.1561
    165  C        112.5800   67.0660   58.4360 C.2   213  LEU213      0.2260
    166  O        113.1010   66.5330   57.4590 O.2   213  LEU213     -0.2867
    167  CB       110.2890   66.3660   59.1610 C.3   213  LEU213      0.0270
    168  CG       109.3330   65.4330   59.9060 C.3   213  LEU213      0.0019
    169  CD1      107.8900   65.7400   59.5290 C.3   213  LEU213      0.0001
    170  CD2      109.6640   63.9790   59.6120 C.3   213  LEU213      0.0001
    171  N        115.1130   63.6820   57.3210 N.3   217  PRO217     -0.2102
    172  CA       114.4670   63.0600   56.1570 C.3   217  PRO217      0.1504
    173  C        114.3580   63.9770   54.9360 C.2   217  PRO217      0.2575
    174  O        113.8760   63.5390   53.8900 O.2   217  PRO217     -0.2718
    175  CB       113.0740   62.7040   56.6860 C.3   217  PRO217      0.0282
    176  CG       113.2590   62.5530   58.1540 C.3   217  PRO217      0.0208
    177  CD       114.2680   63.5980   58.5240 C.3   217  PRO217      0.0893
    178  N        114.7930   65.2270   55.0700 N.am  218  VAL218     -0.1980
    179  CA       114.8060   66.1600   53.9500 C.3   218  VAL218      0.1595
    180  C        116.1730   66.8220   53.7970 C.2   218  VAL218      0.2287
    181  O        116.8180   66.7070   52.7530 O.2   218  VAL218     -0.2864
    182  CB       113.7310   67.2560   54.1080 C.3   218  VAL218      0.0276
    183  CG1      113.8790   68.3000   53.0160 C.3   218  VAL218      0.0022
    184  CG2      112.3350   66.6490   54.0830 C.3   218  VAL218      0.0022
    185  N        117.8780   63.8340   51.0550 N.3   222  PHE222     -0.1241
    186  CA       117.8430   64.0830   49.6170 C.3   222  PHE222      0.1605
    187  C        119.2400   64.3050   49.0500 C.2   222  PHE222      0.2264
    188  O        119.5080   63.9720   47.8960 O.2   222  PHE222     -0.2867
    189  CB       116.9350   65.2710   49.2930 C.3   222  PHE222      0.0534
    190  CG       115.4750   64.9570   49.4310 C.ar  222  PHE222     -0.0203
    191  CD1      114.8410   64.1340   48.5140 C.ar  222  PHE222     -0.0042
    192  CD2      114.7380   65.4680   50.4850 C.ar  222  PHE222     -0.0042
    193  CE1      113.4980   63.8320   48.6430 C.ar  222  PHE222     -0.0003
    194  CE2      113.3950   65.1730   50.6180 C.ar  222  PHE222     -0.0003
    195  CZ       112.7740   64.3530   49.6960 C.ar  222  PHE222     -0.0000
@<TRIPOS>BOND
     1   149   150    1
     2   143   144    1
     3   151   152    2
     4   151   150    1
     5   150   153    1
     6   145   146    2
     7   145   144    1
     8   144   147    1
     9    63    64    1
    10   132   131    2
    11    64    67    1
    12    64    65    1
    13   153   154    1
    14   130   131    1
    15   130   129    1
    16   130   133    1
    17    67    68    1
    18   147   148    1
    19   133   134    1
    20   154   155   ar
    21   154   156   ar
    22    65    66    2
    23    65    75   am
    24   155   157   ar
    25    69    68   ar
    26    69    71   ar
    27    68    70   ar
    28   159   156   ar
    29   159   161   ar
    30   156   158   ar
    31    75    76    1
    32    85    86    1
    33   115   114    2
    34   134   136   ar
    35   134   135   ar
    36   139   136   ar
    37   139   141   ar
    38   157   158   ar
    39   161   162   ar
    40   158   160   ar
    41   113   112    1
    42   113   114    1
    43   113   116    1
    44    71    73   ar
    45    70    72   ar
    46   136   138   ar
    47    77    76    1
    48    77    78    2
    49   114   117   am
    50   119   120    2
    51   119   118    1
    52    76    79    1
    53   141   142   ar
    54   162   160   ar
    55   135   137   ar
    56    86    89    1
    57    86    87    1
    58    79    80    1
    59   117   118    1
    60    73    72   ar
    61    73    74    1
    62    89    90    1
    63   118   121    1
    64   138   137   ar
    65   138   140   ar
    66    87    97   am
    67    87    88    2
    68    97    98    1
    69   142   140   ar
    70   188   187    2
    71    81    80   ar
    72    81    83   ar
    73    99    98    1
    74    99   100    2
    75    80    82   ar
    76    91    90   ar
    77    91    93   ar
    78    90    92   ar
    79   191   193   ar
    80   191   190   ar
    81    98   101    1
    82   193   195   ar
    83   101   102    1
    84   121   122    1
    85   187   186    1
    86    83    84   ar
    87   104   102   ar
    88   104   106   ar
    89    93    95   ar
    90   189   190    1
    91   189   186    1
    92   102   103   ar
    93   190   192   ar
    94    82    84   ar
    95    14    13   ar
    96    14    12   ar
    97    61    59   ar
    98    61    62   ar
    99   111   110    2
   100   186   185    1
   101   123   122   ar
   102   123   125   ar
   103   195   194   ar
   104   122   124   ar
   105    92    94   ar
   106   106   107   ar
   107    59    57   ar
   108    13    11   ar
   109   110   109    1
   110    62    60   ar
   111   108   109    1
   112    12    10   ar
   113   103   105   ar
   114   192   194   ar
   115    44    42    1
   116    95    94   ar
   117    95    96    1
   118   125   127   ar
   119   124   126   ar
   120   107   105   ar
   121    57    56    1
   122    57    58   ar
   123    60    58   ar
   124    11     8   ar
   125    56    53    1
   126    10     8   ar
   127    10     9   ar
   128   127   126   ar
   129   127   128    1
   130    42    43    1
   131    42    39    1
   132     8     6   ar
   133    55    54    2
   134     9     7   ar
   135    54    53    1
   136    53    52    1
   137    28    27    1
   138    28    29    1
   139    41    40    2
   140    40    39    1
   141   181   180    2
   142    27    24    1
   143    39    38    1
   144   183   182    1
   145    25    26    2
   146    25    24    1
   147     6     7   ar
   148     6     5    1
   149    52    47   am
   150   180   179    1
   151    24    23    1
   152   174   173    2
   153    38    32   am
   154   179   182    1
   155   179   178    1
   156    29    23    1
   157   184   182    1
   158     5     2    1
   159    47    48    2
   160    47    46    1
   161   173   178   am
   162   173   172    1
   163    50    49    1
   164    21    20    1
   165    32    33    2
   166    32    31    1
   167    30    31    1
   168     2     1    1
   169     2     3    1
   170    45    46    1
   171    46    49    1
   172    49    51    1
   173    31    34    1
   174   172   175    1
   175   172   171    1
   176     3     4    2
   177    20    22    1
   178    20    19    1
   179    34    35    1
   180   175   176    1
   181   171   177    1
   182   166   165    2
   183    19    16    1
   184    35    37    1
   185    35    36    1
   186   176   177    1
   187   165   164    1
   188    16    15    1
   189    16    17    1
   190   167   164    1
   191   167   168    1
   192   164   163    1
   193   169   168    1
   194   170   168    1
   195    17    18    2
