@<TRIPOS>MOLECULE
tmp/5i20A01.pdb
 79 72 0 0 0
SMALL
GASTEIGER

@<TRIPOS>ATOM
      1  N        132.5170   53.6260   44.8820 N.3     2  ARG2       -0.1231
      2  CA       131.1690   53.1410   44.6170 C.3     2  ARG2        0.1694
      3  C        130.5000   52.5810   45.8680 C.2     2  ARG2        0.2592
      4  O        129.3190   52.8280   46.1090 O.2     2  ARG2       -0.2718
      5  CB       131.1910   52.0770   43.5240 C.3     2  ARG2        0.0321
      6  CG       129.8310   51.8140   42.9270 C.3     2  ARG2        0.0489
      7  CD       129.9000   50.8130   41.7970 C.3     2  ARG2        0.2205
      8  NE       128.7350   50.9280   40.9290 N.pl3   2  ARG2       -0.0865
      9  CZ       128.1990   49.9130   40.2630 C.cat   2  ARG2        0.5346
     10  NH1      127.1370   50.1110   39.4950 N.pl3   2  ARG2        0.1354
     11  NH2      128.7230   48.6990   40.3690 N.pl3   2  ARG2        0.1354
     12  N        131.2570   51.8210   46.6530 N.am    3  SER3       -0.1952
     13  CA       130.7560   51.2730   47.9080 C.3     3  SER3        0.1924
     14  C        130.4480   52.3790   48.9080 C.2     3  SER3        0.2314
     15  O        129.4800   52.2910   49.6630 O.2     3  SER3       -0.2863
     16  CB       131.7640   50.2950   48.5140 C.3     3  SER3        0.2116
     17  OG       131.8480   49.1070   47.7460 O.3     3  SER3       -0.2180
     18  N        127.3160   54.2310   47.7730 N.3     6  THR6       -0.1203
     19  CA       126.1990   53.3330   48.0310 C.3     6  THR6        0.1994
     20  C        125.8520   53.3420   49.5220 C.2     6  THR6        0.2617
     21  O        124.6830   53.4300   49.8910 O.2     6  THR6       -0.2717
     22  CB       126.5030   51.8920   47.5770 C.3     6  THR6        0.1784
     23  OG1      126.8940   51.8980   46.2000 O.3     6  THR6       -0.2211
     24  CG2      125.2740   51.0080   47.7460 C.3     6  THR6        0.0376
     25  N        126.8700   53.2640   50.3730 N.am    7  LEU7       -0.1979
     26  CA       126.6610   53.3140   51.8150 C.3     7  LEU7        0.1596
     27  C        126.0640   54.6650   52.2050 C.2     7  LEU7        0.2287
     28  O        125.1810   54.7410   53.0590 O.2     7  LEU7       -0.2864
     29  CB       127.9730   53.0670   52.5660 C.3     7  LEU7        0.0297
     30  CG       127.8430   52.5410   53.9990 C.3     7  LEU7        0.0022
     31  CD1      127.2830   51.1220   54.0040 C.3     7  LEU7        0.0001
     32  CD2      129.1750   52.5980   54.7410 C.3     7  LEU7        0.0001
     33  N        122.4600   54.8130   51.4170 N.3    10  PHE10      -0.1241
     34  CA       121.6760   54.0220   52.3560 C.3    10  PHE10       0.1605
     35  C        121.2830   54.8310   53.5900 C.2    10  PHE10       0.2264
     36  O        120.3660   54.4500   54.3220 O.2    10  PHE10      -0.2867
     37  CB       122.4400   52.7650   52.7760 C.3    10  PHE10       0.0534
     38  CG       121.6390   51.8420   53.6460 C.ar   10  PHE10      -0.0203
     39  CD1      120.5410   51.1710   53.1340 C.ar   10  PHE10      -0.0042
     40  CD2      121.9720   51.6530   54.9760 C.ar   10  PHE10      -0.0042
     41  CE1      119.7910   50.3230   53.9300 C.ar   10  PHE10      -0.0003
     42  CE2      121.2260   50.8050   55.7770 C.ar   10  PHE10      -0.0003
     43  CZ       120.1340   50.1400   55.2520 C.ar   10  PHE10      -0.0000
     44  N        125.6600   52.4660   43.7830 N.3   233  ASP233     -0.1239
     45  CA       125.0300   51.3720   43.0580 C.3   233  ASP233      0.1674
     46  C        123.5130   51.5400   43.0710 C.2   233  ASP233      0.2266
     47  O        122.8480   51.2000   44.0510 O.2   233  ASP233     -0.2867
     48  CB       125.4330   50.0300   43.6740 C.3   233  ASP233      0.1410
     49  CG       125.1430   48.8570   42.7630 C.2   233  ASP233      0.3668
     50  OD1      124.1980   48.9410   41.9540 O.co2 233  ASP233     -0.2456
     51  OD2      125.8640   47.8430   42.8550 O.co2 233  ASP233     -0.2456
     52  N        121.2700   48.4010   43.5250 N.3   236  LEU236     -0.1245
     53  CA       121.3620   47.9110   44.8930 C.3   236  LEU236      0.1561
     54  C        120.5850   48.8030   45.8590 C.2   236  LEU236      0.2260
     55  O        119.8990   48.3060   46.7550 O.2   236  LEU236     -0.2867
     56  CB       122.8260   47.8080   45.3260 C.3   236  LEU236      0.0270
     57  CG       123.0740   47.1510   46.6850 C.3   236  LEU236      0.0019
     58  CD1      122.3590   45.8120   46.7660 C.3   236  LEU236      0.0001
     59  CD2      124.5650   46.9770   46.9220 C.3   236  LEU236      0.0001
     60  N        117.7380   47.9030   48.4670 N.3   240  LEU240     -0.1245
     61  CA       117.8650   48.2670   49.8750 C.3   240  LEU240      0.1561
     62  C        116.7580   49.1980   50.3590 C.2   240  LEU240      0.2260
     63  O        116.5210   49.3060   51.5600 O.2   240  LEU240     -0.2867
     64  CB       119.2250   48.9150   50.1270 C.3   240  LEU240      0.0270
     65  CG       120.4360   48.0040   49.9280 C.3   240  LEU240      0.0019
     66  CD1      121.7270   48.7890   50.0720 C.3   240  LEU240      0.0001
     67  CD2      120.3970   46.8330   50.9030 C.3   240  LEU240      0.0001
     68  N        118.3940   41.5300   50.3620 N.3   275  ALA275     -0.1245
     69  CA       119.6080   42.3330   50.3140 C.3   275  ALA275      0.1562
     70  C        120.8330   41.4450   50.1300 C.2   275  ALA275      0.2260
     71  O        121.7760   41.8150   49.4330 O.2   275  ALA275     -0.2867
     72  CB       119.7460   43.1720   51.5790 C.3   275  ALA275      0.0290
     73  N        123.4040   41.5530   46.9540 N.3   279  THR279     -0.1218
     74  CA       124.7360   42.0600   47.2620 C.3   279  THR279      0.1862
     75  C        125.7980   40.9650   47.1900 C.2   279  THR279      0.2287
     76  O        126.7930   41.1000   46.4820 O.2   279  THR279     -0.2866
     77  CB       124.7860   42.7030   48.6580 C.3   279  THR279      0.1770
     78  OG1      123.7280   43.6610   48.7850 O.3   279  THR279     -0.2211
     79  CG2      126.1210   43.4030   48.8760 C.3   279  THR279      0.0375
@<TRIPOS>BOND
     1    10     9    1
     2     9    11    1
     3     9     8    2
     4     8     7    1
     5     7     6    1
     6    50    49   ar
     7    49    51   ar
     8    49    48    1
     9     6     5    1
    10    45    46    1
    11    45    48    1
    12    45    44    1
    13    46    47    2
    14     5     2    1
    15    52    53    1
    16     2     1    1
    17     2     3    1
    18    53    56    1
    19    53    54    1
    20    56    57    1
    21    54    55    2
    22     3     4    2
    23     3    12   am
    24    23    22    1
    25    76    75    2
    26    12    13    1
    27    57    58    1
    28    57    59    1
    29    73    74    1
    30    75    74    1
    31    74    77    1
    32    22    24    1
    33    22    19    1
    34    17    16    1
    35    18    19    1
    36    13    16    1
    37    13    14    1
    38    19    20    1
    39    60    61    1
    40    77    78    1
    41    77    79    1
    42    14    15    2
    43    71    70    2
    44    20    21    2
    45    20    25   am
    46    61    64    1
    47    61    62    1
    48    65    66    1
    49    65    64    1
    50    65    67    1
    51    70    69    1
    52    69    68    1
    53    69    72    1
    54    62    63    2
    55    25    26    1
    56    33    34    1
    57    26    27    1
    58    26    29    1
    59    27    28    2
    60    34    37    1
    61    34    35    1
    62    29    30    1
    63    37    38    1
    64    39    38   ar
    65    39    41   ar
    66    35    36    2
    67    38    40   ar
    68    41    43   ar
    69    30    31    1
    70    30    32    1
    71    40    42   ar
    72    43    42   ar
