@<TRIPOS>MOLECULE
tmp/5i20E04.pdb
 82 79 0 0 0
SMALL
GASTEIGER

@<TRIPOS>ATOM
      1  N         79.3070   31.7650   25.4480 N.3    65  PRO65      -0.2116
      2  CA        80.3340   32.2740   26.3700 C.3    65  PRO65       0.1372
      3  C         81.2980   31.2000   26.8780 C.2    65  PRO65       0.2244
      4  O         82.4600   31.5050   27.1450 O.2    65  PRO65      -0.2868
      5  CB        79.5110   32.8460   27.5270 C.3    65  PRO65       0.0268
      6  CG        78.2190   33.2240   26.9080 C.3    65  PRO65       0.0207
      7  CD        77.9530   32.1740   25.8740 C.3    65  PRO65       0.0892
      8  N         83.8520   30.5680   23.9840 N.3    68  VAL68      -0.1231
      9  CA        84.7440   31.7150   23.8560 C.3    68  VAL68       0.1692
     10  C         85.8050   31.6580   24.9440 C.2    68  VAL68       0.2592
     11  O         86.9850   31.9170   24.7010 O.2    68  VAL68      -0.2718
     12  CB        83.9760   33.0460   23.9490 C.3    68  VAL68       0.0266
     13  CG1       84.9410   34.2150   24.1040 C.3    68  VAL68       0.0020
     14  CG2       83.0940   33.2320   22.7280 C.3    68  VAL68       0.0020
     15  N         85.3680   31.3000   26.1460 N.am   69  HIS69      -0.1976
     16  CA        86.2580   31.1540   27.2870 C.3    69  HIS69       0.1656
     17  C         87.3320   30.0980   27.0420 C.2    69  HIS69       0.2291
     18  O         88.5250   30.3680   27.1760 O.2    69  HIS69      -0.2864
     19  CB        85.4540   30.7950   28.5400 C.3    69  HIS69       0.0771
     20  CG        86.2800   30.1940   29.6320 C.ar   69  HIS69       0.0820
     21  ND1       87.1000   30.9470   30.4450 N.ar   69  HIS69      -0.2267
     22  CD2       86.4240   28.9100   30.0380 C.ar   69  HIS69       0.1154
     23  CE1       87.7090   30.1530   31.3080 C.ar   69  HIS69       0.1986
     24  NE2       87.3150   28.9120   31.0830 N.ar   69  HIS69      -0.2212
     25  N         89.1810   30.6190   23.2520 N.3    72  GLY72      -0.1210
     26  CA        89.9330   31.8590   23.3300 C.3    72  GLY72       0.1956
     27  C         91.0520   31.7690   24.3500 C.2    72  GLY72       0.2612
     28  O         92.0970   32.4080   24.2040 O.2    72  GLY72      -0.2717
     29  N         90.8340   30.9610   25.3830 N.am   73  GLY73      -0.1956
     30  CA        91.8260   30.7520   26.4180 C.3    73  GLY73       0.1869
     31  C         92.9370   29.7970   26.0300 C.2    73  GLY73       0.2309
     32  O         94.1110   30.1550   26.0910 O.2    73  GLY73      -0.2863
     33  N         98.8640   36.9200   30.3020 N.3   160  VAL160     -0.1231
     34  CA        97.5730   37.5090   30.6400 C.3   160  VAL160      0.1692
     35  C         96.4200   36.5930   30.2230 C.2   160  VAL160      0.2591
     36  O         95.5300   36.3170   31.0220 O.2   160  VAL160     -0.2718
     37  CB        97.3970   38.9000   29.9920 C.3   160  VAL160      0.0266
     38  CG1       95.9660   39.3910   30.1550 C.3   160  VAL160      0.0020
     39  CG2       98.3740   39.8940   30.6060 C.3   160  VAL160      0.0020
     40  N         96.4500   36.1070   28.9840 N.am  161  ILE161     -0.1980
     41  CA        95.3880   35.2320   28.4800 C.3   161  ILE161      0.1595
     42  C         95.2640   33.9310   29.2880 C.2   161  ILE161      0.2287
     43  O         94.1610   33.5330   29.6600 O.2   161  ILE161     -0.2864
     44  CB        95.6020   34.8800   26.9860 C.3   161  ILE161      0.0276
     45  CG1       95.4520   36.1320   26.1210 C.3   161  ILE161      0.0022
     46  CG2       94.6060   33.8260   26.5250 C.3   161  ILE161      0.0022
     47  CD1       95.5960   35.8740   24.6340 C.3   161  ILE161      0.0001
     48  N         93.9970   34.8270   32.8250 N.3   164  VAL164     -0.1231
     49  CA        92.5960   35.2450   32.7890 C.3   164  VAL164      0.1692
     50  C         91.7050   34.0290   32.5600 C.2   164  VAL164      0.2592
     51  O         90.6670   33.8820   33.2010 O.2   164  VAL164     -0.2718
     52  CB        92.3280   36.3050   31.6960 C.3   164  VAL164      0.0266
     53  CG1       90.8290   36.4760   31.4610 C.3   164  VAL164      0.0020
     54  CG2       92.9480   37.6380   32.0850 C.3   164  VAL164      0.0020
     55  N         92.1240   33.1540   31.6530 N.am  165  TYR165     -0.1976
     56  CA        91.4160   31.9020   31.4160 C.3   165  TYR165      0.1639
     57  C         91.3090   31.0630   32.6820 C.2   165  TYR165      0.2290
     58  O         90.2780   30.4480   32.9450 O.2   165  TYR165     -0.2864
     59  CB        92.1140   31.0760   30.3310 C.3   165  TYR165      0.0560
     60  CG        91.6920   29.6230   30.3440 C.ar  165  TYR165     -0.0198
     61  CD1       90.5110   29.2210   29.7380 C.ar  165  TYR165     -0.0009
     62  CD2       92.4620   28.6560   30.9820 C.ar  165  TYR165     -0.0009
     63  CE1       90.1110   27.9020   29.7580 C.ar  165  TYR165      0.0417
     64  CE2       92.0690   27.3320   31.0090 C.ar  165  TYR165      0.0417
     65  CZ        90.8930   26.9600   30.3930 C.ar  165  TYR165      0.1957
     66  OH        90.4970   25.6420   30.4070 O.3   165  TYR165     -0.2866
     67  N         89.0060   32.9460   35.2330 N.3   168  ALA168     -0.1245
     68  CA        87.6300   33.0270   34.7430 C.3   168  ALA168      0.1562
     69  C         86.9230   31.6740   34.7900 C.2   168  ALA168      0.2260
     70  O         85.7000   31.6050   34.6920 O.2   168  ALA168     -0.2867
     71  CB        87.5970   33.5860   33.3270 C.3   168  ALA168      0.0290
     72  N         82.7660   29.8360   35.6380 N.3   172  PHE172     -0.1241
     73  CA        82.1100   28.7660   34.8900 C.3   172  PHE172      0.1605
     74  C         82.1380   27.4640   35.6870 C.2   172  PHE172      0.2264
     75  O         82.1570   26.3770   35.1130 O.2   172  PHE172     -0.2867
     76  CB        82.7760   28.5610   33.5240 C.3   172  PHE172      0.0534
     77  CG        82.7060   29.7640   32.6210 C.ar  172  PHE172     -0.0203
     78  CD1       81.5630   30.0310   31.8840 C.ar  172  PHE172     -0.0042
     79  CD2       83.7840   30.6210   32.5060 C.ar  172  PHE172     -0.0042
     80  CE1       81.4990   31.1350   31.0550 C.ar  172  PHE172     -0.0003
     81  CE2       83.7240   31.7250   31.6800 C.ar  172  PHE172     -0.0003
     82  CZ        82.5800   31.9820   30.9530 C.ar  172  PHE172     -0.0000
@<TRIPOS>BOND
     1    14    12    1
     2    25    26    1
     3    26    27    1
     4     9    12    1
     5     9     8    1
     6     9    10    1
     7    12    13    1
     8    28    27    2
     9    27    29   am
    10    47    45    1
    11    11    10    2
    12    10    15   am
    13    29    30    1
    14     1     7    1
    15     1     2    1
    16     7     6    1
    17    31    32    2
    18    31    30    1
    19    45    44    1
    20    15    16    1
    21     2     3    1
    22     2     5    1
    23    46    44    1
    24     3     4    2
    25     6     5    1
    26    44    41    1
    27    17    18    2
    28    17    16    1
    29    16    19    1
    30    41    40    1
    31    41    42    1
    32    19    20    1
    33    40    35   am
    34    42    43    2
    35    20    22   ar
    36    20    21   ar
    37    61    63   ar
    38    61    60   ar
    39    63    65   ar
    40    37    38    1
    41    37    39    1
    42    37    34    1
    43    22    24   ar
    44    35    34    1
    45    35    36    2
    46    33    34    1
    47    59    60    1
    48    59    56    1
    49    60    62   ar
    50    65    66    1
    51    65    64   ar
    52    21    23   ar
    53    82    80   ar
    54    82    81   ar
    55    62    64   ar
    56    80    78   ar
    57    24    23   ar
    58    56    55    1
    59    56    57    1
    60    53    52    1
    61    55    50   am
    62    81    79   ar
    63    52    54    1
    64    52    49    1
    65    78    77   ar
    66    79    77   ar
    67    50    49    1
    68    50    51    2
    69    77    76    1
    70    57    58    2
    71    49    48    1
    72    71    68    1
    73    76    73    1
    74    70    69    2
    75    68    69    1
    76    68    67    1
    77    73    72    1
    78    73    74    1
    79    75    74    2
