@<TRIPOS>MOLECULE
tmp/5i20E05.pdb
 82 75 0 0 0
SMALL
GASTEIGER

@<TRIPOS>ATOM
      1  N         87.3620   21.9960   49.0590 N.3     2  ARG2       -0.1231
      2  CA        88.2470   23.0070   48.4900 C.3     2  ARG2        0.1694
      3  C         89.7030   22.5660   48.6040 C.2     2  ARG2        0.2592
      4  O         90.5210   22.8500   47.7260 O.2     2  ARG2       -0.2718
      5  CB        88.0430   24.3560   49.1880 C.3     2  ARG2        0.0321
      6  CG        88.9330   25.4780   48.6970 C.3     2  ARG2        0.0489
      7  CD        88.6230   26.8010   49.4160 C.3     2  ARG2        0.2205
      8  NE        89.2200   27.9210   48.7030 N.pl3   2  ARG2       -0.0865
      9  CZ        89.1740   29.1900   49.1000 C.cat   2  ARG2        0.5346
     10  NH1       88.5440   29.5260   50.2220 N.pl3   2  ARG2        0.1354
     11  NH2       89.7750   30.1350   48.3790 N.pl3   2  ARG2        0.1354
     12  N         90.0140   21.8640   49.6890 N.am    3  SER3       -0.1952
     13  CA        91.3560   21.3420   49.9240 C.3     3  SER3        0.1924
     14  C         91.7090   20.2260   48.9460 C.2     3  SER3        0.2314
     15  O         92.8090   20.1950   48.3940 O.2     3  SER3       -0.2863
     16  CB        91.4890   20.8180   51.3550 C.3     3  SER3        0.2116
     17  OG        91.1930   21.8230   52.3060 O.3     3  SER3       -0.2180
     18  N         92.2430   21.4950   45.4010 N.3     6  THR6       -0.1203
     19  CA        93.5320   22.1700   45.2850 C.3     6  THR6        0.1994
     20  C         94.6470   21.1540   45.0770 C.2     6  THR6        0.2617
     21  O         95.5810   21.3810   44.3030 O.2     6  THR6       -0.2717
     22  CB        93.8420   23.0130   46.5370 C.3     6  THR6        0.1784
     23  OG1       92.8240   24.0060   46.7140 O.3     6  THR6       -0.2211
     24  CG2       95.1960   23.6980   46.4060 C.3     6  THR6        0.0376
     25  N         94.5350   20.0340   45.7820 N.am    7  LEU7       -0.1979
     26  CA        95.4980   18.9460   45.6770 C.3     7  LEU7        0.1596
     27  C         95.6170   18.4330   44.2440 C.2     7  LEU7        0.2287
     28  O         96.7160   18.3390   43.7000 O.2     7  LEU7       -0.2864
     29  CB        95.1070   17.8000   46.6090 C.3     7  LEU7        0.0297
     30  CG        95.8090   16.4670   46.3420 C.3     7  LEU7        0.0022
     31  CD1       97.3010   16.5650   46.6340 C.3     7  LEU7        0.0001
     32  CD2       95.1610   15.3520   47.1510 C.3     7  LEU7        0.0001
     33  N         97.1960   20.6790   41.7460 N.3    10  PHE10      -0.1241
     34  CA        98.6530   20.6630   41.7820 C.3    10  PHE10       0.1605
     35  C         99.2230   19.5820   40.8650 C.2    10  PHE10       0.2264
     36  O        100.3810   19.6640   40.4550 O.2    10  PHE10      -0.2867
     37  CB        99.1430   20.4610   43.2230 C.3    10  PHE10       0.0534
     38  CG       100.6400   20.4950   43.3720 C.ar   10  PHE10      -0.0203
     39  CD1      101.3460   21.6740   43.1820 C.ar   10  PHE10      -0.0042
     40  CD2      101.3390   19.3510   43.7140 C.ar   10  PHE10      -0.0042
     41  CE1      102.7250   21.7070   43.3210 C.ar   10  PHE10      -0.0003
     42  CE2      102.7140   19.3770   43.8580 C.ar   10  PHE10      -0.0003
     43  CZ       103.4090   20.5580   43.6610 C.ar   10  PHE10      -0.0000
     44  N        102.5120   19.4850   38.3950 N.3    14  LEU14      -0.1245
     45  CA       103.4540   18.3750   38.3710 C.3    14  LEU14       0.1561
     46  C        103.7180   17.8780   36.9530 C.2    14  LEU14       0.2260
     47  O        104.8690   17.7410   36.5410 O.2    14  LEU14      -0.2867
     48  CB       102.9340   17.2260   39.2390 C.3    14  LEU14       0.0270
     49  CG       102.9440   17.5130   40.7400 C.3    14  LEU14       0.0019
     50  CD1      102.2090   16.4330   41.5210 C.3    14  LEU14       0.0001
     51  CD2      104.3810   17.6440   41.2230 C.3    14  LEU14       0.0001
     52  N         91.4850   26.2000   45.6160 N.3   235  ASP235     -0.1239
     53  CA        91.9540   27.5190   46.0240 C.3   235  ASP235      0.1674
     54  C         92.7940   28.1350   44.9090 C.2   235  ASP235      0.2266
     55  O         93.9460   27.7550   44.6980 O.2   235  ASP235     -0.2867
     56  CB        92.7590   27.4260   47.3250 C.3   235  ASP235      0.1410
     57  CG        92.9590   28.7770   47.9910 C.2   235  ASP235      0.3668
     58  OD1       92.9110   29.8120   47.2920 O.co2 235  ASP235     -0.2456
     59  OD2       93.1690   28.8040   49.2220 O.co2 235  ASP235     -0.2456
     60  N         96.1200   30.0680   45.8240 N.3   238  LEU238     -0.1245
     61  CA        97.1290   29.1200   46.2920 C.3   238  LEU238      0.1561
     62  C         97.7660   28.3810   45.1160 C.2   238  LEU238      0.2260
     63  O         98.9890   28.2360   45.0550 O.2   238  LEU238     -0.2867
     64  CB        96.5200   28.1220   47.2810 C.3   238  LEU238      0.0270
     65  CG        97.5060   27.1910   47.9920 C.3   238  LEU238      0.0019
     66  CD1       98.5800   27.9990   48.7010 C.3   238  LEU238      0.0001
     67  CD2       96.7890   26.2820   48.9780 C.3   238  LEU238      0.0001
     68  N        101.6050   28.1150   43.8990 N.3   242  LEU242     -0.1245
     69  CA       102.2660   26.8220   43.7490 C.3   242  LEU242      0.1561
     70  C        102.7270   26.5720   42.3120 C.2   242  LEU242      0.2260
     71  O        103.5560   25.6980   42.0640 O.2   242  LEU242     -0.2867
     72  CB       101.3370   25.6930   44.2110 C.3   242  LEU242      0.0270
     73  CG       100.9160   25.6710   45.6890 C.3   242  LEU242      0.0019
     74  CD1       99.9160   24.5520   45.9600 C.3   242  LEU242      0.0001
     75  CD2      102.1190   25.5380   46.6100 C.3   242  LEU242      0.0001
     76  N        100.4470   29.0910   52.3530 N.3   281  THR281     -0.1218
     77  CA        99.5800   28.0000   52.7870 C.3   281  THR281      0.1862
     78  C         99.3490   28.0190   54.2910 C.2   281  THR281      0.2287
     79  O         98.2110   27.9880   54.7550 O.2   281  THR281     -0.2866
     80  CB       100.1610   26.6280   52.4010 C.3   281  THR281      0.1770
     81  OG1      100.8940   26.7440   51.1750 O.3   281  THR281     -0.2211
     82  CG2       99.0500   25.6030   52.2330 C.3   281  THR281      0.0375
@<TRIPOS>BOND
     1    47    46    2
     2    46    45    1
     3    45    44    1
     4    45    48    1
     5    48    49    1
     6    36    35    2
     7    49    51    1
     8    49    50    1
     9    35    34    1
    10    33    34    1
    11    34    37    1
    12    71    70    2
    13    70    69    1
    14    39    41   ar
    15    39    38   ar
    16    37    38    1
    17    41    43   ar
    18    38    40   ar
    19    43    42   ar
    20    28    27    2
    21    40    42   ar
    22    69    68    1
    23    69    72    1
    24    72    73    1
    25    27    26    1
    26    21    20    2
    27    55    54    2
    28    54    53    1
    29    63    62    2
    30    20    19    1
    31    20    25   am
    32    62    61    1
    33    19    18    1
    34    19    22    1
    35    52    53    1
    36    26    25    1
    37    26    29    1
    38    73    74    1
    39    73    75    1
    40    60    61    1
    41    53    56    1
    42    61    64    1
    43    30    29    1
    44    30    31    1
    45    30    32    1
    46    24    22    1
    47    22    23    1
    48    64    65    1
    49    58    57   ar
    50    56    57    1
    51     4     3    2
    52    57    59   ar
    53    65    66    1
    54    65    67    1
    55    11     9    1
    56    15    14    2
    57     2     3    1
    58     2     1    1
    59     2     5    1
    60     3    12   am
    61     6     5    1
    62     6     7    1
    63     8     9    2
    64     8     7    1
    65    14    13    1
    66     9    10    1
    67    12    13    1
    68    13    16    1
    69    81    80    1
    70    16    17    1
    71    82    80    1
    72    76    77    1
    73    80    77    1
    74    77    78    1
    75    78    79    2
