@<TRIPOS>MOLECULE
tmp/5i20E00.pdb
 91 83 0 0 0
SMALL
GASTEIGER

@<TRIPOS>ATOM
      1  N        110.5660   33.6990   30.2940 N.3    95  LEU95      -0.1231
      2  CA       110.6200   34.3850   31.5790 C.3    95  LEU95       0.1693
      3  C        109.4580   35.3640   31.7210 C.2    95  LEU95       0.2591
      4  O        108.7850   35.3950   32.7520 O.2    95  LEU95      -0.2718
      5  CB       111.9540   35.1160   31.7510 C.3    95  LEU95       0.0284
      6  CG       112.1100   35.8960   33.0590 C.3    95  LEU95       0.0019
      7  CD1      111.7670   35.0140   34.2540 C.3    95  LEU95       0.0001
      8  CD2      113.5140   36.4480   33.1960 C.3    95  LEU95       0.0001
      9  N        109.2290   36.1580   30.6780 N.am   96  VAL96      -0.1980
     10  CA       108.1240   37.1110   30.6570 C.3    96  VAL96       0.1595
     11  C        106.7810   36.3920   30.7430 C.2    96  VAL96       0.2287
     12  O        105.8530   36.8570   31.4060 O.2    96  VAL96      -0.2864
     13  CB       108.1500   37.9780   29.3810 C.3    96  VAL96       0.0276
     14  CG1      106.9750   38.9490   29.3710 C.3    96  VAL96       0.0022
     15  CG2      109.4650   38.7330   29.2860 C.3    96  VAL96       0.0022
     16  N        105.1010   35.3610   34.2010 N.3    99  LEU99      -0.1245
     17  CA       104.3980   36.2600   35.1010 C.3    99  LEU99       0.1561
     18  C        103.0460   35.6660   35.4700 C.2    99  LEU99       0.2260
     19  O        102.4220   36.0900   36.4420 O.2    99  LEU99      -0.2867
     20  CB       104.2140   37.6370   34.4650 C.3    99  LEU99       0.0270
     21  CG       105.4990   38.4570   34.3620 C.3    99  LEU99       0.0019
     22  CD1      105.2900   39.6770   33.4760 C.3    99  LEU99       0.0001
     23  CD2      105.9520   38.8720   35.7520 C.3    99  LEU99       0.0001
     24  N        101.8180   34.7820   39.0430 N.3   102  LEU102     -0.1245
     25  CA       101.5740   36.0010   39.8060 C.3   102  LEU102      0.1561
     26  C        100.2600   36.6490   39.3780 C.2   102  LEU102      0.2260
     27  O         99.5120   37.1670   40.2100 O.2   102  LEU102     -0.2867
     28  CB       102.7320   36.9940   39.6340 C.3   102  LEU102      0.0270
     29  CG       102.5390   38.3870   40.2450 C.3   102  LEU102      0.0019
     30  CD1      102.2820   38.2980   41.7450 C.3   102  LEU102      0.0001
     31  CD2      103.7370   39.2810   39.9590 C.3   102  LEU102      0.0001
     32  N         96.9610   37.7780   41.4710 N.3   106  LEU106     -0.1245
     33  CA        96.4430   39.1410   41.4120 C.3   106  LEU106      0.1561
     34  C         95.0120   39.1720   40.8580 C.2   106  LEU106      0.2260
     35  O         94.1420   39.8190   41.4370 O.2   106  LEU106     -0.2867
     36  CB        97.3690   40.0320   40.5760 C.3   106  LEU106      0.0270
     37  CG        98.7650   40.2180   41.1850 C.3   106  LEU106      0.0019
     38  CD1       99.6420   41.1430   40.3420 C.3   106  LEU106      0.0001
     39  CD2       98.6590   40.7250   42.6180 C.3   106  LEU106      0.0001
     40  N        100.0160   37.1190   47.8220 N.3   121  VAL121     -0.1245
     41  CA       100.7930   38.0120   46.9740 C.3   121  VAL121      0.1561
     42  C        102.2890   37.8900   47.2740 C.2   121  VAL121      0.2260
     43  O        103.1100   37.8480   46.3630 O.2   121  VAL121     -0.2867
     44  CB       100.3380   39.4760   47.1470 C.3   121  VAL121      0.0252
     45  CG1      101.1460   40.4010   46.2490 C.3   121  VAL121      0.0019
     46  CG2       98.8510   39.6010   46.8380 C.3   121  VAL121      0.0019
     47  N        105.1990   36.4640   44.8390 N.3   125  LEU125     -0.1245
     48  CA       106.3690   37.2970   44.5750 C.3   125  LEU125      0.1561
     49  C        107.6660   36.5360   44.8480 C.2   125  LEU125      0.2260
     50  O        108.6350   36.6700   44.0990 O.2   125  LEU125     -0.2867
     51  CB       106.3180   38.5770   45.4140 C.3   125  LEU125      0.0270
     52  CG       105.3230   39.6280   44.9110 C.3   125  LEU125      0.0019
     53  CD1      105.2470   40.8260   45.8590 C.3   125  LEU125      0.0001
     54  CD2      105.6920   40.0760   43.5040 C.3   125  LEU125      0.0001
     55  N        108.1720   34.1380   41.9700 N.3   128  LEU128     -0.1245
     56  CA       108.6380   34.8440   40.7840 C.3   128  LEU128      0.1561
     57  C        110.1140   35.1930   40.9440 C.2   128  LEU128      0.2260
     58  O        110.8870   35.1040   39.9870 O.2   128  LEU128     -0.2867
     59  CB       107.8080   36.1080   40.5260 C.3   128  LEU128      0.0270
     60  CG       108.2740   36.9900   39.3620 C.3   128  LEU128      0.0019
     61  CD1      108.4440   36.1730   38.0880 C.3   128  LEU128      0.0001
     62  CD2      107.3150   38.1530   39.1260 C.3   128  LEU128      0.0001
     63  N        112.9640   34.0710   38.2910 N.3   132  VAL132     -0.1245
     64  CA       113.8930   35.0330   37.6960 C.3   132  VAL132      0.1561
     65  C        115.3500   34.6150   37.9030 C.2   132  VAL132      0.2260
     66  O        116.1710   34.7110   36.9860 O.2   132  VAL132     -0.2867
     67  CB       113.6810   36.4530   38.2780 C.3   132  VAL132      0.0252
     68  CG1      114.8110   37.3860   37.8720 C.3   132  VAL132      0.0019
     69  CG2      112.3390   37.0120   37.8310 C.3   132  VAL132      0.0019
     70  N        119.4220   36.7650   30.7330 N.3   142  PHE142     -0.1241
     71  CA       118.7580   37.9720   31.1990 C.3   142  PHE142      0.1605
     72  C        119.1010   39.1810   30.3320 C.2   142  PHE142      0.2264
     73  O        118.9760   40.3270   30.7680 O.2   142  PHE142     -0.2867
     74  CB       119.1520   38.2310   32.6530 C.3   142  PHE142      0.0534
     75  CG       118.1390   39.0090   33.4340 C.ar  142  PHE142     -0.0203
     76  CD1      116.9080   38.4530   33.7400 C.ar  142  PHE142     -0.0042
     77  CD2      118.4290   40.2850   33.8900 C.ar  142  PHE142     -0.0042
     78  CE1      115.9780   39.1620   34.4700 C.ar  142  PHE142     -0.0003
     79  CE2      117.5010   41.0000   34.6230 C.ar  142  PHE142     -0.0003
     80  CZ       116.2730   40.4370   34.9130 C.ar  142  PHE142     -0.0000
     81  N        118.2040   41.5880   27.6580 N.3   144  PHE144     -0.1241
     82  CA       117.0440   42.1110   26.9470 C.3   144  PHE144      0.1605
     83  C        117.4230   43.2210   25.9640 C.2   144  PHE144      0.2264
     84  O        118.2970   44.0420   26.2430 O.2   144  PHE144     -0.2867
     85  CB       116.0000   42.6110   27.9500 C.3   144  PHE144      0.0534
     86  CG       115.2780   41.5040   28.6760 C.ar  144  PHE144     -0.0203
     87  CD1      115.9240   40.7480   29.6440 C.ar  144  PHE144     -0.0042
     88  CD2      113.9520   41.2200   28.3890 C.ar  144  PHE144     -0.0042
     89  CE1      115.2590   39.7270   30.3060 C.ar  144  PHE144     -0.0003
     90  CE2      113.2810   40.2010   29.0490 C.ar  144  PHE144     -0.0003
     91  CZ       113.9350   39.4550   30.0070 C.ar  144  PHE144     -0.0000
@<TRIPOS>BOND
     1    83    84    2
     2    83    82    1
     3    82    81    1
     4    82    85    1
     5    85    86    1
     6    88    86   ar
     7    88    90   ar
     8    86    87   ar
     9    90    91   ar
    10    15    13    1
    11    14    13    1
    12    13    10    1
    13    87    89   ar
    14    91    89   ar
    15     1     2    1
    16    72    73    2
    17    72    71    1
    18    10     9    1
    19    10    11    1
    20     9     3   am
    21    70    71    1
    22    11    12    2
    23    71    74    1
    24     2     3    1
    25     2     5    1
    26     3     4    2
    27     5     6    1
    28    74    75    1
    29     6     8    1
    30     6     7    1
    31    75    76   ar
    32    75    77   ar
    33    22    21    1
    34    76    78   ar
    35    77    79   ar
    36    16    17    1
    37    21    20    1
    38    21    23    1
    39    20    17    1
    40    78    80   ar
    41    79    80   ar
    42    17    18    1
    43    18    19    2
    44    66    65    2
    45    64    65    1
    46    64    67    1
    47    64    63    1
    48    69    67    1
    49    68    67    1
    50    61    60    1
    51    24    25    1
    52    62    60    1
    53    60    59    1
    54    26    25    1
    55    26    27    2
    56    28    25    1
    57    28    29    1
    58    31    29    1
    59    58    57    2
    60    29    30    1
    61    38    37    1
    62    59    56    1
    63    36    37    1
    64    36    33    1
    65    56    57    1
    66    56    55    1
    67    34    33    1
    68    34    35    2
    69    37    39    1
    70    33    32    1
    71    54    52    1
    72    50    49    2
    73    48    47    1
    74    48    49    1
    75    48    51    1
    76    52    51    1
    77    52    53    1
    78    45    44    1
    79    43    42    2
    80    46    44    1
    81    41    44    1
    82    41    42    1
    83    41    40    1
