@<TRIPOS>MOLECULE
tmp/5i20B03.pdb
 107 106 0 0 0
SMALL
GASTEIGER

@<TRIPOS>ATOM
      1  N        111.7850   40.8800   75.7410 N.3    64  TRP64      -0.1228
      2  CA       112.6180   41.4280   74.6680 C.3    64  TRP64       0.1722
      3  C        113.0690   42.8970   74.8310 C.2    64  TRP64       0.2437
      4  O        114.1440   43.2440   74.3430 O.2    64  TRP64      -0.2733
      5  CB       111.9120   41.2610   73.3110 C.3    64  TRP64       0.0563
      6  CG       110.6240   42.0230   73.1480 C.ar   64  TRP64       0.0003
      7  CD1      109.3630   41.5520   73.3600 C.ar   64  TRP64       0.0946
      8  CD2      110.4770   43.3840   72.7190 C.ar   64  TRP64       0.0152
      9  NE1      108.4390   42.5350   73.1010 N.ar   64  TRP64      -0.2442
     10  CE2      109.0970   43.6700   72.7100 C.ar   64  TRP64       0.0810
     11  CE3      111.3780   44.3900   72.3560 C.ar   64  TRP64       0.0012
     12  CZ2      108.5970   44.9190   72.3460 C.ar   64  TRP64       0.0191
     13  CZ3      110.8800   45.6280   71.9970 C.ar   64  TRP64       0.0001
     14  CH2      109.5020   45.8830   71.9950 C.ar   64  TRP64       0.0015
     15  N        112.2720   43.7630   75.5020 N.am   65  PRO65      -0.2729
     16  CA       112.8050   45.1280   75.6350 C.3    65  PRO65       0.1401
     17  C        114.1130   45.1980   76.4200 C.2    65  PRO65       0.2269
     18  O        114.9420   46.0640   76.1460 O.2    65  PRO65      -0.2865
     19  CB       111.6870   45.8650   76.3820 C.3    65  PRO65       0.0296
     20  CG       110.4580   45.1330   76.0140 C.3    65  PRO65       0.0237
     21  CD       110.8730   43.6950   75.9710 C.3    65  PRO65       0.0939
     22  N        116.8880   44.2560   73.8670 N.3    68  VAL68      -0.1231
     23  CA       117.0960   45.3360   72.9130 C.3    68  VAL68       0.1692
     24  C        117.9210   46.4350   73.5730 C.2    68  VAL68       0.2592
     25  O        118.8900   46.9270   72.9950 O.2    68  VAL68      -0.2718
     26  CB       115.7600   45.9130   72.4000 C.3    68  VAL68       0.0266
     27  CG1      116.0060   47.1440   71.5450 C.3    68  VAL68       0.0020
     28  CG2      114.9960   44.8600   71.6180 C.3    68  VAL68       0.0020
     29  N        117.5350   46.7960   74.7940 N.am   69  HIS69      -0.1976
     30  CA       118.2670   47.7720   75.5980 C.3    69  HIS69       0.1656
     31  C        119.7220   47.3550   75.8000 C.2    69  HIS69       0.2291
     32  O        120.6490   48.0790   75.4270 O.2    69  HIS69      -0.2864
     33  CB       117.5680   47.9620   76.9530 C.3    69  HIS69       0.0771
     34  CG       118.4470   48.5300   78.0250 C.ar   69  HIS69       0.0820
     35  ND1      118.7490   49.8730   78.1080 N.ar   69  HIS69      -0.2267
     36  CD2      119.0720   47.9390   79.0720 C.ar   69  HIS69       0.1154
     37  CE1      119.5310   50.0830   79.1530 C.ar   69  HIS69       0.1986
     38  NE2      119.7400   48.9260   79.7560 N.ar   69  HIS69      -0.2212
     39  N        121.5960   46.1480   72.1900 N.3    72  GLY72      -0.1210
     40  CA       121.6850   47.3160   71.3310 C.3    72  GLY72       0.1956
     41  C        122.6050   48.3770   71.9070 C.2    72  GLY72       0.2612
     42  O        123.2900   49.0870   71.1740 O.2    72  GLY72      -0.2717
     43  N        122.6230   48.4740   73.2320 N.am   73  GLY73      -0.1956
     44  CA       123.4570   49.4420   73.9150 C.3    73  GLY73       0.1869
     45  C        124.9310   49.0890   73.9140 C.2    73  GLY73       0.2309
     46  O        125.7580   49.8680   73.4370 O.2    73  GLY73      -0.2863
     47  N        125.9370   58.9780   71.8310 N.3   153  VAL153     -0.1231
     48  CA       124.4950   58.9850   72.0500 C.3   153  VAL153      0.1692
     49  C        123.9890   57.6220   72.5210 C.2   153  VAL153      0.2591
     50  O        123.2360   57.5350   73.4910 O.2   153  VAL153     -0.2718
     51  CB       123.7300   59.3950   70.7720 C.3   153  VAL153      0.0266
     52  CG1      122.2320   59.1760   70.9490 C.3   153  VAL153      0.0020
     53  CG2      124.0210   60.8460   70.4240 C.3   153  VAL153      0.0020
     54  N        124.4090   56.5630   71.8340 N.am  154  ILE154     -0.1980
     55  CA       123.9610   55.2090   72.1500 C.3   154  ILE154      0.1595
     56  C        124.3410   54.7950   73.5710 C.2   154  ILE154      0.2287
     57  O        123.5180   54.2460   74.3090 O.2   154  ILE154     -0.2864
     58  CB       124.5360   54.1880   71.1510 C.3   154  ILE154      0.0276
     59  CG1      123.9090   54.4000   69.7720 C.3   154  ILE154      0.0022
     60  CG2      124.2950   52.7590   71.6280 C.3   154  ILE154      0.0022
     61  CD1      124.3900   53.4240   68.7190 C.3   154  ILE154      0.0001
     62  N        122.2260   56.9130   76.0480 N.3   157  VAL157     -0.1231
     63  CA       120.8560   56.4340   76.1380 C.3   157  VAL157      0.1692
     64  C        120.8270   55.1230   76.9150 C.2   157  VAL157      0.2592
     65  O        119.9770   54.9350   77.7790 O.2   157  VAL157     -0.2718
     66  CB       120.2150   56.2460   74.7450 C.3   157  VAL157      0.0266
     67  CG1      118.8300   55.6250   74.8740 C.3   157  VAL157      0.0020
     68  CG2      120.1210   57.5800   74.0210 C.3   157  VAL157      0.0020
     69  N        121.7740   54.2340   76.6260 N.am  158  TYR158     -0.1976
     70  CA       121.8650   52.9700   77.3530 C.3   158  TYR158      0.1639
     71  C        121.9940   53.1970   78.8560 C.2   158  TYR158      0.2290
     72  O        121.3200   52.5450   79.6510 O.2   158  TYR158     -0.2864
     73  CB       123.0490   52.1310   76.8640 C.3   158  TYR158      0.0560
     74  CG       123.3880   51.0020   77.8160 C.ar  158  TYR158     -0.0198
     75  CD1      124.4280   51.1240   78.7310 C.ar  158  TYR158     -0.0009
     76  CD2      122.6500   49.8260   77.8190 C.ar  158  TYR158     -0.0009
     77  CE1      124.7300   50.1030   79.6070 C.ar  158  TYR158      0.0417
     78  CE2      122.9440   48.8000   78.6920 C.ar  158  TYR158      0.0417
     79  CZ       123.9830   48.9440   79.5840 C.ar  158  TYR158      0.1957
     80  OH       124.2810   47.9260   80.4570 O.3   158  TYR158     -0.2866
     81  N        118.6640   54.9810   80.1880 N.3   161  ALA161     -0.1245
     82  CA       117.5260   54.0650   80.1050 C.3   161  ALA161      0.1562
     83  C        117.6290   52.8940   81.0840 C.2   161  ALA161      0.2260
     84  O        116.6400   52.2050   81.3350 O.2   161  ALA161     -0.2867
     85  CB       117.3720   53.5350   78.6860 C.3   161  ALA161      0.0290
     86  N        115.2010   52.9640   83.8430 N.3   164  ARG164     -0.1231
     87  CA       113.8850   52.5070   83.4210 C.3   164  ARG164      0.1694
     88  C        113.7630   50.9930   83.6130 C.2   164  ARG164      0.2592
     89  O        112.6640   50.4640   83.7530 O.2   164  ARG164     -0.2718
     90  CB       113.6380   52.9050   81.9620 C.3   164  ARG164      0.0321
     91  CG       112.2840   52.5120   81.3900 C.3   164  ARG164      0.0489
     92  CD       112.4010   51.2810   80.5050 C.3   164  ARG164      0.2205
     93  NE       111.2760   51.1540   79.5830 N.pl3 164  ARG164     -0.0865
     94  CZ       111.2860   51.5940   78.3290 C.cat 164  ARG164      0.5346
     95  NH1      112.3650   52.1900   77.8410 N.pl3 164  ARG164      0.1354
     96  NH2      110.2170   51.4380   77.5610 N.pl3 164  ARG164      0.1354
     97  N        114.9000   50.3030   83.6260 N.am  165  PHE165     -0.1976
     98  CA       114.9270   48.8640   83.8760 C.3   165  PHE165      0.1639
     99  C        115.4710   48.5520   85.2730 C.2   165  PHE165      0.2290
    100  O        116.0680   47.4960   85.4890 O.2   165  PHE165     -0.2864
    101  CB       115.7780   48.1420   82.8200 C.3   165  PHE165      0.0560
    102  CG       115.2490   48.2610   81.4120 C.ar  165  PHE165     -0.0200
    103  CD1      114.2840   47.3850   80.9400 C.ar  165  PHE165     -0.0042
    104  CD2      115.7340   49.2370   80.5550 C.ar  165  PHE165     -0.0042
    105  CE1      113.8060   47.4900   79.6430 C.ar  165  PHE165     -0.0003
    106  CE2      115.2580   49.3480   79.2620 C.ar  165  PHE165     -0.0003
    107  CZ       114.2960   48.4750   78.8040 C.ar  165  PHE165     -0.0000
@<TRIPOS>BOND
     1    61    59    1
     2    59    58    1
     3    53    51    1
     4    51    52    1
     5    51    48    1
     6    58    60    1
     7    58    55    1
     8    42    41    2
     9    40    41    1
    10    40    39    1
    11    27    26    1
    12    28    26    1
    13    47    48    1
    14    54    55    1
    15    54    49   am
    16    41    43   am
    17    14    13   ar
    18    14    12   ar
    19    13    11   ar
    20    48    49    1
    21    55    56    1
    22    12    10   ar
    23    11     8   ar
    24    26    23    1
    25    49    50    2
    26    10     8   ar
    27    10     9   ar
    28     8     6   ar
    29    23    24    1
    30    23    22    1
    31    25    24    2
    32     9     7   ar
    33     6     5    1
    34     6     7   ar
    35    43    44    1
    36     5     2    1
    37    46    45    2
    38    56    57    2
    39    24    29   am
    40    45    44    1
    41    68    66    1
    42     4     3    2
    43     2     3    1
    44     2     1    1
    45    66    67    1
    46    66    63    1
    47    29    30    1
    48     3    15   am
    49    32    31    2
    50    15    16    1
    51    15    21    1
    52    30    31    1
    53    30    33    1
    54    16    19    1
    55    16    17    1
    56    21    20    1
    57    20    19    1
    58    62    63    1
    59    63    64    1
    60    18    17    2
    61    69    64   am
    62    69    70    1
    63    73    70    1
    64    73    74    1
    65    64    65    2
    66    33    34    1
    67    70    71    1
    68    96    94    1
    69    74    76   ar
    70    74    75   ar
    71    76    78   ar
    72    95    94    1
    73    34    35   ar
    74    34    36   ar
    75    35    37   ar
    76    94    93    2
    77    85    82    1
    78    78    79   ar
    79    75    77   ar
    80   107   106   ar
    81   107   105   ar
    82    71    72    2
    83    36    38   ar
    84    37    38   ar
    85   106   104   ar
    86    93    92    1
    87    79    77   ar
    88    79    80    1
    89   105   103   ar
    90    82    81    1
    91    82    83    1
    92    92    91    1
    93   104   102   ar
    94   103   102   ar
    95    83    84    2
    96    91    90    1
    97   102   101    1
    98    90    87    1
    99   101    98    1
   100    87    88    1
   101    87    86    1
   102    88    97   am
   103    88    89    2
   104    97    98    1
   105    98    99    1
   106    99   100    2
