@<TRIPOS>MOLECULE
tmp/5i20D03.pdb
 76 69 0 0 0
SMALL
GASTEIGER

@<TRIPOS>ATOM
      1  N        127.5190   32.5020  102.7810 N.3     3  SER3       -0.1217
      2  CA       127.8880   32.1630  101.4130 C.3     3  SER3        0.1889
      3  C        128.4160   33.3890  100.6790 C.2     3  SER3        0.2288
      4  O        129.3200   33.2900   99.8490 O.2     3  SER3       -0.2866
      5  CB       126.6890   31.5790  100.6630 C.3     3  SER3        0.2089
      6  OG       126.9680   31.4410   99.2800 O.3     3  SER3       -0.2183
      7  N        131.8810   34.3790  102.1090 N.3     6  THR6       -0.1203
      8  CA       132.8560   33.4050  101.6350 C.3     6  THR6        0.1994
      9  C        133.2990   33.7650  100.2200 C.2     6  THR6        0.2617
     10  O        134.4700   33.6240   99.8670 O.2     6  THR6       -0.2717
     11  CB       132.2820   31.9750  101.6660 C.3     6  THR6        0.1784
     12  OG1      131.9060   31.6430  103.0090 O.3     6  THR6       -0.2211
     13  CG2      133.3080   30.9650  101.1720 C.3     6  THR6        0.0376
     14  N        132.3520   34.2480   99.4220 N.am    7  LEU7       -0.1979
     15  CA       132.6410   34.7020   98.0670 C.3     7  LEU7        0.1596
     16  C        133.5330   35.9410   98.0830 C.2     7  LEU7        0.2287
     17  O        134.4550   36.0620   97.2750 O.2     7  LEU7       -0.2864
     18  CB       131.3410   34.9910   97.3140 C.3     7  LEU7        0.0297
     19  CG       131.4670   35.5510   95.8950 C.3     7  LEU7        0.0022
     20  CD1      132.3890   34.6850   95.0470 C.3     7  LEU7        0.0001
     21  CD2      130.0910   35.6670   95.2510 C.3     7  LEU7        0.0001
     22  N        137.0000   34.9970   98.8920 N.3    10  PHE10      -0.1241
     23  CA       137.6730   34.3600   97.7670 C.3    10  PHE10       0.1605
     24  C        138.3330   35.3700   96.8230 C.2    10  PHE10       0.2264
     25  O        139.2570   35.0210   96.0890 O.2    10  PHE10      -0.2867
     26  CB       136.6900   33.4840   96.9870 C.3    10  PHE10       0.0534
     27  CG       137.3250   32.7260   95.8560 C.ar   10  PHE10      -0.0203
     28  CD1      138.2700   31.7420   96.1090 C.ar   10  PHE10      -0.0042
     29  CD2      136.9800   32.9980   94.5420 C.ar   10  PHE10      -0.0042
     30  CE1      138.8620   31.0420   95.0710 C.ar   10  PHE10      -0.0003
     31  CE2      137.5660   32.3020   93.4990 C.ar   10  PHE10      -0.0003
     32  CZ       138.5090   31.3220   93.7640 C.ar   10  PHE10      -0.0000
     33  N        133.0420   31.4030  105.4910 N.3   231  ASP231     -0.1239
     34  CA       133.4350   30.0440  105.8440 C.3   231  ASP231      0.1674
     35  C        134.9550   29.9230  105.8850 C.2   231  ASP231      0.2266
     36  O        135.6150   29.9040  104.8460 O.2   231  ASP231     -0.2867
     37  CB       132.8480   29.0400  104.8530 C.3   231  ASP231      0.1410
     38  CG       132.8610   27.6160  105.3810 C.2   231  ASP231      0.3668
     39  OD1      133.6410   27.3110  106.3120 O.co2 231  ASP231     -0.2456
     40  OD2      132.0850   26.7940  104.8550 O.co2 231  ASP231     -0.2456
     41  N        136.6340   26.4910  104.5050 N.3   234  LEU234     -0.1245
     42  CA       136.4780   26.4190  103.0540 C.3   234  LEU234      0.1561
     43  C        137.4400   27.3730  102.3490 C.2   234  LEU234      0.2260
     44  O        138.0550   27.0170  101.3410 O.2   234  LEU234     -0.2867
     45  CB       135.0350   26.7310  102.6500 C.3   234  LEU234      0.0270
     46  CG       134.7330   26.6280  101.1530 C.3   234  LEU234      0.0019
     47  CD1      135.0510   25.2330  100.6350 C.3   234  LEU234      0.0001
     48  CD2      133.2850   26.9950  100.8630 C.3   234  LEU234      0.0001
     49  N        140.1750   26.6870   99.4990 N.3   238  LEU238     -0.1245
     50  CA       140.1740   27.4550   98.2570 C.3   238  LEU238      0.1561
     51  C        141.4700   28.2340   98.0580 C.2   238  LEU238      0.2260
     52  O        141.8170   28.5930   96.9330 O.2   238  LEU238     -0.2867
     53  CB       138.9770   28.4130   98.2290 C.3   238  LEU238      0.0270
     54  CG       137.6020   27.7620   98.0530 C.3   238  LEU238      0.0019
     55  CD1      136.4930   28.7750   98.2760 C.3   238  LEU238      0.0001
     56  CD2      137.4840   27.1340   96.6760 C.3   238  LEU238      0.0001
     57  N        138.5510   21.3210   95.8960 N.3   273  ALA273     -0.1245
     58  CA       137.4730   22.2630   96.1560 C.3   273  ALA273      0.1562
     59  C        136.1240   21.5570   96.0930 C.2   273  ALA273      0.2260
     60  O        135.2990   21.7100   96.9900 O.2   273  ALA273     -0.2867
     61  CB       137.5180   23.4160   95.1680 C.3   273  ALA273      0.0290
     62  N        133.7050   21.6780   99.0950 N.3   277  THR277     -0.1203
     63  CA       132.5940   22.6210   98.9690 C.3   277  THR277      0.1994
     64  C        131.2420   21.9360   98.7660 C.2   277  THR277      0.2617
     65  O        130.1950   22.5670   98.9090 O.2   277  THR277     -0.2717
     66  CB       132.8170   23.6100   97.8010 C.3   277  THR277      0.1784
     67  OG1      131.9120   24.7120   97.9280 O.3   277  THR277     -0.2211
     68  CG2      132.5840   22.9300   96.4610 C.3   277  THR277      0.0376
     69  N        131.2670   20.6480   98.4420 N.am  278  LEU278     -0.1979
     70  CA       130.0430   19.9170   98.1310 C.3   278  LEU278      0.1596
     71  C        129.8240   18.7150   99.0470 C.2   278  LEU278      0.2287
     72  O        128.8290   18.6430   99.7690 O.2   278  LEU278     -0.2864
     73  CB       130.0680   19.4500   96.6730 C.3   278  LEU278      0.0297
     74  CG       129.2510   20.2000   95.6180 C.3   278  LEU278      0.0022
     75  CD1      129.2200   21.7020   95.8680 C.3   278  LEU278      0.0001
     76  CD2      129.8170   19.9020   94.2380 C.3   278  LEU278      0.0001
@<TRIPOS>BOND
     1    31    32   ar
     2    31    29   ar
     3    32    30   ar
     4    76    74    1
     5    29    27   ar
     6    20    19    1
     7    30    28   ar
     8    61    58    1
     9    21    19    1
    10    74    75    1
    11    74    73    1
    12    27    28   ar
    13    27    26    1
    14    19    18    1
    15    57    58    1
    16    25    24    2
    17    59    58    1
    18    59    60    2
    19    68    66    1
    20    73    70    1
    21    56    54    1
    22    24    23    1
    23    52    51    2
    24    26    23    1
    25    17    16    2
    26    18    15    1
    27    23    22    1
    28    66    67    1
    29    66    63    1
    30    54    53    1
    31    54    55    1
    32    51    50    1
    33    15    16    1
    34    15    14    1
    35    70    69    1
    36    70    71    1
    37    53    50    1
    38    50    49    1
    39    69    64   am
    40    64    65    2
    41    64    63    1
    42    63    62    1
    43    71    72    2
    44     6     5    1
    45    14     9   am
    46     4     3    2
    47    10     9    2
    48     9     8    1
    49    47    46    1
    50     5     2    1
    51     3     2    1
    52    48    46    1
    53    46    45    1
    54    13    11    1
    55    44    43    2
    56     2     1    1
    57     8    11    1
    58     8     7    1
    59    11    12    1
    60    43    42    1
    61    45    42    1
    62    42    41    1
    63    36    35    2
    64    37    38    1
    65    37    34    1
    66    40    38   ar
    67    38    39   ar
    68    33    34    1
    69    34    35    1
