@<TRIPOS>MOLECULE
tmp/5i20E01.pdb
 203 202 0 0 0
SMALL
GASTEIGER

@<TRIPOS>ATOM
      1  N        103.1150   19.3860   34.1460 N.3    16  TRP16      -0.1241
      2  CA       103.6460   20.4360   33.2870 C.3    16  TRP16       0.1605
      3  C        105.1410   20.6290   33.5360 C.2    16  TRP16       0.2264
      4  O        105.8520   21.1740   32.6960 O.2    16  TRP16      -0.2867
      5  CB       102.8700   21.7410   33.5000 C.3    16  TRP16       0.0550
      6  CG       101.4950   21.7060   32.8790 C.ar   16  TRP16       0.0003
      7  CD1      101.1010   20.9540   31.8080 C.ar   16  TRP16       0.0946
      8  CD2      100.3370   22.4410   33.2990 C.ar   16  TRP16       0.0152
      9  NE1       99.7760   21.1850   31.5290 N.ar   16  TRP16      -0.2442
     10  CE2       99.2820   22.0900   32.4300 C.ar   16  TRP16       0.0810
     11  CE3      100.0900   23.3640   34.3210 C.ar   16  TRP16       0.0012
     12  CZ2       98.0000   22.6290   32.5540 C.ar   16  TRP16       0.0191
     13  CZ3       98.8130   23.8990   34.4410 C.ar   16  TRP16       0.0001
     14  CH2       97.7870   23.5290   33.5610 C.ar   16  TRP16       0.0015
     15  N        107.6030   18.6890   30.9660 N.3    19  LEU19      -0.1245
     16  CA       107.7000   19.0970   29.5670 C.3    19  LEU19       0.1561
     17  C        109.1430   19.1800   29.0750 C.2    19  LEU19       0.2260
     18  O        109.4240   18.9220   27.9040 O.2    19  LEU19      -0.2867
     19  CB       107.0070   20.4430   29.3610 C.3    19  LEU19       0.0270
     20  CG       105.4930   20.4260   29.5600 C.3    19  LEU19       0.0019
     21  CD1      104.9290   21.8330   29.4860 C.3    19  LEU19       0.0001
     22  CD2      104.8480   19.5300   28.5220 C.3    19  LEU19       0.0001
     23  N        105.8220   24.3390   16.7330 N.3    31  PRO31      -0.2116
     24  CA       104.8710   24.3960   17.8550 C.3    31  PRO31       0.1372
     25  C        103.3860   24.1960   17.5120 C.2    31  PRO31       0.2244
     26  O        102.7150   23.5010   18.2730 O.2    31  PRO31      -0.2868
     27  CB       105.0920   25.8040   18.4330 C.3    31  PRO31       0.0268
     28  CG       105.9100   26.5440   17.4290 C.3    31  PRO31       0.0207
     29  CD       106.7140   25.5090   16.7150 C.3    31  PRO31       0.0892
     30  N        102.8970   20.4240   16.7740 N.3    34  LEU34      -0.1231
     31  CA       103.0220   19.6500   18.0070 C.3    34  LEU34       0.1693
     32  C        101.7990   19.8350   18.8940 C.2    34  LEU34       0.2592
     33  O        101.2750   18.8740   19.4600 O.2    34  LEU34      -0.2718
     34  CB       104.2880   20.0470   18.7720 C.3    34  LEU34       0.0284
     35  CG       104.6370   19.1510   19.9630 C.3    34  LEU34       0.0019
     36  CD1      104.8260   17.7130   19.4940 C.3    34  LEU34       0.0001
     37  CD2      105.8840   19.6490   20.6900 C.3    34  LEU34       0.0001
     38  N        101.3470   21.0790   19.0010 N.am   35  THR35      -0.1953
     39  CA       100.1260   21.3950   19.7340 C.3    35  THR35       0.1897
     40  C         98.9220   20.6630   19.1440 C.2    35  THR35       0.2313
     41  O         98.1120   20.0930   19.8800 O.2    35  THR35      -0.2863
     42  CB        99.8560   22.9130   19.7360 C.3    35  THR35       0.1794
     43  OG1      100.8990   23.5790   20.4570 O.3    35  THR35      -0.2208
     44  CG2       98.5140   23.2290   20.3850 C.3    35  THR35       0.0378
     45  N         99.2530   16.8430   19.9830 N.3    38  THR38      -0.1203
     46  CA        99.1100   16.5140   21.3980 C.3    38  THR38       0.1994
     47  C         97.7380   16.8910   21.9700 C.2    38  THR38       0.2617
     48  O         97.2430   16.2170   22.8720 O.2    38  THR38      -0.2717
     49  CB       100.2170   17.1850   22.2470 C.3    38  THR38       0.1784
     50  OG1      100.1610   18.6080   22.0870 O.3    38  THR38      -0.2211
     51  CG2      101.5930   16.6770   21.8250 C.3    38  THR38       0.0376
     52  N         97.1160   17.9470   21.4500 N.am   39  PHE39      -0.1975
     53  CA        95.8000   18.3500   21.9540 C.3    39  PHE39       0.1639
     54  C         94.6680   17.5160   21.3570 C.2    39  PHE39       0.2290
     55  O         93.6020   17.3980   21.9610 O.2    39  PHE39      -0.2864
     56  CB        95.5480   19.8410   21.7000 C.3    39  PHE39       0.0560
     57  CG        96.0400   20.7320   22.8110 C.ar   39  PHE39      -0.0200
     58  CD1       97.3960   20.9590   22.9900 C.ar   39  PHE39      -0.0042
     59  CD2       95.1470   21.3350   23.6800 C.ar   39  PHE39      -0.0042
     60  CE1       97.8480   21.7710   24.0160 C.ar   39  PHE39      -0.0003
     61  CE2       95.5940   22.1490   24.7060 C.ar   39  PHE39      -0.0003
     62  CZ        96.9450   22.3650   24.8740 C.ar   39  PHE39      -0.0000
     63  N         96.5040   31.6740   24.2650 N.3    77  TYR77      -0.1227
     64  CA        97.8000   31.8100   24.9260 C.3    77  TYR77       0.1736
     65  C         98.8790   31.0420   24.1600 C.2    77  TYR77       0.2595
     66  O        100.0540   31.4050   24.2000 O.2    77  TYR77      -0.2718
     67  CB        97.7230   31.3600   26.3940 C.3    77  TYR77       0.0548
     68  CG        97.9910   29.8970   26.6680 C.ar   77  TYR77      -0.0200
     69  CD1       96.9740   28.9550   26.5690 C.ar   77  TYR77      -0.0009
     70  CD2       99.2500   29.4610   27.0700 C.ar   77  TYR77      -0.0009
     71  CE1       97.2060   27.6200   26.8380 C.ar   77  TYR77       0.0417
     72  CE2       99.4930   28.1240   27.3370 C.ar   77  TYR77       0.0417
     73  CZ        98.4650   27.2110   27.2210 C.ar   77  TYR77       0.1957
     74  OH        98.6910   25.8810   27.4830 O.3    77  TYR77      -0.2866
     75  N         98.4760   29.9980   23.4410 N.am   78  HIS78      -0.1975
     76  CA        99.4020   29.3040   22.5520 C.3    78  HIS78       0.1656
     77  C         99.8070   30.1930   21.3830 C.2    78  HIS78       0.2291
     78  O        100.9870   30.2950   21.0530 O.2    78  HIS78      -0.2864
     79  CB        98.7900   28.0090   22.0200 C.3    78  HIS78       0.0771
     80  CG        98.9090   26.8550   22.9650 C.ar   78  HIS78       0.0820
     81  ND1       97.8700   26.4450   23.7710 N.ar   78  HIS78      -0.2267
     82  CD2       99.9440   26.0230   23.2300 C.ar   78  HIS78       0.1154
     83  CE1       98.2590   25.4080   24.4920 C.ar   78  HIS78       0.1986
     84  NE2       99.5130   25.1330   24.1840 N.ar   78  HIS78      -0.2212
     85  N        102.1300   33.0630   22.5460 N.3    81  TYR81      -0.1227
     86  CA       103.4250   32.5460   22.9600 C.3    81  TYR81       0.1736
     87  C        104.2750   32.1310   21.7540 C.2    81  TYR81       0.2595
     88  O        105.4680   32.4340   21.6920 O.2    81  TYR81      -0.2718
     89  CB       103.2700   31.3620   23.9160 C.3    81  TYR81       0.0548
     90  CG       104.5940   30.9570   24.5070 C.ar   81  TYR81      -0.0200
     91  CD1      105.2870   31.8260   25.3390 C.ar   81  TYR81      -0.0009
     92  CD2      105.1680   29.7270   24.2130 C.ar   81  TYR81      -0.0009
     93  CE1      106.5040   31.4810   25.8760 C.ar   81  TYR81       0.0417
     94  CE2      106.3930   29.3680   24.7490 C.ar   81  TYR81       0.0417
     95  CZ       107.0550   30.2520   25.5810 C.ar   81  TYR81       0.1957
     96  OH       108.2720   29.9150   26.1210 O.3    81  TYR81      -0.2866
     97  N        103.6640   31.4360   20.7990 N.am   82  PHE82      -0.1976
     98  CA       104.3860   31.0000   19.6060 C.3    82  PHE82       0.1639
     99  C        104.8200   32.2020   18.7700 C.2    82  PHE82       0.2290
    100  O        105.8390   32.1540   18.0870 O.2    82  PHE82      -0.2864
    101  CB       103.5320   30.0510   18.7590 C.3    82  PHE82       0.0560
    102  CG       103.1550   28.7750   19.4630 C.ar   82  PHE82      -0.0200
    103  CD1      103.8450   28.3540   20.5900 C.ar   82  PHE82      -0.0042
    104  CD2      102.1070   27.9960   18.9950 C.ar   82  PHE82      -0.0042
    105  CE1      103.4920   27.1810   21.2380 C.ar   82  PHE82      -0.0003
    106  CE2      101.7520   26.8240   19.6340 C.ar   82  PHE82      -0.0003
    107  CZ       102.4440   26.4150   20.7560 C.ar   82  PHE82      -0.0000
    108  N        107.8990   33.5140   20.3910 N.3    85  LEU85      -0.1245
    109  CA       109.0500   32.6810   20.0450 C.3    85  LEU85       0.1561
    110  C        109.6960   33.1090   18.7280 C.2    85  LEU85       0.2260
    111  O        110.8970   32.9210   18.5260 O.2    85  LEU85      -0.2867
    112  CB       108.6290   31.2110   19.9690 C.3    85  LEU85       0.0270
    113  CG       108.9650   30.3020   21.1580 C.3    85  LEU85       0.0019
    114  CD1      109.0470   31.0730   22.4630 C.3    85  LEU85       0.0001
    115  CD2      107.9530   29.1670   21.2690 C.3    85  LEU85       0.0001
    116  N        110.1260   33.0350   27.6330 N.3    94  GLY94      -0.1225
    117  CA       109.6810   32.1300   28.6740 C.3    94  GLY94       0.1811
    118  C        109.6350   32.7850   30.0390 C.2    94  GLY94       0.2280
    119  O        108.7640   32.4720   30.8520 O.2    94  GLY94      -0.2866
    120  N        106.6750   35.2530   30.0690 N.3    97  ALA97      -0.1231
    121  CA       105.4400   34.4880   30.1090 C.3    97  ALA97       0.1694
    122  C        105.1890   33.9690   31.5210 C.2    97  ALA97       0.2592
    123  O        104.0440   33.7730   31.9190 O.2    97  ALA97      -0.2718
    124  CB       105.4860   33.3390   29.1110 C.3    97  ALA97       0.0304
    125  N        106.2590   33.7700   32.2860 N.am   98  TYR98      -0.1976
    126  CA       106.1210   33.2320   33.6370 C.3    98  TYR98       0.1639
    127  C        105.7140   34.2810   34.6660 C.2    98  TYR98       0.2290
    128  O        105.9420   34.1100   35.8610 O.2    98  TYR98      -0.2864
    129  CB       107.4150   32.5420   34.0820 C.3    98  TYR98       0.0560
    130  CG       107.2610   31.0410   34.1380 C.ar   98  TYR98      -0.0198
    131  CD1      106.3680   30.4550   35.0260 C.ar   98  TYR98      -0.0009
    132  CD2      107.9910   30.2100   33.2960 C.ar   98  TYR98      -0.0009
    133  CE1      106.2080   29.0850   35.0820 C.ar   98  TYR98       0.0417
    134  CE2      107.8380   28.8310   33.3440 C.ar   98  TYR98       0.0417
    135  CZ       106.9440   28.2780   34.2400 C.ar   98  TYR98       0.1957
    136  OH       106.7840   26.9140   34.3030 O.3    98  TYR98      -0.2866
    137  N        102.6030   34.6720   34.7020 N.3   100  TRP100     -0.1241
    138  CA       101.2330   34.1810   34.8350 C.3   100  TRP100      0.1605
    139  C        100.8570   33.6100   36.2110 C.2   100  TRP100      0.2264
    140  O         99.7120   33.7790   36.6290 O.2   100  TRP100     -0.2867
    141  CB       100.9120   33.1510   33.7330 C.3   100  TRP100      0.0550
    142  CG       101.5530   31.7840   33.8050 C.ar  100  TRP100      0.0003
    143  CD1      102.6540   31.3590   33.1150 C.ar  100  TRP100      0.0946
    144  CD2      101.0910   30.6460   34.5560 C.ar  100  TRP100      0.0152
    145  NE1      102.9220   30.0450   33.4090 N.ar  100  TRP100     -0.2442
    146  CE2      101.9800   29.5820   34.2890 C.ar  100  TRP100      0.0810
    147  CE3      100.0270   30.4310   35.4380 C.ar  100  TRP100      0.0012
    148  CZ2      101.8330   28.3200   34.8690 C.ar  100  TRP100      0.0191
    149  CZ3       99.8830   29.1730   36.0160 C.ar  100  TRP100      0.0001
    150  CH2      100.7830   28.1360   35.7280 C.ar  100  TRP100      0.0015
    151  N        100.4570   36.3960   26.3490 N.3   158  CYS158     -0.1235
    152  CA       100.3070   34.9780   26.6630 C.3   158  CYS158      0.1677
    153  C         99.9940   34.7690   28.1430 C.2   158  CYS158      0.2270
    154  O         99.0310   34.0870   28.4930 O.2   158  CYS158     -0.2867
    155  CB       101.5760   34.2130   26.2770 C.3   158  CYS158      0.0956
    156  SG       101.7270   32.5640   27.0050 S.3   158  CYS158     -0.0801
    157  N         96.3860   33.2740   29.5670 N.3   162  TRP162     -0.1241
    158  CA        96.3550   32.0280   30.3300 C.3   162  TRP162      0.1605
    159  C         95.8850   32.2470   31.7670 C.2   162  TRP162      0.2264
    160  O         95.1460   31.4310   32.3160 O.2   162  TRP162     -0.2867
    161  CB        97.7310   31.3530   30.3420 C.3   162  TRP162      0.0550
    162  CG        97.8170   30.2180   31.3340 C.ar  162  TRP162      0.0003
    163  CD1       98.5150   30.2060   32.5070 C.ar  162  TRP162      0.0946
    164  CD2       97.1570   28.9450   31.2490 C.ar  162  TRP162      0.0152
    165  NE1       98.3410   29.0050   33.1500 N.ar  162  TRP162     -0.2442
    166  CE2       97.5140   28.2140   32.4010 C.ar  162  TRP162      0.0810
    167  CE3       96.3050   28.3540   30.3100 C.ar  162  TRP162      0.0012
    168  CZ2       97.0490   26.9200   32.6390 C.ar  162  TRP162      0.0191
    169  CZ3       95.8420   27.0700   30.5470 C.ar  162  TRP162      0.0001
    170  CH2       96.2150   26.3660   31.7020 C.ar  162  TRP162      0.0015
    171  N        103.0010   13.2700   25.7280 N.3   215  LEU215     -0.1245
    172  CA       102.6560   14.6670   25.9720 C.3   215  LEU215      0.1561
    173  C        101.1430   14.8700   25.9960 C.2   215  LEU215      0.2260
    174  O        100.6230   15.6480   26.7940 O.2   215  LEU215     -0.2867
    175  CB       103.2900   15.5740   24.9130 C.3   215  LEU215      0.0270
    176  CG       104.7890   15.8570   25.0480 C.3   215  LEU215      0.0019
    177  CD1      105.2990   16.6720   23.8630 C.3   215  LEU215      0.0001
    178  CD2      105.0830   16.5690   26.3550 C.3   215  LEU215      0.0001
    179  N        100.7140   15.5840   29.9500 N.3   219  PRO219     -0.2102
    180  CA       100.7410   17.0290   30.1850 C.3   219  PRO219      0.1504
    181  C         99.5570   17.7720   29.5580 C.2   219  PRO219      0.2575
    182  O         99.3090   18.9180   29.9250 O.2   219  PRO219     -0.2718
    183  CB       102.0510   17.4540   29.5250 C.3   219  PRO219      0.0282
    184  CG       102.9350   16.2860   29.7140 C.3   219  PRO219      0.0208
    185  CD       102.0510   15.0640   29.6180 C.3   219  PRO219      0.0893
    186  N         98.8550   17.1410   28.6200 N.am  220  VAL220     -0.1980
    187  CA        97.6780   17.7520   28.0090 C.3   220  VAL220      0.1595
    188  C         96.3920   17.1240   28.5280 C.2   220  VAL220      0.2287
    189  O         95.5280   17.8150   29.0730 O.2   220  VAL220     -0.2864
    190  CB        97.6880   17.6250   26.4770 C.3   220  VAL220      0.0276
    191  CG1       96.3990   18.2030   25.9010 C.3   220  VAL220      0.0022
    192  CG2       98.8980   18.3260   25.8940 C.3   220  VAL220      0.0022
    193  N         95.1000   19.3770   31.9690 N.3   224  PHE224     -0.1241
    194  CA        94.1560   20.4630   31.7230 C.3   224  PHE224      0.1605
    195  C         92.8070   20.2130   32.3950 C.2   224  PHE224      0.2264
    196  O         92.0680   21.1560   32.6880 O.2   224  PHE224     -0.2867
    197  CB        93.9860   20.6960   30.2190 C.3   224  PHE224      0.0534
    198  CG        95.0810   21.5310   29.6190 C.ar  224  PHE224     -0.0203
    199  CD1       95.1060   22.9040   29.8180 C.ar  224  PHE224     -0.0042
    200  CD2       96.0940   20.9490   28.8740 C.ar  224  PHE224     -0.0042
    201  CE1       96.1160   23.6810   29.2810 C.ar  224  PHE224     -0.0003
    202  CE2       97.1060   21.7220   28.3350 C.ar  224  PHE224     -0.0003
    203  CZ        97.1160   23.0900   28.5400 C.ar  224  PHE224     -0.0000
@<TRIPOS>BOND
     1    29    23    1
     2    29    28    1
     3    23    24    1
     4    30    31    1
     5    28    27    1
     6    25    24    1
     7    25    26    2
     8    24    27    1
     9    31    34    1
    10    31    32    1
    11   100    99    2
    12   111   110    2
    13   110   109    1
    14   101   102    1
    15   101    98    1
    16    99    98    1
    17    34    35    1
    18    32    38   am
    19    32    33    2
    20   104   102   ar
    21   104   106   ar
    22    38    39    1
    23    40    39    1
    24    40    41    2
    25   102   103   ar
    26    36    35    1
    27    98    97    1
    28   106   107   ar
    29    39    42    1
    30    42    44    1
    31    42    43    1
    32    35    37    1
    33   112   109    1
    34   112   113    1
    35    45    46    1
    36   109   108    1
    37   103   105   ar
    38   107   105   ar
    39    97    87   am
    40    78    77    2
    41   113   115    1
    42   113   114    1
    43    54    53    1
    44    54    55    2
    45    77    76    1
    46    46    47    1
    47    46    49    1
    48    52    53    1
    49    52    47   am
    50    88    87    2
    51    56    53    1
    52    56    57    1
    53    87    86    1
    54    51    49    1
    55    47    48    2
    56    79    76    1
    57    79    80    1
    58    50    49    1
    59    85    86    1
    60    76    75    1
    61    57    58   ar
    62    57    59   ar
    63    86    89    1
    64    80    82   ar
    65    80    81   ar
    66    58    60   ar
    67    82    84   ar
    68    75    65   am
    69    59    61   ar
    70    81    83   ar
    71   177   176    1
    72    89    90    1
    73    60    62   ar
    74    65    66    2
    75    65    64    1
    76    84    83   ar
    77    92    90   ar
    78    92    94   ar
    79    63    64    1
    80    90    91   ar
    81    61    62   ar
    82    94    95   ar
    83   175   176    1
    84   175   172    1
    85    64    67    1
    86   176   178    1
    87    91    93   ar
    88    95    93   ar
    89    95    96    1
    90   171   172    1
    91   192   190    1
    92   191   190    1
    93   172   173    1
    94   173   174    2
    95   155   152    1
    96   155   156    1
    97   151   152    1
    98    67    68    1
    99   190   187    1
   100    69    68   ar
   101    69    71   ar
   102   152   153    1
   103    68    70   ar
   104    71    73   ar
   105    70    72   ar
   106    73    72   ar
   107    73    74    1
   108   116   117    1
   109    18    17    2
   110   187   188    1
   111   187   186    1
   112   153   154    2
   113   202   203   ar
   114   202   200   ar
   115    22    20    1
   116   188   189    2
   117   203   201   ar
   118   186   181   am
   119   117   118    1
   120   200   198   ar
   121    17    16    1
   122   124   121    1
   123   201   199   ar
   124    19    20    1
   125    19    16    1
   126    21    20    1
   127   183   184    1
   128   183   180    1
   129   181   182    2
   130   181   180    1
   131    16    15    1
   132   157   158    1
   133   185   184    1
   134   185   179    1
   135   198   199   ar
   136   198   197    1
   137   179   180    1
   138   118   119    2
   139   120   121    1
   140   121   122    1
   141   197   194    1
   142   167   169   ar
   143   167   164   ar
   144   158   161    1
   145   158   159    1
   146   161   162    1
   147   169   170   ar
   148   164   162   ar
   149   164   166   ar
   150   162   163   ar
   151   122   123    2
   152   122   125   am
   153     9     7   ar
   154     9    10   ar
   155   170   168   ar
   156   194   193    1
   157   194   195    1
   158   159   160    2
   159     7     6   ar
   160   125   126    1
   161   195   196    2
   162   166   168   ar
   163   166   165   ar
   164    10    12   ar
   165    10     8   ar
   166   163   165   ar
   167    12    14   ar
   168     4     3    2
   169     6     8   ar
   170     6     5    1
   171   143   145   ar
   172   143   142   ar
   173     2     5    1
   174     2     3    1
   175     2     1    1
   176   132   134   ar
   177   132   130   ar
   178     8    11   ar
   179   134   135   ar
   180   145   146   ar
   181    14    13   ar
   182   126   129    1
   183   126   127    1
   184   141   142    1
   185   141   138    1
   186   142   144   ar
   187   129   130    1
   188   130   131   ar
   189   135   136    1
   190   135   133   ar
   191   146   144   ar
   192   146   148   ar
   193    11    13   ar
   194   144   147   ar
   195   127   128    2
   196   137   138    1
   197   138   139    1
   198   148   150   ar
   199   131   133   ar
   200   147   149   ar
   201   150   149   ar
   202   139   140    2
