@<TRIPOS>MOLECULE
tmp/5i20D04.pdb
 92 83 0 0 0
SMALL
GASTEIGER

@<TRIPOS>ATOM
      1  N        137.0000   34.9970   98.8920 N.3    10  PHE10      -0.1241
      2  CA       137.6730   34.3600   97.7670 C.3    10  PHE10       0.1605
      3  C        138.3330   35.3700   96.8230 C.2    10  PHE10       0.2264
      4  O        139.2570   35.0210   96.0890 O.2    10  PHE10      -0.2867
      5  CB       136.6900   33.4840   96.9870 C.3    10  PHE10       0.0534
      6  CG       137.3250   32.7260   95.8560 C.ar   10  PHE10      -0.0203
      7  CD1      138.2700   31.7420   96.1090 C.ar   10  PHE10      -0.0042
      8  CD2      136.9800   32.9980   94.5420 C.ar   10  PHE10      -0.0042
      9  CE1      138.8620   31.0420   95.0710 C.ar   10  PHE10      -0.0003
     10  CE2      137.5660   32.3020   93.4990 C.ar   10  PHE10      -0.0003
     11  CZ       138.5090   31.3220   93.7640 C.ar   10  PHE10      -0.0000
     12  N        140.1750   26.6870   99.4990 N.3   238  LEU238     -0.1245
     13  CA       140.1740   27.4550   98.2570 C.3   238  LEU238      0.1561
     14  C        141.4700   28.2340   98.0580 C.2   238  LEU238      0.2260
     15  O        141.8170   28.5930   96.9330 O.2   238  LEU238     -0.2867
     16  CB       138.9770   28.4130   98.2290 C.3   238  LEU238      0.0270
     17  CG       137.6020   27.7620   98.0530 C.3   238  LEU238      0.0019
     18  CD1      136.4930   28.7750   98.2760 C.3   238  LEU238      0.0001
     19  CD2      137.4840   27.1340   96.6760 C.3   238  LEU238      0.0001
     20  N        144.1370   27.5300   95.4470 N.3   241  ALA241     -0.1245
     21  CA       143.9380   27.9390   94.0670 C.3   241  ALA241      0.1562
     22  C        144.9680   28.9900   93.6590 C.2   241  ALA241      0.2260
     23  O        145.3300   29.0810   92.4880 O.2   241  ALA241     -0.2867
     24  CB       142.5270   28.4710   93.8630 C.3   241  ALA241      0.0290
     25  N        148.1410   27.8790   91.8110 N.3   244  VAL244     -0.1231
     26  CA       147.7650   27.3110   90.5220 C.3   244  VAL244      0.1692
     27  C        147.3320   28.3940   89.5370 C.2   244  VAL244      0.2591
     28  O        147.7040   28.3650   88.3640 O.2   244  VAL244     -0.2718
     29  CB       146.6260   26.2840   90.6770 C.3   244  VAL244      0.0266
     30  CG1      146.3340   25.6080   89.3520 C.3   244  VAL244      0.0020
     31  CG2      146.9880   25.2520   91.7300 C.3   244  VAL244      0.0020
     32  N        146.5360   29.3430   90.0190 N.am  245  LEU245     -0.1980
     33  CA       146.1000   30.4640   89.1970 C.3   245  LEU245      0.1596
     34  C        147.2980   31.3450   88.8350 C.2   245  LEU245      0.2287
     35  O        147.4110   31.8180   87.7060 O.2   245  LEU245     -0.2864
     36  CB       145.0240   31.2790   89.9220 C.3   245  LEU245      0.0297
     37  CG       143.6950   30.5660   90.2000 C.3   245  LEU245      0.0022
     38  CD1      142.7860   31.4120   91.0820 C.3   245  LEU245      0.0001
     39  CD2      142.9870   30.1930   88.9050 C.3   245  LEU245      0.0001
     40  N        149.0640   29.8920   86.0120 N.3   248  LEU248     -0.1245
     41  CA       148.2750   30.0270   84.7870 C.3   248  LEU248      0.1561
     42  C        148.5220   31.3710   84.1070 C.2   248  LEU248      0.2260
     43  O        148.6270   31.4470   82.8830 O.2   248  LEU248     -0.2867
     44  CB       146.7800   29.8640   85.0810 C.3   248  LEU248      0.0270
     45  CG       146.2440   28.4430   85.2740 C.3   248  LEU248      0.0019
     46  CD1      144.7870   28.4710   85.7110 C.3   248  LEU248      0.0001
     47  CD2      146.4030   27.6360   83.9960 C.3   248  LEU248      0.0001
     48  N        153.0810   22.7680   81.3120 N.3   259  SER259     -0.1217
     49  CA       153.5960   21.5080   81.8370 C.3   259  SER259      0.1889
     50  C        152.4740   20.5530   82.2260 C.2   259  SER259      0.2288
     51  O        151.3440   20.9710   82.4820 O.2   259  SER259     -0.2866
     52  CB       154.5040   21.7630   83.0430 C.3   259  SER259      0.2089
     53  OG       153.7870   22.3740   84.1010 O.3   259  SER259     -0.2183
     54  N        151.3520   21.2740   85.7150 N.3   262  LEU262     -0.1231
     55  CA       150.3180   22.3020   85.8100 C.3   262  LEU262      0.1693
     56  C        148.9350   21.6690   85.7040 C.2   262  LEU262      0.2591
     57  O        148.0510   21.9420   86.5160 O.2   262  LEU262     -0.2718
     58  CB       150.4960   23.3570   84.7130 C.3   262  LEU262      0.0284
     59  CG       150.2250   24.8330   85.0310 C.3   262  LEU262      0.0019
     60  CD1      149.9130   25.6020   83.7520 C.3   262  LEU262      0.0001
     61  CD2      149.1180   25.0250   86.0580 C.3   262  LEU262      0.0001
     62  N        148.7610   20.8220   84.6940 N.am  263  ALA263     -0.1980
     63  CA       147.4880   20.1520   84.4550 C.3   263  ALA263      0.1597
     64  C        147.0770   19.3120   85.6590 C.2   263  ALA263      0.2287
     65  O        145.9200   19.3370   86.0740 O.2   263  ALA263     -0.2864
     66  CB       147.5700   19.2860   83.2050 C.3   263  ALA263      0.0319
     67  N        145.9270   21.6340   88.4800 N.3   266  CYS266     -0.1235
     68  CA       144.6070   22.2060   88.2230 C.3   266  CYS266      0.1677
     69  C        143.4820   21.2340   88.5700 C.2   266  CYS266      0.2270
     70  O        142.4400   21.6380   89.0820 O.2   266  CYS266     -0.2867
     71  CB       144.4780   22.6340   86.7570 C.3   266  CYS266      0.0956
     72  SG       145.5340   24.0170   86.2740 S.3   266  CYS266     -0.0801
     73  N        143.2350   20.9480   92.6070 N.3   269  ILE269     -0.1231
     74  CA       142.6050   22.0620   93.3130 C.3   269  ILE269      0.1692
     75  C        141.1070   22.0930   93.0080 C.2   269  ILE269      0.2591
     76  O        140.2920   22.3550   93.8930 O.2   269  ILE269     -0.2718
     77  CB       143.2610   23.4240   92.9570 C.3   269  ILE269      0.0266
     78  CG1      142.4810   24.5850   93.5820 C.3   269  ILE269      0.0019
     79  CG2      143.3710   23.6090   91.4520 C.3   269  ILE269      0.0020
     80  CD1      142.4270   24.5500   95.0970 C.3   269  ILE269      0.0001
     81  N        140.7500   21.8060   91.7590 N.am  270  VAL270     -0.1980
     82  CA       139.3500   21.6730   91.3750 C.3   270  VAL270      0.1595
     83  C        138.7110   20.5130   92.1320 C.2   270  VAL270      0.2287
     84  O        137.6180   20.6440   92.6880 O.2   270  VAL270     -0.2864
     85  CB       139.1960   21.4510   89.8570 C.3   270  VAL270      0.0276
     86  CG1      137.8300   20.8590   89.5290 C.3   270  VAL270      0.0022
     87  CG2      139.4130   22.7580   89.1090 C.3   270  VAL270      0.0022
     88  N        138.5510   21.3210   95.8960 N.3   273  ALA273     -0.1245
     89  CA       137.4730   22.2630   96.1560 C.3   273  ALA273      0.1562
     90  C        136.1240   21.5570   96.0930 C.2   273  ALA273      0.2260
     91  O        135.2990   21.7100   96.9900 O.2   273  ALA273     -0.2867
     92  CB       137.5180   23.4160   95.1680 C.3   273  ALA273      0.0290
@<TRIPOS>BOND
     1    48    49    1
     2    49    50    1
     3    49    52    1
     4    50    51    2
     5    43    42    2
     6    52    53    1
     7    66    63    1
     8    60    59    1
     9    47    45    1
    10    42    41    1
    11    63    62    1
    12    63    64    1
    13    62    56   am
    14    58    59    1
    15    58    55    1
    16    41    44    1
    17    41    40    1
    18    59    61    1
    19    44    45    1
    20    45    46    1
    21    64    65    2
    22    56    55    1
    23    56    57    2
    24    54    55    1
    25    72    71    1
    26    71    68    1
    27    35    34    2
    28    68    67    1
    29    68    69    1
    30    28    27    2
    31    69    70    2
    32    34    33    1
    33    39    37    1
    34    87    85    1
    35    33    36    1
    36    33    32    1
    37    30    29    1
    38    86    85    1
    39    27    32   am
    40    27    26    1
    41    85    82    1
    42    36    37    1
    43    37    38    1
    44    26    29    1
    45    26    25    1
    46    29    31    1
    47    82    81    1
    48    82    83    1
    49    79    77    1
    50    81    75   am
    51    83    84    2
    52    23    22    2
    53    73    74    1
    54    77    74    1
    55    77    78    1
    56    75    74    1
    57    75    76    2
    58    10    11   ar
    59    10     8   ar
    60    78    80    1
    61    22    21    1
    62    11     9   ar
    63    24    21    1
    64    21    20    1
    65     8     6   ar
    66     9     7   ar
    67    92    89    1
    68     6     7   ar
    69     6     5    1
    70    88    89    1
    71     4     3    2
    72    90    89    1
    73    90    91    2
    74    19    17    1
    75     3     2    1
    76    15    14    2
    77     5     2    1
    78     2     1    1
    79    17    16    1
    80    17    18    1
    81    14    13    1
    82    16    13    1
    83    13    12    1
