@<TRIPOS>MOLECULE
tmp/5i23A01.pdb
 201 194 0 0 0
SMALL
GASTEIGER

@<TRIPOS>ATOM
      1  N          8.1580  155.5100  131.6280 N.3   141  TYR141     -0.1241
      2  CA         7.8690  155.1350  132.9920 C.3   141  TYR141      0.1605
      3  C          6.7560  154.1260  133.0940 C.2   141  TYR141      0.2264
      4  O          5.6820  154.3490  132.5730 O.2   141  TYR141     -0.2867
      5  CB         7.4870  156.3460  133.8090 C.3   141  TYR141      0.0534
      6  CG         7.1180  156.0410  135.2480 C.ar  141  TYR141     -0.0201
      7  CD1        8.0910  156.0200  136.2410 C.ar  141  TYR141     -0.0009
      8  CD2        5.7980  155.8060  135.6170 C.ar  141  TYR141     -0.0009
      9  CE1        7.7620  155.7670  137.5590 C.ar  141  TYR141      0.0417
     10  CE2        5.4440  155.5540  136.9290 C.ar  141  TYR141      0.0417
     11  CZ         6.4430  155.5390  137.9000 C.ar  141  TYR141      0.1957
     12  OH         6.1220  155.2730  139.2030 O.3   141  TYR141     -0.2866
     13  N         14.7020  152.6960  145.7560 N.3   233  PHE233     -0.1241
     14  CA        14.5260  154.1660  145.6210 C.3   233  PHE233      0.1605
     15  C         13.6740  154.5450  146.8190 C.2   233  PHE233      0.2264
     16  O         12.4380  154.5050  146.7090 O.2   233  PHE233     -0.2867
     17  CB        13.8420  154.5070  144.3020 C.3   233  PHE233      0.0534
     18  CG        13.3990  155.9620  144.1450 C.ar  233  PHE233     -0.0203
     19  CD1       14.0010  157.0150  144.8530 C.ar  233  PHE233     -0.0042
     20  CD2       12.3830  156.2680  143.2630 C.ar  233  PHE233     -0.0042
     21  CE1       13.5600  158.3310  144.6850 C.ar  233  PHE233     -0.0003
     22  CE2       11.9730  157.5840  143.0810 C.ar  233  PHE233     -0.0003
     23  CZ        12.5630  158.6140  143.7970 C.ar  233  PHE233     -0.0000
     24  N         20.3210  156.0750  146.2730 N.3   261  ASP261     -0.1225
     25  CA        19.5270  156.8750  145.3610 C.3   261  ASP261      0.1805
     26  C         19.5360  158.3410  145.8760 C.2   261  ASP261      0.2597
     27  O         20.3370  158.7050  146.7530 O.2   261  ASP261     -0.2718
     28  CB        18.1310  156.2540  145.2910 C.3   261  ASP261      0.1424
     29  CG        17.4110  156.5390  143.9840 C.2   261  ASP261      0.3668
     30  OD1       17.5470  157.6810  143.4370 O.co2 261  ASP261     -0.2456
     31  OD2       16.6630  155.6610  143.5480 O.co2 261  ASP261     -0.2456
     32  N         18.6160  159.1470  145.3990 N.am  262  LEU262     -0.1979
     33  CA        18.7870  160.6140  145.4120 C.3   262  LEU262      0.1596
     34  C         18.6490  161.2370  146.7980 C.2   262  LEU262      0.2287
     35  O         18.9440  162.4430  146.9580 O.2   262  LEU262     -0.2864
     36  CB        17.8790  161.2800  144.3740 C.3   262  LEU262      0.0297
     37  CG        16.3840  160.9610  144.3770 C.3   262  LEU262      0.0022
     38  CD1       15.7070  161.4000  145.6740 C.3   262  LEU262      0.0001
     39  CD2       15.7100  161.6260  143.1860 C.3   262  LEU262      0.0001
     40  N         12.4790  164.3530  146.9370 N.3   269  ILE269     -0.1245
     41  CA        12.7300  163.9390  145.5530 C.3   269  ILE269      0.1561
     42  C         13.0290  165.1810  144.6820 C.2   269  ILE269      0.2260
     43  O         13.8980  165.1220  143.8050 O.2   269  ILE269     -0.2867
     44  CB        11.5300  163.1310  144.9950 C.3   269  ILE269      0.0252
     45  CG1       11.4430  161.7630  145.6820 C.3   269  ILE269      0.0019
     46  CG2       11.5810  162.9710  143.4720 C.3   269  ILE269      0.0019
     47  CD1       10.0850  161.0980  145.4980 C.3   269  ILE269      0.0001
     48  N         24.0530  157.6180  143.1880 N.3   303  ILE303     -0.1245
     49  CA        23.3700  158.1810  142.0210 C.3   303  ILE303      0.1561
     50  C         23.8350  159.6250  141.7160 C.2   303  ILE303      0.2260
     51  O         24.2060  160.3910  142.6090 O.2   303  ILE303     -0.2867
     52  CB        21.8270  158.1250  142.1860 C.3   303  ILE303      0.0252
     53  CG1       21.1100  158.2020  140.8330 C.3   303  ILE303      0.0019
     54  CG2       21.2980  159.2300  143.0900 C.3   303  ILE303      0.0019
     55  CD1       19.6200  157.9150  140.9500 C.3   303  ILE303      0.0001
     56  N         23.0150  162.7390  138.3720 N.3   305  GLU305     -0.1245
     57  CA        22.1800  163.1030  137.2700 C.3   305  GLU305      0.1567
     58  C         22.8010  164.2720  136.4500 C.2   305  GLU305      0.2260
     59  O         23.7280  164.9660  136.9230 O.2   305  GLU305     -0.2867
     60  CB        20.8010  163.5160  137.7920 C.3   305  GLU305      0.0388
     61  CG        20.0010  162.4500  138.5300 C.3   305  GLU305      0.1160
     62  CD        20.1990  162.3530  140.0320 C.2   305  GLU305      0.3649
     63  OE1       21.0860  163.0320  140.5590 O.co2 305  GLU305     -0.2457
     64  OE2       19.4560  161.5610  140.7120 O.co2 305  GLU305     -0.2457
     65  N         10.6900  167.0240  135.9440 N.3   338  TYR338     -0.1227
     66  CA         9.9500  166.3750  137.0460 C.3   338  TYR338      0.1736
     67  C         10.4740  166.8550  138.4070 C.2   338  TYR338      0.2595
     68  O          9.7010  167.2050  139.2880 O.2   338  TYR338     -0.2718
     69  CB        10.0650  164.8440  136.9700 C.3   338  TYR338      0.0548
     70  CG         9.2590  164.1640  138.0510 C.ar  338  TYR338     -0.0200
     71  CD1        7.8570  164.1800  138.0040 C.ar  338  TYR338     -0.0009
     72  CD2        9.8830  163.5440  139.1500 C.ar  338  TYR338     -0.0009
     73  CE1        7.0990  163.5810  138.9980 C.ar  338  TYR338      0.0417
     74  CE2        9.1230  162.9360  140.1510 C.ar  338  TYR338      0.0417
     75  CZ         7.7370  162.9620  140.0630 C.ar  338  TYR338      0.1957
     76  OH         6.9660  162.3740  141.0230 O.3   338  TYR338     -0.2866
     77  N         11.8020  166.9340  138.5180 N.am  339  PHE339     -0.1976
     78  CA        12.5020  167.2340  139.7680 C.3   339  PHE339      0.1639
     79  C         12.5390  168.7010  140.1900 C.2   339  PHE339      0.2290
     80  O         12.8750  168.9960  141.3250 O.2   339  PHE339     -0.2864
     81  CB        13.9010  166.6160  139.6810 C.3   339  PHE339      0.0560
     82  CG        13.8500  165.1270  139.4120 C.ar  339  PHE339     -0.0200
     83  CD1       13.5690  164.2290  140.4480 C.ar  339  PHE339     -0.0042
     84  CD2       13.9860  164.6320  138.1150 C.ar  339  PHE339     -0.0042
     85  CE1       13.4810  162.8570  140.2000 C.ar  339  PHE339     -0.0003
     86  CE2       13.9020  163.2710  137.8670 C.ar  339  PHE339     -0.0003
     87  CZ        13.6410  162.3770  138.9100 C.ar  339  PHE339     -0.0000
     88  N         26.4220  155.5990  139.4380 N.3   372  TRP372     -0.1241
     89  CA        25.1210  155.3830  138.8370 C.3   372  TRP372      0.1605
     90  C         24.7060  156.7240  138.2190 C.2   372  TRP372      0.2264
     91  O         24.6460  157.7040  138.9160 O.2   372  TRP372     -0.2867
     92  CB        24.1610  154.9190  139.9590 C.3   372  TRP372      0.0550
     93  CG        22.7130  154.6970  139.5800 C.ar  372  TRP372      0.0003
     94  CD1       22.2220  154.4760  138.3540 C.ar  372  TRP372      0.0946
     95  CD2       21.6060  154.5470  140.4830 C.ar  372  TRP372      0.0152
     96  NE1       20.8830  154.2110  138.4120 N.ar  372  TRP372     -0.2442
     97  CE2       20.4720  154.2510  139.7070 C.ar  372  TRP372      0.0810
     98  CE3       21.4640  154.6370  141.8640 C.ar  372  TRP372      0.0012
     99  CZ2       19.2080  154.0670  140.2600 C.ar  372  TRP372      0.0191
    100  CZ3       20.2190  154.4450  142.4110 C.ar  372  TRP372      0.0001
    101  CH2       19.1030  154.1570  141.6170 C.ar  372  TRP372      0.0015
    102  N         21.6820  158.4450  136.2650 N.3   374  ASP374     -0.1225
    103  CA        20.2960  158.2850  135.8880 C.3   374  ASP374      0.1805
    104  C         19.8900  159.4760  135.0200 C.2   374  ASP374      0.2597
    105  O         20.5270  160.5400  135.0920 O.2   374  ASP374     -0.2718
    106  CB        19.4530  158.2400  137.1550 C.3   374  ASP374      0.1424
    107  CG        18.0690  157.7160  136.9220 C.2   374  ASP374      0.3668
    108  OD1       17.7380  157.2630  135.8600 O.co2 374  ASP374     -0.2456
    109  OD2       17.1310  157.7790  137.9820 O.co2 374  ASP374     -0.2456
    110  N         18.8450  159.3060  134.2020 N.am  375  LEU375     -0.1979
    111  CA        18.2310  160.4260  133.4450 C.3   375  LEU375      0.1596
    112  C         19.0740  160.9610  132.2840 C.2   375  LEU375      0.2287
    113  O         18.8130  162.0840  131.8170 O.2   375  LEU375     -0.2864
    114  CB        17.8480  161.6020  134.3590 C.3   375  LEU375      0.0297
    115  CG        17.2490  161.2550  135.7090 C.3   375  LEU375      0.0022
    116  CD1       16.8720  162.5400  136.4190 C.3   375  LEU375      0.0001
    117  CD2       16.0330  160.3000  135.6310 C.3   375  LEU375      0.0001
    118  N         16.5360  163.0790  130.1150 N.3   379  GLU379     -0.1245
    119  CA        15.0930  162.8680  130.3000 C.3   379  GLU379      0.1567
    120  C         14.2570  164.0490  129.7930 C.2   379  GLU379      0.2260
    121  O         13.2130  163.8290  129.2550 O.2   379  GLU379     -0.2867
    122  CB        14.7430  162.6240  131.7590 C.3   379  GLU379      0.0388
    123  CG        13.2700  162.3310  132.0060 C.3   379  GLU379      0.1160
    124  CD        13.0570  161.8010  133.4020 C.2   379  GLU379      0.3649
    125  OE1       12.9310  162.6420  134.3390 O.co2 379  GLU379     -0.2457
    126  OE2       13.1080  160.5520  133.5600 O.co2 379  GLU379     -0.2457
    127  N         21.4800  154.5650  132.0320 N.3   425  ARG425     -0.1245
    128  CA        20.1770  154.2510  131.4500 C.3   425  ARG425      0.1563
    129  C         20.1070  154.5410  129.9420 C.2   425  ARG425      0.2260
    130  O         19.1710  154.1280  129.2370 O.2   425  ARG425     -0.2867
    131  CB        19.1910  155.2270  132.1290 C.3   425  ARG425      0.0307
    132  CG        17.8130  154.7510  132.2110 C.3   425  ARG425      0.0489
    133  CD        16.9920  155.5260  133.2140 C.3   425  ARG425      0.2205
    134  NE        16.5030  156.7830  132.7260 N.pl3 425  ARG425     -0.0865
    135  CZ        15.4580  157.4170  133.2540 C.cat 425  ARG425      0.5346
    136  NH1       14.8100  156.9110  134.3140 N.pl3 425  ARG425      0.1354
    137  NH2       15.0040  158.5370  132.6940 N.pl3 425  ARG425      0.1354
    138  N         20.6250  149.3770  132.3580 N.3   439  TRP439     -0.1241
    139  CA        19.4850  148.6830  132.8930 C.3   439  TRP439      0.1605
    140  C         18.2400  149.2210  132.1960 C.2   439  TRP439      0.2264
    141  O         18.2350  150.3740  131.7130 O.2   439  TRP439     -0.2867
    142  CB        19.3950  148.8110  134.4110 C.3   439  TRP439      0.0550
    143  CG        18.7290  150.0150  134.9040 C.ar  439  TRP439      0.0003
    144  CD1       17.4550  150.1050  135.3490 C.ar  439  TRP439      0.0946
    145  CD2       19.2990  151.3180  135.0490 C.ar  439  TRP439      0.0152
    146  NE1       17.1950  151.3530  135.7650 N.ar  439  TRP439     -0.2442
    147  CE2       18.2990  152.1380  135.5680 C.ar  439  TRP439      0.0810
    148  CE3       20.5600  151.8660  134.7840 C.ar  439  TRP439      0.0012
    149  CZ2       18.4880  153.4940  135.8020 C.ar  439  TRP439      0.0191
    150  CZ3       20.7580  153.2500  135.0200 C.ar  439  TRP439      0.0001
    151  CH2       19.7200  154.0400  135.5020 C.ar  439  TRP439      0.0015
    152  N         15.4380  150.5520  132.8790 N.3   441  GLY441     -0.1210
    153  CA        14.6060  151.6390  133.3690 C.3   441  GLY441      0.1956
    154  C         13.4730  151.2640  134.2970 C.2   441  GLY441      0.2611
    155  O         13.4880  150.1840  134.9530 O.2   441  GLY441     -0.2717
    156  N         12.4640  152.1360  134.3330 N.am  442  ASP442     -0.1973
    157  CA        11.4670  152.1370  135.3950 C.3   442  ASP442      0.1709
    158  C         10.2960  151.2000  135.0520 C.2   442  ASP442      0.2293
    159  O          9.1480  151.5920  134.9050 O.2   442  ASP442     -0.2864
    160  CB        11.0430  153.5910  135.7050 C.3   442  ASP442      0.1436
    161  CG        12.1860  154.4320  136.2550 C.2   442  ASP442      0.3671
    162  OD1       13.2230  153.8520  136.6540 O.co2 442  ASP442     -0.2456
    163  OD2       12.0620  155.6960  136.2840 O.co2 442  ASP442     -0.2456
    164  N         10.0640  147.9100  139.4250 N.3   475  PHE475     -0.1241
    165  CA        10.3460  149.2160  140.0190 C.3   475  PHE475      0.1605
    166  C          9.1450  150.0960  140.3460 C.2   475  PHE475      0.2264
    167  O          9.0630  150.6570  141.4320 O.2   475  PHE475     -0.2867
    168  CB        11.2030  149.9730  139.0250 C.3   475  PHE475      0.0534
    169  CG        11.4860  151.4040  139.4300 C.ar  475  PHE475     -0.0203
    170  CD1       12.5350  151.6970  140.2610 C.ar  475  PHE475     -0.0042
    171  CD2       10.6750  152.4300  138.9920 C.ar  475  PHE475     -0.0042
    172  CE1       12.8160  153.0070  140.6390 C.ar  475  PHE475     -0.0003
    173  CE2       10.9390  153.7540  139.3520 C.ar  475  PHE475     -0.0003
    174  CZ        12.0160  154.0360  140.1850 C.ar  475  PHE475     -0.0000
    175  N          5.4200  151.8870  140.8370 N.3   477  ASP477     -0.1239
    176  CA         4.0680  151.8520  141.3810 C.3   477  ASP477      0.1674
    177  C          3.8100  150.5470  142.1380 C.2   477  ASP477      0.2266
    178  O          4.7080  150.0650  142.8530 O.2   477  ASP477     -0.2867
    179  CB         3.0230  152.0900  140.2780 C.3   477  ASP477      0.1410
    180  CG         3.2930  153.3180  139.4400 C.2   477  ASP477      0.3668
    181  OD1        3.7490  154.3660  139.9360 O.co2 477  ASP477     -0.2456
    182  OD2        3.0050  153.2090  138.2400 O.co2 477  ASP477     -0.2456
    183  N         15.6770  146.2760  142.7150 N.3   502  HIS502     -0.1241
    184  CA        15.5360  147.7280  142.8590 C.3   502  HIS502      0.1621
    185  C         14.0910  148.1280  142.6190 C.2   502  HIS502      0.2264
    186  O         13.4730  147.6690  141.6750 O.2   502  HIS502     -0.2867
    187  CB        16.4580  148.4380  141.8960 C.3   502  HIS502      0.0745
    188  CG        16.3610  149.9420  141.9280 C.ar  502  HIS502      0.0817
    189  ND1       16.7290  150.7050  143.0180 N.ar  502  HIS502     -0.2268
    190  CD2       15.9710  150.8260  140.9750 C.ar  502  HIS502      0.1154
    191  CE1       16.5830  151.9880  142.7340 C.ar  502  HIS502      0.1986
    192  NE2       16.1130  152.0870  141.5070 N.ar  502  HIS502     -0.2212
    193  N         10.7320  151.1990  143.8940 N.3   504  GLN504     -0.1245
    194  CA        10.2320  152.2730  144.7410 C.3   504  GLN504      0.1566
    195  C          9.9360  151.7430  146.1380 C.2   504  GLN504      0.2260
    196  O          9.2730  150.7210  146.2570 O.2   504  GLN504     -0.2867
    197  CB         8.9840  152.8850  144.1190 C.3   504  GLN504      0.0367
    198  CG         9.2900  153.7340  142.8950 C.3   504  GLN504      0.0905
    199  CD         8.0350  154.1680  142.1370 C.2   504  GLN504      0.2608
    200  OE1        6.9160  153.7360  142.4050 O.2   504  GLN504     -0.2717
    201  NE2        8.2250  155.0350  141.2030 N.am  504  GLN504     -0.0878
@<TRIPOS>BOND
     1   130   129    2
     2   121   120    2
     3   120   119    1
     4   129   128    1
     5   118   119    1
     6   119   122    1
     7   128   127    1
     8   128   131    1
     9     1     2    1
    10   141   140    2
    11   122   123    1
    12   113   112    2
    13   123   124    1
    14   131   132    1
    15   140   139    1
    16   132   133    1
    17   112   111    1
    18   138   139    1
    19     4     3    2
    20   137   135    1
    21   134   133    1
    22   134   135    2
    23   152   153    1
    24   139   142    1
    25     2     3    1
    26     2     5    1
    27   135   136    1
    28   153   154    1
    29   124   126   ar
    30   124   125   ar
    31   111   110    1
    32   111   114    1
    33     5     6    1
    34   110   104   am
    35   154   156   am
    36   154   155    2
    37   156   157    1
    38   114   115    1
    39   142   143    1
    40   148   150   ar
    41   148   145   ar
    42   143   145   ar
    43   143   144   ar
    44   159   158    2
    45   104   105    2
    46   104   103    1
    47   150   151   ar
    48   145   147   ar
    49   158   157    1
    50     6     8   ar
    51     6     7   ar
    52   144   146   ar
    53   157   160    1
    54   151   149   ar
    55   147   146   ar
    56   147   149   ar
    57     8    10   ar
    58   117   115    1
    59   160   161    1
    60   115   116    1
    61   108   107   ar
    62   103   102    1
    63   103   106    1
    64    65    66    1
    65     7     9   ar
    66   161   163   ar
    67   161   162   ar
    68    58    59    2
    69    58    57    1
    70   107   106    1
    71   107   109   ar
    72    10    11   ar
    73    69    66    1
    74    69    70    1
    75    66    67    1
    76    57    60    1
    77    57    56    1
    78     9    11   ar
    79    60    61    1
    80    86    84   ar
    81    86    87   ar
    82    11    12    1
    83    71    70   ar
    84    71    73   ar
    85    70    72   ar
    86    84    82   ar
    87    90    89    1
    88    90    91    2
    89   182   180   ar
    90    94    96   ar
    91    94    93   ar
    92    67    77   am
    93    67    68    2
    94    96    97   ar
    95    77    78    1
    96    61    62    1
    97    89    88    1
    98    89    92    1
    99    87    85   ar
   100   171   173   ar
   101   171   169   ar
   102    73    75   ar
   103   168   169    1
   104   168   165    1
   105    72    74   ar
   106   173   174   ar
   107    82    81    1
   108    82    83   ar
   109   164   165    1
   110   169   170   ar
   111   180   181   ar
   112   180   179    1
   113    93    92    1
   114    93    95   ar
   115    81    78    1
   116    97    99   ar
   117    97    95   ar
   118    78    79    1
   119   165   166    1
   120    62    63   ar
   121    62    64   ar
   122    75    74   ar
   123    75    76    1
   124   174   172   ar
   125    79    80    2
   126    85    83   ar
   127    99   101   ar
   128   170   172   ar
   129   179   176    1
   130   166   167    2
   131    95    98   ar
   132    53    55    1
   133    53    52    1
   134   175   176    1
   135   190   192   ar
   136   190   188   ar
   137   201   199   am
   138   176   177    1
   139   192   191   ar
   140   101   100   ar
   141   186   185    2
   142    50    49    1
   143    50    51    2
   144    98   100   ar
   145   187   188    1
   146   187   184    1
   147   188   189   ar
   148    49    52    1
   149    49    48    1
   150   199   200    2
   151   199   198    1
   152   177   178    2
   153    52    54    1
   154   185   184    1
   155   183   184    1
   156   191   189   ar
   157   198   197    1
   158    22    20   ar
   159    22    23   ar
   160    39    37    1
   161    20    18   ar
   162    30    29   ar
   163    46    44    1
   164    31    29   ar
   165    23    21   ar
   166    43    42    2
   167   193   194    1
   168    29    28    1
   169   197   194    1
   170    18    17    1
   171    18    19   ar
   172    17    14    1
   173    36    37    1
   174    36    33    1
   175    37    38    1
   176    42    41    1
   177    21    19   ar
   178   194   195    1
   179    44    41    1
   180    44    45    1
   181    28    25    1
   182    25    26    1
   183    25    24    1
   184    32    33    1
   185    32    26   am
   186    33    34    1
   187    47    45    1
   188    41    40    1
   189    14    13    1
   190    14    15    1
   191    26    27    2
   192   195   196    2
   193    16    15    2
   194    34    35    2
