@<TRIPOS>MOLECULE
tmp/5i24A01.pdb
 156 150 0 0 0
SMALL
GASTEIGER

@<TRIPOS>ATOM
      1  N         14.7360  152.2120  145.7210 N.3   233  PHE233     -0.1241
      2  CA        14.5520  153.6760  145.5910 C.3   233  PHE233      0.1605
      3  C         13.6970  154.0690  146.7730 C.2   233  PHE233      0.2264
      4  O         12.4700  154.0040  146.6610 O.2   233  PHE233     -0.2867
      5  CB        13.8850  154.0540  144.2710 C.3   233  PHE233      0.0534
      6  CG        13.4880  155.5260  144.1440 C.ar  233  PHE233     -0.0203
      7  CD1       14.0770  156.5340  144.9100 C.ar  233  PHE233     -0.0042
      8  CD2       12.5040  155.8830  143.2400 C.ar  233  PHE233     -0.0042
      9  CE1       13.6480  157.8680  144.7630 C.ar  233  PHE233     -0.0003
     10  CE2       12.1070  157.2080  143.0880 C.ar  233  PHE233     -0.0003
     11  CZ        12.6700  158.1920  143.8710 C.ar  233  PHE233     -0.0000
     12  N         20.2990  155.5600  146.1830 N.3   261  ASP261     -0.1225
     13  CA        19.4980  156.3850  145.2770 C.3   261  ASP261      0.1805
     14  C         19.5320  157.8410  145.7940 C.2   261  ASP261      0.2597
     15  O         20.3330  158.2070  146.6890 O.2   261  ASP261     -0.2718
     16  CB        18.0690  155.8150  145.2290 C.3   261  ASP261      0.1424
     17  CG        17.3900  156.0640  143.9160 C.2   261  ASP261      0.3668
     18  OD1       17.5340  157.2100  143.3530 O.co2 261  ASP261     -0.2456
     19  OD2       16.7510  155.1090  143.4310 O.co2 261  ASP261     -0.2456
     20  N         18.6700  158.6660  145.2530 N.am  262  LEU262     -0.1979
     21  CA        18.8460  160.1440  145.3210 C.3   262  LEU262      0.1596
     22  C         18.6900  160.7660  146.7200 C.2   262  LEU262      0.2287
     23  O         18.9910  161.9700  146.9040 O.2   262  LEU262     -0.2864
     24  CB        17.9320  160.8290  144.3040 C.3   262  LEU262      0.0297
     25  CG        16.4380  160.5060  144.2590 C.3   262  LEU262      0.0022
     26  CD1       15.7290  160.9020  145.5450 C.3   262  LEU262      0.0001
     27  CD2       15.8010  161.1990  143.0730 C.3   262  LEU262      0.0001
     28  N         24.0910  157.1160  143.0360 N.3   303  ILE303     -0.1245
     29  CA        23.3900  157.6910  141.8860 C.3   303  ILE303      0.1561
     30  C         23.8530  159.1370  141.6220 C.2   303  ILE303      0.2260
     31  O         24.1600  159.9080  142.5290 O.2   303  ILE303     -0.2867
     32  CB        21.8610  157.6160  142.0670 C.3   303  ILE303      0.0252
     33  CG1       21.1260  157.7520  140.7260 C.3   303  ILE303      0.0019
     34  CG2       21.3390  158.7000  143.0170 C.3   303  ILE303      0.0019
     35  CD1       19.6380  157.4830  140.8810 C.3   303  ILE303      0.0001
     36  N         23.0290  162.2420  138.2830 N.3   305  GLU305     -0.1245
     37  CA        22.1480  162.5690  137.1710 C.3   305  GLU305      0.1567
     38  C         22.7550  163.7500  136.3610 C.2   305  GLU305      0.2260
     39  O         23.6680  164.4410  136.8370 O.2   305  GLU305     -0.2867
     40  CB        20.7620  162.9630  137.6700 C.3   305  GLU305      0.0388
     41  CG        19.9590  161.9100  138.4410 C.3   305  GLU305      0.1160
     42  CD        20.1260  161.9090  139.9620 C.2   305  GLU305      0.3649
     43  OE1       21.0060  162.6140  140.4770 O.co2 305  GLU305     -0.2457
     44  OE2       19.3810  161.1490  140.6780 O.co2 305  GLU305     -0.2457
     45  N         11.6130  167.4310  139.0910 N.3   339  PHE339     -0.1241
     46  CA        12.3530  167.7330  140.3260 C.3   339  PHE339      0.1605
     47  C         12.3930  169.2130  140.6370 C.2   339  PHE339      0.2264
     48  O         12.6800  169.6070  141.7730 O.2   339  PHE339     -0.2867
     49  CB        13.7770  167.1630  140.2230 C.3   339  PHE339      0.0534
     50  CG        13.8050  165.8130  139.5800 C.ar  339  PHE339     -0.0203
     51  CD1       13.4160  164.6720  140.3040 C.ar  339  PHE339     -0.0042
     52  CD2       14.1350  165.6750  138.2390 C.ar  339  PHE339     -0.0042
     53  CE1       13.3900  163.4200  139.6850 C.ar  339  PHE339     -0.0003
     54  CE2       14.0820  164.4430  137.6130 C.ar  339  PHE339     -0.0003
     55  CZ        13.7240  163.3220  138.3220 C.ar  339  PHE339     -0.0000
     56  N         26.4250  155.1120  139.3970 N.3   372  TRP372     -0.1241
     57  CA        25.1340  154.9060  138.7810 C.3   372  TRP372      0.1605
     58  C         24.7440  156.2490  138.1590 C.2   372  TRP372      0.2264
     59  O         24.7290  157.2450  138.8510 O.2   372  TRP372     -0.2867
     60  CB        24.1620  154.4850  139.8780 C.3   372  TRP372      0.0550
     61  CG        22.7560  154.2110  139.4860 C.ar  372  TRP372      0.0003
     62  CD1       22.2740  153.9790  138.2380 C.ar  372  TRP372      0.0946
     63  CD2       21.6470  154.0710  140.3720 C.ar  372  TRP372      0.0152
     64  NE1       20.9170  153.7060  138.2870 N.ar  372  TRP372     -0.2442
     65  CE2       20.5080  153.7690  139.5830 C.ar  372  TRP372      0.0810
     66  CE3       21.4930  154.1700  141.7530 C.ar  372  TRP372      0.0012
     67  CZ2       19.2310  153.5850  140.1350 C.ar  372  TRP372      0.0191
     68  CZ3       20.2070  153.9700  142.3010 C.ar  372  TRP372      0.0001
     69  CH2       19.1180  153.6560  141.4970 C.ar  372  TRP372      0.0015
     70  N         21.7370  157.9500  136.2720 N.3   374  ASP374     -0.1225
     71  CA        20.3510  157.8070  135.8580 C.3   374  ASP374      0.1805
     72  C         19.9180  159.0070  135.0000 C.2   374  ASP374      0.2597
     73  O         20.5350  160.0740  135.1020 O.2   374  ASP374     -0.2718
     74  CB        19.4840  157.7150  137.1030 C.3   374  ASP374      0.1424
     75  CG        18.1310  157.1480  136.8330 C.2   374  ASP374      0.3668
     76  OD1       17.8450  156.6530  135.7920 O.co2 374  ASP374     -0.2456
     77  OD2       17.1810  157.2000  137.8580 O.co2 374  ASP374     -0.2456
     78  N         18.8770  158.8190  134.1650 N.am  375  LEU375     -0.1979
     79  CA        18.2300  159.9130  133.3900 C.3   375  LEU375      0.1596
     80  C         19.0510  160.4620  132.2100 C.2   375  LEU375      0.2287
     81  O         18.7710  161.5730  131.7360 O.2   375  LEU375     -0.2864
     82  CB        17.7900  161.0610  134.3110 C.3   375  LEU375      0.0297
     83  CG        17.1930  160.7320  135.6890 C.3   375  LEU375      0.0022
     84  CD1       16.8210  162.0390  136.3590 C.3   375  LEU375      0.0001
     85  CD2       15.9760  159.8080  135.6690 C.3   375  LEU375      0.0001
     86  N         16.5060  162.5000  130.0280 N.3   379  GLU379     -0.1245
     87  CA        15.0420  162.2860  130.1940 C.3   379  GLU379      0.1567
     88  C         14.1970  163.4880  129.7220 C.2   379  GLU379      0.2260
     89  O         13.1340  163.2820  129.1620 O.2   379  GLU379     -0.2867
     90  CB        14.6890  161.9850  131.6370 C.3   379  GLU379      0.0388
     91  CG        13.2170  161.7550  131.9160 C.3   379  GLU379      0.1160
     92  CD        13.0390  161.1180  133.2700 C.2   379  GLU379      0.3649
     93  OE1       13.2640  159.9180  133.3880 O.co2 379  GLU379     -0.2457
     94  OE2       12.8320  161.8720  134.2560 O.co2 379  GLU379     -0.2457
     95  N         21.4740  154.2120  132.0190 N.3   425  ARG425     -0.1245
     96  CA        20.1760  153.8620  131.4020 C.3   425  ARG425      0.1563
     97  C         20.1190  154.0840  129.8820 C.2   425  ARG425      0.2260
     98  O         19.1930  153.6150  129.1950 O.2   425  ARG425     -0.2867
     99  CB        19.1010  154.7860  132.0320 C.3   425  ARG425      0.0307
    100  CG        17.7790  154.1410  132.2310 C.3   425  ARG425      0.0489
    101  CD        16.9100  154.9510  133.1740 C.3   425  ARG425      0.2205
    102  NE        16.4810  156.2350  132.6730 N.pl3 425  ARG425     -0.0865
    103  CZ        15.4430  156.8950  133.1800 C.cat 425  ARG425      0.5346
    104  NH1       14.7670  156.4000  134.2340 N.pl3 425  ARG425      0.1354
    105  NH2       15.0290  158.0330  132.6140 N.pl3 425  ARG425      0.1354
    106  N         20.6450  148.8820  132.2910 N.3   439  TRP439     -0.1241
    107  CA        19.4920  148.1640  132.8090 C.3   439  TRP439      0.1605
    108  C         18.2420  148.7030  132.1100 C.2   439  TRP439      0.2264
    109  O         18.2320  149.8470  131.6110 O.2   439  TRP439     -0.2867
    110  CB        19.4030  148.2650  134.3160 C.3   439  TRP439      0.0550
    111  CG        18.7270  149.4740  134.8270 C.ar  439  TRP439      0.0003
    112  CD1       17.4540  149.5610  135.2970 C.ar  439  TRP439      0.0946
    113  CD2       19.3060  150.7640  134.9840 C.ar  439  TRP439      0.0152
    114  NE1       17.1860  150.8380  135.6760 N.ar  439  TRP439     -0.2442
    115  CE2       18.3030  151.6050  135.4860 C.ar  439  TRP439      0.0810
    116  CE3       20.5520  151.3130  134.6680 C.ar  439  TRP439      0.0012
    117  CZ2       18.5070  152.9630  135.7110 C.ar  439  TRP439      0.0191
    118  CZ3       20.7630  152.6840  134.9130 C.ar  439  TRP439      0.0001
    119  CH2       19.7320  153.4900  135.4050 C.ar  439  TRP439      0.0015
    120  N         12.4590  151.6250  134.2860 N.3   442  ASP442     -0.1239
    121  CA        11.4370  151.6570  135.3150 C.3   442  ASP442      0.1674
    122  C         10.2650  150.7400  134.9660 C.2   442  ASP442      0.2266
    123  O          9.1140  151.1410  134.8610 O.2   442  ASP442     -0.2867
    124  CB        11.0120  153.1130  135.6000 C.3   442  ASP442      0.1410
    125  CG        12.1680  153.9620  136.1790 C.2   442  ASP442      0.3668
    126  OD1       13.1770  153.3800  136.6570 O.co2 442  ASP442     -0.2456
    127  OD2       12.0620  155.2090  136.1660 O.co2 442  ASP442     -0.2456
    128  N         15.7720  145.5070  136.7390 N.3   471  ASP471     -0.1239
    129  CA        15.4540  145.6610  138.1460 C.3   471  ASP471      0.1674
    130  C         14.7340  144.3760  138.5960 C.2   471  ASP471      0.2266
    131  O         13.5430  144.1800  138.3060 O.2   471  ASP471     -0.2867
    132  CB        14.5110  146.8290  138.4020 C.3   471  ASP471      0.1410
    133  CG        15.1100  148.1880  138.1220 C.2   471  ASP471      0.3668
    134  OD1       16.3290  148.3520  137.9800 O.co2 471  ASP471     -0.2456
    135  OD2       14.2570  149.1010  138.1030 O.co2 471  ASP471     -0.2456
    136  N         10.1270  147.4070  139.3120 N.3   475  PHE475     -0.1241
    137  CA        10.3540  148.7250  139.8780 C.3   475  PHE475      0.1605
    138  C          9.1330  149.5700  140.2190 C.2   475  PHE475      0.2264
    139  O          9.0470  150.1100  141.3050 O.2   475  PHE475     -0.2867
    140  CB        11.1950  149.5180  138.8900 C.3   475  PHE475      0.0534
    141  CG        11.4840  150.9490  139.3370 C.ar  475  PHE475     -0.0203
    142  CD1       12.5530  151.2300  140.1640 C.ar  475  PHE475     -0.0042
    143  CD2       10.6660  151.9940  138.9340 C.ar  475  PHE475     -0.0042
    144  CE1       12.8420  152.5310  140.5630 C.ar  475  PHE475     -0.0003
    145  CE2       10.9400  153.3050  139.3250 C.ar  475  PHE475     -0.0003
    146  CZ        12.0080  153.5710  140.1620 C.ar  475  PHE475     -0.0000
    147  N         15.7120  145.7430  142.5850 N.3   502  HIS502     -0.1241
    148  CA        15.5510  147.2050  142.7720 C.3   502  HIS502      0.1621
    149  C         14.0960  147.6180  142.5250 C.2   502  HIS502      0.2264
    150  O         13.4890  147.1310  141.6220 O.2   502  HIS502     -0.2867
    151  CB        16.4880  147.9270  141.8340 C.3   502  HIS502      0.0745
    152  CG        16.3650  149.4240  141.8510 C.ar  502  HIS502      0.0817
    153  ND1       16.7650  150.2040  142.9180 N.ar  502  HIS502     -0.2268
    154  CD2       16.0040  150.2890  140.8720 C.ar  502  HIS502      0.1154
    155  CE1       16.6140  151.4760  142.6160 C.ar  502  HIS502      0.1986
    156  NE2       16.1430  151.5550  141.3890 N.ar  502  HIS502     -0.2212
@<TRIPOS>BOND
     1    89    88    2
     2    98    97    2
     3    88    87    1
     4    97    96    1
     5    86    87    1
     6    87    90    1
     7    96    95    1
     8    96    99    1
     9   109   108    2
    10    90    91    1
    11    81    80    2
    12    91    92    1
    13    99   100    1
    14   108   107    1
    15    80    79    1
    16   100   101    1
    17   106   107    1
    18   105   103    1
    19   102   101    1
    20   102   103    2
    21   107   110    1
    22   103   104    1
    23    92    93   ar
    24    92    94   ar
    25    79    78    1
    26    79    82    1
    27    78    72   am
    28   120   121    1
    29    82    83    1
    30   110   111    1
    31   116   118   ar
    32   116   113   ar
    33   111   113   ar
    34   111   112   ar
    35   123   122    2
    36   118   119   ar
    37   122   121    1
    38   113   115   ar
    39    72    73    2
    40    72    71    1
    41   112   114   ar
    42   121   124    1
    43   119   117   ar
    44   115   114   ar
    45   115   117   ar
    46   124   125    1
    47    85    83    1
    48    83    84    1
    49    76    75   ar
    50    71    70    1
    51    71    74    1
    52   127   125   ar
    53   125   126   ar
    54    38    39    2
    55    38    37    1
    56   128   129    1
    57    75    74    1
    58    75    77   ar
    59    37    40    1
    60    37    36    1
    61    54    52   ar
    62    54    55   ar
    63    40    41    1
    64   134   133   ar
    65   135   133   ar
    66   133   132    1
    67   129   132    1
    68   129   130    1
    69    58    57    1
    70    58    59    2
    71    62    64   ar
    72    62    61   ar
    73    52    50   ar
    74    64    65   ar
    75   131   130    2
    76    55    53   ar
    77    41    42    1
    78    57    56    1
    79    57    60    1
    80   140   141    1
    81   140   137    1
    82   143   145   ar
    83   143   141   ar
    84    45    46    1
    85   136   137    1
    86   145   146   ar
    87   141   142   ar
    88    61    60    1
    89    61    63   ar
    90    50    49    1
    91    50    51   ar
    92    65    67   ar
    93    65    63   ar
    94    53    51   ar
    95   137   138    1
    96    42    43   ar
    97    42    44   ar
    98    67    69   ar
    99   146   144   ar
   100   142   144   ar
   101   138   139    2
   102    49    46    1
   103    46    47    1
   104    63    66   ar
   105    47    48    2
   106    33    35    1
   107    33    32    1
   108   154   156   ar
   109   154   152   ar
   110   156   155   ar
   111    69    68   ar
   112   150   149    2
   113    30    29    1
   114    30    31    2
   115    66    68   ar
   116   151   152    1
   117   151   148    1
   118   152   153   ar
   119    29    32    1
   120    29    28    1
   121    32    34    1
   122   149   148    1
   123   147   148    1
   124   155   153   ar
   125    27    25    1
   126    10     8   ar
   127    10    11   ar
   128     8     6   ar
   129    18    17   ar
   130    19    17   ar
   131    11     9   ar
   132    17    16    1
   133     6     5    1
   134     6     7   ar
   135    25    24    1
   136    25    26    1
   137     5     2    1
   138    24    21    1
   139     9     7   ar
   140    16    13    1
   141    20    21    1
   142    20    14   am
   143    13    14    1
   144    13    12    1
   145    21    22    1
   146     2     1    1
   147     2     3    1
   148    14    15    2
   149     4     3    2
   150    22    23    2
