@<TRIPOS>MOLECULE
tmp/5i24A02.pdb
 93 89 0 0 0
SMALL
GASTEIGER

@<TRIPOS>ATOM
      1  N         27.6170  109.5340  125.1990 N.3   659  ALA659     -0.1245
      2  CA        28.3650  109.0110  124.0310 C.3   659  ALA659      0.1562
      3  C         28.1240  109.8170  122.7400 C.2   659  ALA659      0.2260
      4  O         28.9720  109.8260  121.8540 O.2   659  ALA659     -0.2867
      5  CB        28.0560  107.5250  123.8240 C.3   659  ALA659      0.0290
      6  N         35.4220  110.8680  124.6690 N.3   693  HIS693     -0.1226
      7  CA        34.4720  109.8550  125.1210 C.3   693  HIS693      0.1752
      8  C         34.2810  108.8640  123.9610 C.2   693  HIS693      0.2597
      9  O         33.6870  109.1950  122.9440 O.2   693  HIS693     -0.2718
     10  CB        33.1550  110.5420  125.5320 C.3   693  HIS693      0.0759
     11  CG        32.1430  109.6260  126.1440 C.ar  693  HIS693      0.0818
     12  ND1       31.1110  110.0950  126.9220 N.ar  693  HIS693     -0.2268
     13  CD2       32.0300  108.2670  126.1430 C.ar  693  HIS693      0.1154
     14  CE1       30.3840  109.0720  127.3520 C.ar  693  HIS693      0.1986
     15  NE2       30.9170  107.9520  126.8850 N.ar  693  HIS693     -0.2212
     16  N         34.7990  107.6370  124.1230 N.am  694  THR694     -0.1939
     17  CA        34.6740  106.6000  123.1090 C.3   694  THR694      0.2028
     18  C         33.8910  105.4460  123.7220 C.2   694  THR694      0.2642
     19  O         33.4620  105.5670  124.8530 O.2   694  THR694     -0.2714
     20  CB        36.0520  106.1350  122.6350 C.3   694  THR694      0.1808
     21  OG1       36.7630  105.6160  123.7550 O.3   694  THR694     -0.2208
     22  CG2       36.8280  107.2830  121.9770 C.3   694  THR694      0.0379
     23  N         33.6840  104.3610  122.9680 N.am  695  ASP695     -0.1971
     24  CA        32.8690  103.2490  123.4120 C.3   695  ASP695      0.1709
     25  C         33.4060  102.6550  124.7120 C.2   695  ASP695      0.2293
     26  O         32.6220  102.2480  125.5730 O.2   695  ASP695     -0.2864
     27  CB        32.8250  102.1030  122.3770 C.3   695  ASP695      0.1436
     28  CG        32.2090  102.5010  121.0300 C.2   695  ASP695      0.3671
     29  OD1       31.6320  103.6230  120.8650 O.co2 695  ASP695     -0.2456
     30  OD2       32.3500  101.6680  120.0920 O.co2 695  ASP695     -0.2456
     31  N         25.8040  110.8070  134.3320 N.3   724  ASN724     -0.1240
     32  CA        25.4530  109.7990  133.3400 C.3   724  ASN724      0.1653
     33  C         26.6550  108.8920  133.0020 C.2   724  ASN724      0.2266
     34  O         26.8230  108.4750  131.8810 O.2   724  ASN724     -0.2867
     35  CB        24.8660  110.4610  132.1050 C.3   724  ASN724      0.1155
     36  CG        24.2560  109.4620  131.1320 C.2   724  ASN724      0.2627
     37  OD1       23.5790  108.5140  131.5310 O.2   724  ASN724     -0.2716
     38  ND2       24.5250  109.6540  129.8590 N.am  724  ASN724     -0.0877
     39  N         28.9690  105.7240  132.7490 N.3   726  SER726     -0.1202
     40  CA        28.7880  104.2810  132.5340 C.3   726  SER726      0.2020
     41  C         29.0230  103.5460  133.8250 C.2   726  SER726      0.2619
     42  O         29.9550  103.8790  134.5450 O.2   726  SER726     -0.2717
     43  CB        29.7970  103.7520  131.5140 C.3   726  SER726      0.2103
     44  OG        29.6970  102.3330  131.3170 O.3   726  SER726     -0.2182
     45  N         28.2170  102.5170  134.0740 N.am  727  ASP727     -0.1959
     46  CA        28.4720  101.6140  135.1890 C.3   727  ASP727      0.1840
     47  C         29.5350  100.5240  134.8870 C.2   727  ASP727      0.2622
     48  O         29.7250   99.6230  135.7260 O.2   727  ASP727     -0.2715
     49  CB        27.1510  101.0110  135.6890 C.3   727  ASP727      0.1450
     50  CG        26.4100  100.1820  134.6460 C.2   727  ASP727      0.3671
     51  OD1       27.0030   99.7590  133.6230 O.co2 727  ASP727     -0.2456
     52  OD2       25.1910   99.9260  134.8650 O.co2 727  ASP727     -0.2456
     53  N         30.1930  100.6020  133.7320 N.am  728  GLN728     -0.1963
     54  CA        31.1440   99.6010  133.2850 C.3   728  GLN728      0.1733
     55  C         32.6070  100.0360  133.3850 C.2   728  GLN728      0.2616
     56  O         33.4770   99.2890  132.9500 O.2   728  GLN728     -0.2715
     57  CB        30.8340   99.2140  131.8450 C.3   728  GLN728      0.0408
     58  CG        29.5200   98.4660  131.6750 C.3   728  GLN728      0.0908
     59  CD        29.5840   97.0850  132.2670 C.2   728  GLN728      0.2608
     60  OE1       28.8320   96.7430  133.1710 O.2   728  GLN728     -0.2717
     61  NE2       30.5310   96.2950  131.7960 N.am  728  GLN728     -0.0878
     62  N         32.8950  101.2190  133.9300 N.am  729  TYR729     -0.1974
     63  CA        34.2950  101.6390  134.1200 C.3   729  TYR729      0.1639
     64  C         34.8550  100.8630  135.3390 C.2   729  TYR729      0.2290
     65  O         34.2540  100.8470  136.4020 O.2   729  TYR729     -0.2864
     66  CB        34.4270  103.1260  134.3420 C.3   729  TYR729      0.0560
     67  CG        33.9810  103.9780  133.1670 C.ar  729  TYR729     -0.0198
     68  CD1       34.4660  103.7400  131.8640 C.ar  729  TYR729     -0.0009
     69  CD2       33.1090  105.0570  133.3490 C.ar  729  TYR729     -0.0009
     70  CE1       34.0740  104.5380  130.7990 C.ar  729  TYR729      0.0417
     71  CE2       32.7320  105.8660  132.2760 C.ar  729  TYR729      0.0417
     72  CZ        33.1950  105.6010  131.0180 C.ar  729  TYR729      0.1957
     73  OH        32.7690  106.3700  129.9500 O.3   729  TYR729     -0.2866
     74  N         23.9540  107.2830  139.0520 N.3   760  ARG760     -0.1197
     75  CA        24.7780  107.2270  137.8230 C.3   760  ARG760      0.1779
     76  C         25.8210  108.3520  137.7800 C.2   760  ARG760      0.2305
     77  O         25.9980  109.0150  136.7300 O.2   760  ARG760     -0.2863
     78  CB        23.9160  107.2070  136.5250 C.2   760  ARG760     -0.0007
     79  CG        23.0130  105.9550  136.3320 C.2   760  ARG760      0.0176
     80  CD        22.3010  105.8350  134.9340 C.3   760  ARG760      0.2464
     81  NE        23.1380  106.1560  133.7260 N.pl3 760  ARG760     -0.0815
     82  CZ        24.1480  105.4090  133.2170 C.cat 760  ARG760      0.5349
     83  NH1       24.5220  104.2620  133.7960 N.pl3 760  ARG760      0.1354
     84  NH2       24.8290  105.8180  132.1180 N.pl3 760  ARG760      0.1354
     85  N         36.8130  100.7140  130.4990 N.3   779  LYS779     -0.1245
     86  CA        35.9730   99.5670  130.7650 C.3   779  LYS779      0.1561
     87  C         36.8540   98.3060  130.8380 C.2   779  LYS779      0.2260
     88  O         36.3630   97.3010  131.3660 O.2   779  LYS779     -0.2867
     89  CB        34.8860   99.4310  129.6870 C.3   779  LYS779      0.0271
     90  CG        33.9350  100.6280  129.6520 C.3   779  LYS779      0.0035
     91  CD        32.8350  100.4550  128.6380 C.3   779  LYS779      0.0206
     92  CE        31.9320  101.6870  128.6310 C.3   779  LYS779      0.1093
     93  NZ        30.9270  101.5550  127.5470 N.3   779  LYS779     -0.1314
@<TRIPOS>BOND
     1    30    28   ar
     2    29    28   ar
     3    28    27    1
     4     4     3    2
     5    22    20    1
     6    27    24    1
     7    20    17    1
     8    20    21    1
     9     3     2    1
    10     9     8    2
    11    23    24    1
    12    23    18   am
    13    17    18    1
    14    17    16    1
    15    24    25    1
    16    18    19    2
    17     5     2    1
    18     8    16   am
    19     8     7    1
    20     2     1    1
    21     6     7    1
    22    25    26    2
    23     7    10    1
    24    10    11    1
    25    13    11   ar
    26    13    15   ar
    27    11    12   ar
    28    15    14   ar
    29    12    14   ar
    30    93    92    1
    31    92    91    1
    32    91    90    1
    33    90    89    1
    34    89    86    1
    35    38    36   am
    36    73    72    1
    37    85    86    1
    38    86    87    1
    39    70    72   ar
    40    70    68   ar
    41    87    88    2
    42    72    71   ar
    43    36    37    2
    44    36    35    1
    45    44    43    1
    46    43    40    1
    47    58    57    1
    48    58    59    1
    49    61    59   am
    50    57    54    1
    51    68    67   ar
    52    34    33    2
    53    35    32    1
    54    84    82    1
    55    59    60    2
    56    71    69   ar
    57    40    39    1
    58    40    41    1
    59    56    55    2
    60    33    32    1
    61    67    69   ar
    62    67    66    1
    63    82    81    2
    64    82    83    1
    65    54    55    1
    66    54    53    1
    67    32    31    1
    68    55    62   am
    69    51    50   ar
    70    81    80    1
    71    53    47   am
    72    41    45   am
    73    41    42    2
    74    62    63    1
    75    45    46    1
    76    63    66    1
    77    63    64    1
    78    50    52   ar
    79    50    49    1
    80    47    46    1
    81    47    48    2
    82    80    79    1
    83    46    49    1
    84    64    65    2
    85    79    78    2
    86    78    75    1
    87    77    76    2
    88    76    75    1
    89    75    74    1
