@<TRIPOS>MOLECULE
tmp/5i24A00.pdb
 115 113 0 0 0
SMALL
GASTEIGER

@<TRIPOS>ATOM
      1  N         13.3650  129.8770  149.4500 N.3   521  ILE521     -0.1245
      2  CA        13.5100  129.6380  148.0240 C.3   521  ILE521      0.1561
      3  C         14.7140  130.3910  147.4390 C.2   521  ILE521      0.2260
      4  O         15.5120  129.8090  146.7000 O.2   521  ILE521     -0.2867
      5  CB        12.2250  129.9910  147.2450 C.3   521  ILE521      0.0252
      6  CG1       11.1080  129.0260  147.6560 C.3   521  ILE521      0.0019
      7  CG2       12.4870  129.9580  145.7430 C.3   521  ILE521      0.0019
      8  CD1        9.7180  129.4190  147.2120 C.3   521  ILE521      0.0001
      9  N         19.2480  129.7790  148.7520 N.3   524  PRO524     -0.2102
     10  CA        20.1280  128.8540  148.0000 C.3   524  PRO524      0.1504
     11  C         20.4060  129.2460  146.5480 C.2   524  PRO524      0.2575
     12  O         21.4520  128.8780  145.9860 O.2   524  PRO524     -0.2718
     13  CB        19.4040  127.5160  148.0860 C.3   524  PRO524      0.0282
     14  CG        18.0090  127.7980  148.5190 C.3   524  PRO524      0.0208
     15  CD        17.9780  129.1580  149.1520 C.3   524  PRO524      0.0893
     16  N         19.5010  130.0110  145.9300 N.am  525  LEU525     -0.1980
     17  CA        19.7340  130.4770  144.5690 C.3   525  LEU525      0.1596
     18  C         20.7170  131.6480  144.4660 C.2   525  LEU525      0.2287
     19  O         21.5130  131.7260  143.5170 O.2   525  LEU525     -0.2864
     20  CB        18.4010  130.8180  143.8800 C.3   525  LEU525      0.0297
     21  CG        17.5010  129.6120  143.6860 C.3   525  LEU525      0.0022
     22  CD1       16.1310  130.0120  143.1900 C.3   525  LEU525      0.0001
     23  CD2       18.1500  128.6370  142.7040 C.3   525  LEU525      0.0001
     24  N         23.8770  129.9990  144.9110 N.3   528  LEU528     -0.1245
     25  CA        24.2040  129.3620  143.6440 C.3   528  LEU528      0.1561
     26  C         24.8730  130.3230  142.6960 C.2   528  LEU528      0.2260
     27  O         25.8400  129.9640  142.0520 O.2   528  LEU528     -0.2867
     28  CB        22.9710  128.7520  142.9500 C.3   528  LEU528      0.0270
     29  CG        23.1760  128.1080  141.5720 C.3   528  LEU528      0.0019
     30  CD1       24.0490  126.8760  141.7080 C.3   528  LEU528      0.0001
     31  CD2       21.8580  127.7000  140.9370 C.3   528  LEU528      0.0001
     32  N         28.3310  130.4350  143.8340 N.3   531  ARG531     -0.1245
     33  CA        29.0140  129.1600  143.5600 C.3   531  ARG531      0.1563
     34  C         29.3790  129.0200  142.0760 C.2   531  ARG531      0.2260
     35  O         30.4350  128.4780  141.7370 O.2   531  ARG531     -0.2867
     36  CB        28.1990  127.9690  144.1150 C.3   531  ARG531      0.0307
     37  CG        28.0300  128.1580  145.5960 C.3   531  ARG531      0.0489
     38  CD        27.4930  127.0440  146.4380 C.3   531  ARG531      0.2205
     39  NE        26.2280  126.5550  146.0350 N.pl3 531  ARG531     -0.0865
     40  CZ        26.0420  125.5090  145.2440 C.cat 531  ARG531      0.5346
     41  NH1       24.7850  125.1140  144.9570 N.pl3 531  ARG531      0.1354
     42  NH2       27.0900  124.8640  144.7350 N.pl3 531  ARG531      0.1354
     43  N         18.9440  120.4370  134.9890 N.3   602  PHE602     -0.1227
     44  CA        19.9400  121.0110  135.9040 C.3   602  PHE602      0.1736
     45  C         19.6810  120.6640  137.3500 C.2   602  PHE602      0.2595
     46  O         20.6300  120.4270  138.0850 O.2   602  PHE602     -0.2718
     47  CB        19.9380  122.5400  135.7600 C.3   602  PHE602      0.0547
     48  CG        21.0340  123.2660  136.4850 C.ar  602  PHE602     -0.0202
     49  CD1       22.3790  122.9230  136.3080 C.ar  602  PHE602     -0.0042
     50  CD2       20.7330  124.3410  137.2810 C.ar  602  PHE602     -0.0042
     51  CE1       23.3920  123.6410  136.9240 C.ar  602  PHE602     -0.0003
     52  CE2       21.7380  125.0800  137.8970 C.ar  602  PHE602     -0.0003
     53  CZ        23.0780  124.7460  137.7050 C.ar  602  PHE602     -0.0000
     54  N         18.4060  120.6680  137.7550 N.am  603  TRP603     -0.1976
     55  CA        18.0290  120.5100  139.1510 C.3   603  TRP603      0.1640
     56  C         17.8990  119.0550  139.5590 C.2   603  TRP603      0.2290
     57  O         18.1360  118.7460  140.7040 O.2   603  TRP603     -0.2864
     58  CB        16.7010  121.2080  139.4610 C.3   603  TRP603      0.0576
     59  CG        16.6150  122.5740  138.8790 C.ar  603  TRP603      0.0006
     60  CD1       15.8720  122.9580  137.8270 C.ar  603  TRP603      0.0946
     61  CD2       17.3590  123.7110  139.2950 C.ar  603  TRP603      0.0152
     62  NE1       16.0790  124.3060  137.5540 N.ar  603  TRP603     -0.2442
     63  CE2       16.9910  124.7850  138.4570 C.ar  603  TRP603      0.0810
     64  CE3       18.2830  123.9430  140.3220 C.ar  603  TRP603      0.0012
     65  CZ2       17.5160  126.0550  138.6130 C.ar  603  TRP603      0.0191
     66  CZ3       18.8100  125.2010  140.4590 C.ar  603  TRP603      0.0001
     67  CH2       18.4160  126.2390  139.6180 C.ar  603  TRP603      0.0015
     68  N         10.1110  126.4080  143.5180 N.3   622  HIS622     -0.1226
     69  CA        11.4570  126.5020  144.0290 C.3   622  HIS622      0.1752
     70  C         12.5070  126.7820  142.9370 C.2   622  HIS622      0.2596
     71  O         13.5800  127.3000  143.2460 O.2   622  HIS622     -0.2718
     72  CB        11.7730  125.2000  144.7870 C.3   622  HIS622      0.0759
     73  CG        10.6990  124.7850  145.7590 C.ar  622  HIS622      0.0818
     74  ND1        9.5060  124.2050  145.3620 N.ar  622  HIS622     -0.2268
     75  CD2       10.6360  124.8810  147.1090 C.ar  622  HIS622      0.1154
     76  CE1        8.7600  123.9570  146.4260 C.ar  622  HIS622      0.1986
     77  NE2        9.4340  124.3410  147.5000 N.ar  622  HIS622     -0.2212
     78  N         12.1960  126.4500  141.6810 N.am  623  THR623     -0.1953
     79  CA        13.1280  126.6040  140.5510 C.3   623  THR623      0.1897
     80  C         12.4400  127.1330  139.3130 C.2   623  THR623      0.2313
     81  O         11.2060  127.2680  139.2790 O.2   623  THR623     -0.2863
     82  CB        13.8270  125.2550  140.1440 C.3   623  THR623      0.1794
     83  OG1       12.8810  124.2960  139.7030 O.3   623  THR623     -0.2208
     84  CG2       14.6490  124.6920  141.2710 C.3   623  THR623      0.0378
     85  N         32.2180  124.9920  139.8160 N.3   636  TYR636     -0.1241
     86  CA        31.7750  125.6790  141.0110 C.3   636  TYR636      0.1605
     87  C         32.8850  125.8490  142.0330 C.2   636  TYR636      0.2264
     88  O         33.8380  124.9950  142.1170 O.2   636  TYR636     -0.2867
     89  CB        30.6730  124.9070  141.6820 C.3   636  TYR636      0.0534
     90  CG        29.5110  124.5490  140.8110 C.ar  636  TYR636     -0.0201
     91  CD1       28.4050  125.3990  140.6990 C.ar  636  TYR636     -0.0009
     92  CD2       29.4810  123.3250  140.1140 C.ar  636  TYR636     -0.0009
     93  CE1       27.2990  125.0480  139.8940 C.ar  636  TYR636      0.0417
     94  CE2       28.4100  122.9870  139.2960 C.ar  636  TYR636      0.0417
     95  CZ        27.3070  123.8330  139.1860 C.ar  636  TYR636      0.1957
     96  OH        26.2370  123.4310  138.3920 O.3   636  TYR636     -0.2866
     97  N         34.8610  122.3350  142.2190 N.3   652  GLU652     -0.1245
     98  CA        33.9540  121.2240  142.0140 C.3   652  GLU652      0.1567
     99  C         33.4320  121.3780  140.6130 C.2   652  GLU652      0.2260
    100  O         32.8870  122.4560  140.2620 O.2   652  GLU652     -0.2867
    101  CB        32.8360  121.2250  143.0580 C.3   652  GLU652      0.0388
    102  CG        31.8150  120.1410  142.8270 C.3   652  GLU652      0.1160
    103  CD        30.8130  119.9780  143.9440 C.2   652  GLU652      0.3649
    104  OE1       30.9300  120.6540  144.9830 O.co2 652  GLU652     -0.2457
    105  OE2       29.8820  119.1810  143.7240 O.co2 652  GLU652     -0.2457
    106  N         31.2970  119.5930  137.3460 N.3   654  HIS654     -0.1241
    107  CA        30.3190  118.5830  136.9630 C.3   654  HIS654      0.1621
    108  C         30.3700  118.4540  135.4670 C.2   654  HIS654      0.2264
    109  O         30.1280  119.4640  134.7500 O.2   654  HIS654     -0.2867
    110  CB        28.9150  118.9620  137.4690 C.3   654  HIS654      0.0745
    111  CG        28.8040  118.8580  138.9540 C.ar  654  HIS654      0.0817
    112  ND1       27.9240  118.0060  139.5730 N.ar  654  HIS654     -0.2268
    113  CD2       29.5790  119.3570  139.9430 C.ar  654  HIS654      0.1154
    114  CE1       28.1310  117.9960  140.8740 C.ar  654  HIS654      0.1986
    115  NE2       29.1020  118.8440  141.1310 N.ar  654  HIS654     -0.2212
@<TRIPOS>BOND
     1   109   108    2
     2    43    44    1
     3   108   107    1
     4    47    44    1
     5    47    48    1
     6    44    45    1
     7    49    48   ar
     8    49    51   ar
     9    48    50   ar
    10    51    53   ar
    11   107   106    1
    12   107   110    1
    13    50    52   ar
    14    45    54   am
    15    45    46    2
    16   110   111    1
    17    62    60   ar
    18    62    63   ar
    19    53    52   ar
    20    54    55    1
    21    60    59   ar
    22    96    95    1
    23    63    65   ar
    24    63    61   ar
    25    65    67   ar
    26    59    61   ar
    27    59    58    1
    28   111   112   ar
    29   111   113   ar
    30    55    58    1
    31    55    56    1
    32    95    94   ar
    33    95    93   ar
    34    81    80    2
    35    61    64   ar
    36    94    92   ar
    37    80    79    1
    38    56    57    2
    39   112   114   ar
    40    67    66   ar
    41    83    82    1
    42    85    86    1
    43    93    91   ar
    44   113   115   ar
    45    92    90   ar
    46    82    79    1
    47    82    84    1
    48   100    99    2
    49    64    66   ar
    50    79    78    1
    51    99    98    1
    52    91    90   ar
    53    90    89    1
    54   114   115   ar
    55    31    29    1
    56    86    89    1
    57    86    87    1
    58    29    30    1
    59    29    28    1
    60    78    70   am
    61    35    34    2
    62    98    97    1
    63    98   101    1
    64    87    88    2
    65    27    26    2
    66    34    33    1
    67    26    25    1
    68    23    21    1
    69   102   101    1
    70   102   103    1
    71    70    71    2
    72    70    69    1
    73    28    25    1
    74    22    21    1
    75    19    18    2
    76    68    69    1
    77    33    32    1
    78    33    36    1
    79    25    24    1
    80    21    20    1
    81   105   103   ar
    82    20    17    1
    83   103   104   ar
    84    69    72    1
    85    36    37    1
    86    18    17    1
    87    17    16    1
    88    42    40    1
    89    72    73    1
    90    41    40    1
    91    40    39    2
    92    74    73   ar
    93    74    76   ar
    94    37    38    1
    95     7     5    1
    96    73    75   ar
    97    16    11   am
    98    12    11    2
    99    39    38    1
   100    76    77   ar
   101    11    10    1
   102     4     3    2
   103    75    77   ar
   104     8     6    1
   105     5     6    1
   106     5     2    1
   107     3     2    1
   108    10    13    1
   109    10     9    1
   110     2     1    1
   111    13    14    1
   112    14    15    1
   113     9    15    1
