@<TRIPOS>MOLECULE
tmp/5i25A00.pdb
 170 161 0 0 0
SMALL
GASTEIGER

@<TRIPOS>ATOM
      1  N         16.1260  -33.5210  -10.0670 N.3   101  ASP101     -0.1239
      2  CA        16.0130  -33.1350   -8.6640 C.3   101  ASP101      0.1674
      3  C         17.4070  -33.0750   -8.0770 C.2   101  ASP101      0.2266
      4  O         18.1220  -34.0860   -8.0150 O.2   101  ASP101     -0.2867
      5  CB        15.1420  -34.1110   -7.8670 C.3   101  ASP101      0.1410
      6  CG        15.0470  -33.7490   -6.3730 C.2   101  ASP101      0.3668
      7  OD1       15.9550  -34.1240   -5.6070 O.co2 101  ASP101     -0.2456
      8  OD2       14.0550  -33.1140   -5.9430 O.co2 101  ASP101     -0.2456
      9  N         19.5100  -32.4880   -4.8750 N.3   103  LYS103     -0.1231
     10  CA        19.3200  -32.5890   -3.4260 C.3   103  LYS103      0.1693
     11  C         20.1750  -31.6180   -2.5930 C.2   103  LYS103      0.2593
     12  O         21.3020  -31.2790   -2.9640 O.2   103  LYS103     -0.2718
     13  CB        19.6080  -34.0180   -2.9620 C.3   103  LYS103      0.0285
     14  CG        18.8780  -35.0880   -3.7490 C.3   103  LYS103      0.0035
     15  CD        17.3920  -35.2000   -3.3790 C.3   103  LYS103      0.0206
     16  CE        16.7470  -36.3850   -4.1130 C.3   103  LYS103      0.1093
     17  NZ        15.5860  -36.9400   -3.3840 N.3   103  LYS103     -0.1314
     18  N         19.6370  -31.2070   -1.4470 N.am  104  GLY104     -0.1942
     19  CA        20.3500  -30.3570   -0.5090 C.3   104  GLY104      0.2014
     20  C         19.6380  -30.2340    0.8300 C.2   104  GLY104      0.2639
     21  O         18.7550  -31.0270    1.1380 O.2   104  GLY104     -0.2714
     22  N         20.0380  -29.2650    1.6440 N.am  105  ILE105     -0.1963
     23  CA        19.3320  -28.9940    2.8800 C.3   105  ILE105      0.1727
     24  C         18.1190  -28.1710    2.4730 C.2   105  ILE105      0.2616
     25  O         18.2890  -27.0830    1.9260 O.2   105  ILE105     -0.2715
     26  CB        20.2100  -28.1430    3.8520 C.3   105  ILE105      0.0290
     27  CG1       21.6770  -28.6020    3.8420 C.3   105  ILE105      0.0022
     28  CG2       19.6530  -28.1660    5.2670 C.3   105  ILE105      0.0023
     29  CD1       21.9300  -29.8360    4.6510 C.3   105  ILE105      0.0001
     30  N         16.9010  -28.6640    2.7220 N.am  106  ASN106     -0.1958
     31  CA        15.7120  -27.9030    2.3170 C.3   106  ASN106      0.1819
     32  C         15.2750  -27.0430    3.4920 C.2   106  ASN106      0.2621
     33  O         14.8090  -27.5510    4.5130 O.2   106  ASN106     -0.2715
     34  CB        14.5650  -28.8220    1.8650 C.3   106  ASN106      0.1195
     35  CG        15.0250  -30.2490    1.5620 C.2   106  ASN106      0.2630
     36  OD1       15.7930  -30.8530    2.3290 O.2   106  ASN106     -0.2716
     37  ND2       14.5430  -30.8010    0.4430 N.am  106  ASN106     -0.0877
     38  N         15.5060  -25.7400    3.3740 N.am  107  TYR107     -0.1960
     39  CA        15.2090  -24.8180    4.4650 C.3   107  TYR107      0.1771
     40  C         13.9340  -24.0020    4.2950 C.2   107  TYR107      0.2620
     41  O         13.5330  -23.2800    5.2060 O.2   107  TYR107     -0.2715
     42  CB        16.3880  -23.8730    4.6930 C.3   107  TYR107      0.0574
     43  CG        16.5610  -22.8840    3.5920 C.ar  107  TYR107     -0.0198
     44  CD1       17.2760  -23.2100    2.4570 C.ar  107  TYR107     -0.0009
     45  CD2       16.0120  -21.6250    3.6820 C.ar  107  TYR107     -0.0009
     46  CE1       17.4410  -22.3080    1.4480 C.ar  107  TYR107      0.0417
     47  CE2       16.1730  -20.7160    2.6810 C.ar  107  TYR107      0.0417
     48  CZ        16.8860  -21.0600    1.5680 C.ar  107  TYR107      0.1957
     49  OH        17.0400  -20.1420    0.5660 O.3   107  TYR107     -0.2866
     50  N         13.3070  -24.0820    3.1320 N.am  108  ASN108     -0.1958
     51  CA        12.0480  -23.3780    2.9620 C.3   108  ASN108      0.1819
     52  C         11.1830  -24.0270    1.9080 C.2   108  ASN108      0.2622
     53  O         11.6900  -24.4890    0.8840 O.2   108  ASN108     -0.2715
     54  CB        12.2750  -21.8950    2.6500 C.3   108  ASN108      0.1195
     55  CG        10.9900  -21.0890    2.7030 C.2   108  ASN108      0.2630
     56  OD1       10.0760  -21.3330    1.9180 O.2   108  ASN108     -0.2716
     57  ND2       10.9150  -20.1240    3.6220 N.am  108  ASN108     -0.0877
     58  N          9.8780  -24.0590    2.1510 N.am  109  SER109     -0.1950
     59  CA         8.9590  -24.6730    1.2040 C.3   109  SER109      0.1924
     60  C          7.7560  -23.7830    0.9910 C.2   109  SER109      0.2314
     61  O          7.1760  -23.2750    1.9440 O.2   109  SER109     -0.2863
     62  CB         8.4970  -26.0360    1.7070 C.3   109  SER109      0.2116
     63  OG         7.9060  -26.7530    0.6410 O.3   109  SER109     -0.2180
     64  N         14.5270  -26.7160   -6.3150 N.3   132  THR132     -0.1218
     65  CA        13.6920  -27.6140   -7.1120 C.3   132  THR132      0.1862
     66  C         12.2400  -27.1020   -7.0520 C.2   132  THR132      0.2287
     67  O         11.8140  -26.5060   -6.0490 O.2   132  THR132     -0.2866
     68  CB        13.7390  -29.0690   -6.6260 C.3   132  THR132      0.1770
     69  OG1       15.0840  -29.5540   -6.6550 O.3   132  THR132     -0.2211
     70  CG2       12.8880  -29.9250   -7.5190 C.3   132  THR132      0.0375
     71  N          8.1350  -28.2300   -8.1710 N.3   134  ALA134     -0.1245
     72  CA         7.1700  -29.2090   -8.6450 C.3   134  ALA134      0.1562
     73  C          6.0810  -28.5490   -9.4900 C.2   134  ALA134      0.2260
     74  O          5.4000  -27.6350   -9.0500 O.2   134  ALA134     -0.2867
     75  CB         6.5570  -29.9660   -7.4740 C.3   134  ALA134      0.0290
     76  N          2.8380  -32.5520  -11.5960 N.3   138  PHE138     -0.1241
     77  CA         3.3860  -33.3890  -10.5480 C.3   138  PHE138      0.1605
     78  C          2.2720  -34.1790   -9.9080 C.2   138  PHE138      0.2264
     79  O          1.3280  -33.5990   -9.3610 O.2   138  PHE138     -0.2867
     80  CB         4.1280  -32.5860   -9.4800 C.3   138  PHE138      0.0534
     81  CG         5.0510  -33.4290   -8.6370 C.ar  138  PHE138     -0.0203
     82  CD1        4.8160  -33.6020   -7.2780 C.ar  138  PHE138     -0.0042
     83  CD2        6.1430  -34.0760   -9.2160 C.ar  138  PHE138     -0.0042
     84  CE1        5.6620  -34.3930   -6.5020 C.ar  138  PHE138     -0.0003
     85  CE2        6.9850  -34.8620   -8.4540 C.ar  138  PHE138     -0.0003
     86  CZ         6.7450  -35.0260   -7.0930 C.ar  138  PHE138     -0.0000
     87  N          1.7030  -36.0260   -7.1330 N.3   140  SER140     -0.1217
     88  CA         1.2470  -35.9400   -5.7510 C.3   140  SER140      0.1889
     89  C          0.7420  -34.5150   -5.4390 C.2   140  SER140      0.2288
     90  O          1.5090  -33.5520   -5.4220 O.2   140  SER140     -0.2866
     91  CB         2.3830  -36.4010   -4.8170 C.3   140  SER140      0.2089
     92  OG         2.6990  -35.4380   -3.8330 O.3   140  SER140     -0.2183
     93  N          1.9380  -31.5660   -3.1700 N.3   143  HIS143     -0.1241
     94  CA         3.2920  -31.1930   -3.6230 C.3   143  HIS143      0.1621
     95  C          3.2640  -30.3010   -4.8670 C.2   143  HIS143      0.2264
     96  O          4.2360  -29.5950   -5.1600 O.2   143  HIS143     -0.2867
     97  CB         4.1530  -32.4320   -3.9180 C.3   143  HIS143      0.0745
     98  CG         4.5940  -33.1780   -2.7010 C.ar  143  HIS143      0.0817
     99  ND1        4.5860  -32.6340   -1.4290 N.ar  143  HIS143     -0.2268
    100  CD2        5.0670  -34.4430   -2.5510 C.ar  143  HIS143      0.1154
    101  CE1        5.0270  -33.5240   -0.5620 C.ar  143  HIS143      0.1986
    102  NE2        5.3310  -34.6310   -1.2200 N.ar  143  HIS143     -0.2212
    103  N          4.9510  -26.6530   -5.2940 N.3   146  ILE146     -0.1245
    104  CA         5.8360  -26.3580   -4.1830 C.3   146  ILE146      0.1561
    105  C          7.2020  -26.0000   -4.7380 C.2   146  ILE146      0.2260
    106  O          7.7650  -26.7330   -5.5460 O.2   146  ILE146     -0.2867
    107  CB         6.0050  -27.5390   -3.2180 C.3   146  ILE146      0.0252
    108  CG1        4.6610  -27.9170   -2.5860 C.3   146  ILE146      0.0019
    109  CG2        7.0280  -27.1850   -2.1370 C.3   146  ILE146      0.0019
    110  CD1        4.2640  -27.0430   -1.4170 C.3   146  ILE146      0.0001
    111  N         10.8040  -25.4300   -3.3840 N.3   148  LEU148     -0.1245
    112  CA        11.5970  -25.5960   -2.1600 C.3   148  LEU148      0.1561
    113  C         13.0680  -25.2790   -2.3950 C.2   148  LEU148      0.2260
    114  O         13.6770  -25.7300   -3.3750 O.2   148  LEU148     -0.2867
    115  CB        11.4140  -26.9810   -1.5050 C.3   148  LEU148      0.0270
    116  CG        12.1930  -28.1390   -2.1300 C.3   148  LEU148      0.0019
    117  CD1       12.1210  -29.4120   -1.2950 C.3   148  LEU148      0.0001
    118  CD2       11.6740  -28.3780   -3.5320 C.3   148  LEU148      0.0001
    119  N         17.1610  -24.7960   -1.3670 N.3   150  LYS150     -0.1231
    120  CA        18.1600  -25.5940   -0.7110 C.3   150  LYS150      0.1693
    121  C         19.5120  -24.8940   -0.6850 C.2   150  LYS150      0.2592
    122  O         19.7340  -23.9300   -1.4090 O.2   150  LYS150     -0.2718
    123  CB        18.2330  -26.9370   -1.4270 C.3   150  LYS150      0.0285
    124  CG        17.0290  -27.1760   -2.3430 C.3   150  LYS150      0.0035
    125  CD        16.8090  -28.6650   -2.6000 C.3   150  LYS150      0.0206
    126  CE        15.5050  -28.9380   -3.3400 C.3   150  LYS150      0.1093
    127  NZ        15.4150  -30.3700   -3.7520 N.3   150  LYS150     -0.1314
    128  N         20.3990  -25.3620    0.1800 N.am  151  HIS151     -0.1976
    129  CA        21.7720  -24.9010    0.1850 C.3   151  HIS151      0.1656
    130  C         22.6410  -26.0790    0.5540 C.2   151  HIS151      0.2291
    131  O         22.1460  -27.0680    1.0760 O.2   151  HIS151     -0.2864
    132  CB        21.9720  -23.7350    1.1600 C.3   151  HIS151      0.0771
    133  CG        21.5500  -24.0250    2.5730 C.ar  151  HIS151      0.0820
    134  ND1       22.1790  -24.9600    3.3670 N.ar  151  HIS151     -0.2267
    135  CD2       20.5860  -23.4660    3.3470 C.ar  151  HIS151      0.1154
    136  CE1       21.6070  -24.9840    4.5600 C.ar  151  HIS151      0.1986
    137  NE2       20.6410  -24.0860    4.5730 N.ar  151  HIS151     -0.2212
    138  N         16.9470  -38.3540  -11.1190 N.3   162  LYS162     -0.1231
    139  CA        15.8860  -38.0440  -12.0690 C.3   162  LYS162      0.1693
    140  C         14.5370  -38.2090  -11.3830 C.2   162  LYS162      0.2591
    141  O         14.2460  -39.2710  -10.8650 O.2   162  LYS162     -0.2718
    142  CB        15.9720  -38.9400  -13.2960 C.3   162  LYS162      0.0285
    143  CG        17.0870  -38.5810  -14.2640 C.3   162  LYS162      0.0035
    144  CD        16.7450  -37.3280  -15.0540 C.3   162  LYS162      0.0206
    145  CE        16.6070  -37.6100  -16.5390 C.3   162  LYS162      0.1093
    146  NZ        15.5580  -38.6350  -16.8320 N.3   162  LYS162     -0.1314
    147  N         13.7530  -37.1360  -11.3140 N.am  163  LEU163     -0.1980
    148  CA        12.3840  -37.1810  -10.8130 C.3   163  LEU163      0.1596
    149  C         11.4930  -36.3800  -11.7590 C.2   163  LEU163      0.2287
    150  O         11.5520  -35.1530  -11.7900 O.2   163  LEU163     -0.2864
    151  CB        12.3190  -36.5750   -9.4070 C.3   163  LEU163      0.0297
    152  CG        10.9310  -36.4700   -8.7550 C.3   163  LEU163      0.0022
    153  CD1       10.3340  -37.8490   -8.5920 C.3   163  LEU163      0.0001
    154  CD2       10.9460  -35.7460   -7.4030 C.3   163  LEU163      0.0001
    155  N          9.3900  -32.4190  -12.4310 N.3   166  VAL166     -0.1245
    156  CA        10.0670  -31.4780  -11.5290 C.3   166  VAL166      0.1561
    157  C         11.1270  -30.6580  -12.2800 C.2   166  VAL166      0.2260
    158  O         11.6850  -31.1390  -13.2610 O.2   166  VAL166     -0.2867
    159  CB        10.6600  -32.2100  -10.2990 C.3   166  VAL166      0.0252
    160  CG1       12.0950  -31.8330  -10.0920 C.3   166  VAL166      0.0019
    161  CG2        9.8370  -31.8970   -9.0620 C.3   166  VAL166      0.0019
    162  N         20.9420  -19.2280   10.7370 N.3   243  GLU243     -0.1245
    163  CA        19.5980  -19.5200   10.2400 C.3   243  GLU243      0.1567
    164  C         18.8420  -18.2480    9.8860 C.2   243  GLU243      0.2260
    165  O         18.1900  -18.1840    8.8470 O.2   243  GLU243     -0.2867
    166  CB        18.8190  -20.3580   11.2520 C.3   243  GLU243      0.0388
    167  CG        19.6340  -21.5260   11.7950 C.3   243  GLU243      0.1160
    168  CD        18.7930  -22.7490   12.1330 C.2   243  GLU243      0.3649
    169  OE1       19.3450  -23.8730   12.0380 O.co2 243  GLU243     -0.2457
    170  OE2       17.5970  -22.5890   12.4970 O.co2 243  GLU243     -0.2457
@<TRIPOS>BOND
     1   146   145    1
     2   145   144    1
     3   144   143    1
     4   143   142    1
     5   142   139    1
     6   158   157    2
     7   155   156    1
     8   157   156    1
     9   139   140    1
    10   139   138    1
    11   150   149    2
    12   149   148    1
    13    76    77    1
    14   156   159    1
    15   140   147   am
    16   140   141    2
    17   147   148    1
    18   148   151    1
    19    77    78    1
    20    77    80    1
    21   159   160    1
    22   159   161    1
    23     1     2    1
    24    78    79    2
    25    73    74    2
    26    73    72    1
    27    80    81    1
    28   151   152    1
    29    83    81   ar
    30    83    85   ar
    31   152   153    1
    32   152   154    1
    33     2     3    1
    34     2     5    1
    35    72    71    1
    36    72    75    1
    37    81    82   ar
    38    85    86   ar
    39     3     4    2
    40     5     6    1
    41    70    68    1
    42    82    84   ar
    43    87    88    1
    44    65    66    1
    45    65    68    1
    46    65    64    1
    47    86    84   ar
    48    66    67    2
    49    69    68    1
    50     6     8   ar
    51     6     7   ar
    52    88    89    1
    53    88    91    1
    54   106   105    2
    55    89    90    2
    56   103   104    1
    57    96    95    2
    58     9    10    1
    59    95    94    1
    60    91    92    1
    61   105   104    1
    62   104   107    1
    63    16    17    1
    64    16    15    1
    65    97    94    1
    66    97    98    1
    67   127   126    1
    68    14    15    1
    69    14    13    1
    70    94    93    1
    71   118   116    1
    72    10    13    1
    73    10    11    1
    74   111   112    1
    75   114   113    2
    76   126   125    1
    77   107   108    1
    78   107   109    1
    79    12    11    2
    80    98   100   ar
    81    98    99   ar
    82   125   124    1
    83    11    18   am
    84   108   110    1
    85   100   102   ar
    86   113   112    1
    87   124   123    1
    88   112   115    1
    89   116   115    1
    90   116   117    1
    91    18    19    1
    92    99   101   ar
    93   123   120    1
    94   122   121    2
    95   119   120    1
    96   102   101   ar
    97   120   121    1
    98   121   128   am
    99    19    20    1
   100   128   129    1
   101   129   130    1
   102   129   132    1
   103    37    35   am
   104   130   131    2
   105    49    48    1
   106    63    62    1
   107    20    21    2
   108    20    22   am
   109    53    52    2
   110    60    59    1
   111    60    61    2
   112   132   133    1
   113    59    62    1
   114    59    58    1
   115    46    48   ar
   116    46    44   ar
   117    35    34    1
   118    35    36    2
   119    48    47   ar
   120    22    23    1
   121    34    31    1
   122    52    58   am
   123    52    51    1
   124    56    55    2
   125    25    24    2
   126    31    30    1
   127    31    32    1
   128    44    43   ar
   129    24    30   am
   130    24    23    1
   131   133   135   ar
   132   133   134   ar
   133    54    55    1
   134    54    51    1
   135    47    45   ar
   136    55    57   am
   137    23    26    1
   138    51    50    1
   139    50    40   am
   140   135   137   ar
   141   134   136   ar
   142    38    32   am
   143    38    39    1
   144    32    33    2
   145    43    45   ar
   146    43    42    1
   147    27    26    1
   148    27    29    1
   149    26    28    1
   150    40    39    1
   151    40    41    2
   152    39    42    1
   153   136   137   ar
   154   165   164    2
   155   164   163    1
   156   163   162    1
   157   163   166    1
   158   166   167    1
   159   167   168    1
   160   169   168   ar
   161   168   170   ar
