@<TRIPOS>MOLECULE
tmp/5i29A00.pdb
 132 135 0 0 0
SMALL
GASTEIGER

@<TRIPOS>ATOM
      1  N          5.4670  -16.4160   -0.2540 N.3    27  TRP27      -0.1228
      2  CA         6.0760  -15.2190    0.2930 C.3    27  TRP27       0.1722
      3  C          5.4290  -13.8650   -0.1710 C.2    27  TRP27       0.2437
      4  O          5.4580  -12.9530    0.6730 O.2    27  TRP27      -0.2733
      5  CB         7.5930  -15.2230   -0.1490 C.3    27  TRP27       0.0563
      6  CG         7.8640  -15.0700   -1.6140 C.ar   27  TRP27       0.0003
      7  CD1        8.0510  -16.1220   -2.4650 C.ar   27  TRP27       0.0946
      8  CD2        7.8110  -13.9160   -2.4350 C.ar   27  TRP27       0.0152
      9  NE1        8.1430  -15.7250   -3.7380 N.ar   27  TRP27      -0.2442
     10  CE2        7.9840  -14.3510   -3.7670 C.ar   27  TRP27       0.0810
     11  CE3        7.6260  -12.5110   -2.2080 C.ar   27  TRP27       0.0012
     12  CZ2        7.9270  -13.4590   -4.8420 C.ar   27  TRP27       0.0191
     13  CZ3        7.6030  -11.6440   -3.3140 C.ar   27  TRP27       0.0001
     14  CH2        7.7350  -12.1500   -4.6010 C.ar   27  TRP27       0.0015
     15  N          4.8130  -13.6850   -1.3380 N.am   28  PRO28      -0.2718
     16  CA         4.1970  -12.3540   -1.5840 C.3    28  PRO28       0.1535
     17  C          3.1620  -12.0170   -0.5720 C.2    28  PRO28       0.2598
     18  O          2.8860  -10.7520   -0.3960 O.2    28  PRO28      -0.2715
     19  CB         3.5570  -12.5210   -2.9740 C.3    28  PRO28       0.0310
     20  CG         4.3760  -13.6560   -3.6140 C.3    28  PRO28       0.0237
     21  CD         4.6320  -14.6360   -2.4910 C.3    28  PRO28       0.0939
     22  N          2.5700  -12.9730    0.1100 N.am   29  PHE29      -0.1974
     23  CA         1.4460  -12.7760    0.9940 C.3    29  PHE29       0.1639
     24  C          1.8490  -12.7830    2.4400 C.2    29  PHE29       0.2290
     25  O          0.9810  -12.5810    3.3070 O.2    29  PHE29      -0.2864
     26  CB         0.3680  -13.8460    0.6720 C.3    29  PHE29       0.0560
     27  CG         0.0190  -13.8600   -0.7680 C.ar   29  PHE29      -0.0200
     28  CD1       -0.7560  -12.8140   -1.3010 C.ar   29  PHE29      -0.0042
     29  CD2        0.5040  -14.8270   -1.6810 C.ar   29  PHE29      -0.0042
     30  CE1       -1.0350  -12.7460   -2.6630 C.ar   29  PHE29      -0.0003
     31  CE2        0.2050  -14.7990   -2.9980 C.ar   29  PHE29      -0.0003
     32  CZ        -0.5860  -13.7600   -3.5030 C.ar   29  PHE29      -0.0000
     33  N          3.7130  -10.6970    4.2410 N.3    31  HIS31      -0.1227
     34  CA         3.8780   -9.3950    4.8890 C.3    31  HIS31       0.1737
     35  C          3.1670   -8.3770    4.0380 C.2    31  HIS31       0.2438
     36  O          2.8580   -8.5820    2.8780 O.2    31  HIS31      -0.2733
     37  CB         5.3910   -9.0390    4.9420 C.3    31  HIS31       0.0758
     38  CG         6.1960   -9.9750    5.7500 C.ar   31  HIS31       0.0818
     39  ND1        6.1810   -9.9790    7.1270 N.ar   31  HIS31      -0.2268
     40  CD2        7.0250  -10.9720    5.3670 C.ar   31  HIS31       0.1154
     41  CE1        6.9530  -10.9780    7.5870 C.ar   31  HIS31       0.1986
     42  NE2        7.5280  -11.5460    6.5200 N.ar   31  HIS31      -0.2212
     43  N          2.8790   -7.1610    4.6060 N.am   32  PRO32      -0.2718
     44  CA         2.2560   -6.1160    3.7800 C.3    32  PRO32       0.1535
     45  C          3.1450   -5.7680    2.5730 C.2    32  PRO32       0.2598
     46  O          4.3490   -5.7910    2.6280 O.2    32  PRO32      -0.2715
     47  CB         2.1930   -4.9080    4.7360 C.3    32  PRO32       0.0310
     48  CG         2.4590   -5.4420    6.0720 C.3    32  PRO32       0.0237
     49  CD         3.1560   -6.7710    5.9880 C.3    32  PRO32       0.0939
     50  N          2.4670   -5.4200    1.4850 N.am   33  VAL33      -0.1964
     51  CA         3.2460   -4.9560    0.3150 C.3    33  VAL33       0.1727
     52  C          3.9310   -3.6180    0.6290 C.2    33  VAL33       0.2616
     53  O          3.3160   -2.6980    1.2620 O.2    33  VAL33      -0.2715
     54  CB         2.2400   -4.7680   -0.8460 C.3    33  VAL33       0.0290
     55  CG1        2.9960   -4.1220   -2.0700 C.3    33  VAL33       0.0023
     56  CG2        1.7280   -6.1260   -1.2800 C.3    33  VAL33       0.0023
     57  N          5.1510   -3.4700    0.2990 N.am   34  ASN34      -0.1972
     58  CA         5.8860   -2.2140    0.3980 C.3    34  ASN34       0.1688
     59  C          5.8260   -1.4870   -0.9330 C.2    34  ASN34       0.2292
     60  O          6.2910   -2.0060   -1.9400 O.2    34  ASN34      -0.2864
     61  CB         7.3170   -2.5850    0.8230 C.3    34  ASN34       0.1181
     62  CG         8.1310   -1.3700    1.2120 C.2    34  ASN34       0.2629
     63  OD1        7.9440   -0.2380    0.7120 O.2    34  ASN34      -0.2716
     64  ND2        9.0470   -1.5640    2.1420 N.am   34  ASN34      -0.0877
     65  N          8.6680   -1.4970   -3.3400 N.3    37  PHE37      -0.1227
     66  CA         8.8660   -2.7310   -4.1210 C.3    37  PHE37       0.1736
     67  C          7.7510   -2.8980   -5.1160 C.2    37  PHE37       0.2595
     68  O          8.0060   -3.6330   -6.1470 O.2    37  PHE37      -0.2718
     69  CB         8.9960   -3.9100   -3.1710 C.3    37  PHE37       0.0547
     70  CG        10.0600   -3.7090   -2.0900 C.ar   37  PHE37      -0.0202
     71  CD1       11.1790   -2.8890   -2.3190 C.ar   37  PHE37      -0.0042
     72  CD2        9.9810   -4.3950   -0.9270 C.ar   37  PHE37      -0.0042
     73  CE1       12.1440   -2.7510   -1.3160 C.ar   37  PHE37      -0.0003
     74  CE2       11.0010   -4.2520    0.0440 C.ar   37  PHE37      -0.0003
     75  CZ        12.0280   -3.4030   -0.1650 C.ar   37  PHE37      -0.0000
     76  N          6.5350   -2.4210   -4.8820 N.am   38  VAL38      -0.1980
     77  CA         5.4160   -2.5940   -5.8230 C.3    38  VAL38       0.1595
     78  C          4.7060   -1.2130   -5.8970 C.2    38  VAL38       0.2287
     79  O          3.7850   -0.9190   -5.1580 O.2    38  VAL38      -0.2864
     80  CB         4.4140   -3.6300   -5.3810 C.3    38  VAL38       0.0276
     81  CG1        3.4520   -3.8780   -6.5570 C.3    38  VAL38       0.0022
     82  CG2        5.0540   -4.9880   -4.9510 C.3    38  VAL38       0.0022
     83  N          0.7610   -0.5950   -6.0690 N.3    41  TYR41      -0.1241
     84  CA        -0.1230   -1.5500   -5.4020 C.3    41  TYR41       0.1605
     85  C         -1.3220   -0.8770   -4.7570 C.2    41  TYR41       0.2264
     86  O         -2.4690   -1.2750   -4.8950 O.2    41  TYR41      -0.2867
     87  CB         0.6910   -2.3620   -4.3270 C.3    41  TYR41       0.0534
     88  CG        -0.1610   -3.5050   -3.7950 C.ar   41  TYR41      -0.0201
     89  CD1       -0.3540   -4.5810   -4.6390 C.ar   41  TYR41      -0.0009
     90  CD2       -0.8000   -3.4910   -2.5810 C.ar   41  TYR41      -0.0009
     91  CE1       -1.1300   -5.7110   -4.2150 C.ar   41  TYR41       0.0417
     92  CE2       -1.6010   -4.5560   -2.1410 C.ar   41  TYR41       0.0417
     93  CZ        -1.7630   -5.6420   -2.9950 C.ar   41  TYR41       0.1957
     94  OH        -2.5520   -6.6380   -2.5300 O.3    41  TYR41      -0.2866
     95  N         -5.5620  -10.2070   -4.6430 N.3    80  SER80      -0.1217
     96  CA        -4.7350  -10.7340   -5.7090 C.3    80  SER80       0.1889
     97  C         -5.5410  -10.8840   -7.0250 C.2    80  SER80       0.2288
     98  O         -4.9780  -10.5490   -8.0740 O.2    80  SER80      -0.2866
     99  CB        -4.1650  -12.0980   -5.3490 C.3    80  SER80       0.2089
    100  OG        -3.2370  -12.5410   -6.3470 O.3    80  SER80      -0.2183
    101  N         -5.5300   -7.1670   -8.2890 N.3    83  TYR83      -0.1227
    102  CA        -4.2720   -6.5830   -8.6980 C.3    83  TYR83       0.1736
    103  C         -3.5630   -7.3640   -9.7850 C.2    83  TYR83       0.2595
    104  O         -2.9650   -6.8190  -10.6880 O.2    83  TYR83      -0.2718
    105  CB        -3.3620   -6.4100   -7.4660 C.3    83  TYR83       0.0548
    106  CG        -2.1250   -5.6410   -7.7770 C.ar   83  TYR83      -0.0200
    107  CD1       -2.1690   -4.2750   -8.0210 C.ar   83  TYR83      -0.0009
    108  CD2       -0.8940   -6.2550   -7.9830 C.ar   83  TYR83      -0.0009
    109  CE1       -0.9520   -3.6030   -8.5050 C.ar   83  TYR83       0.0417
    110  CE2        0.2390   -5.6560   -8.4140 C.ar   83  TYR83       0.0417
    111  CZ         0.1790   -4.3620   -8.7060 C.ar   83  TYR83       0.1957
    112  OH         1.3650   -3.7260   -9.2090 O.3    83  TYR83      -0.2866
    113  N         -3.5440   -8.7110   -9.6370 N.am   84  ASN84      -0.1974
    114  CA        -2.7770   -9.5910  -10.5240 C.3    84  ASN84       0.1688
    115  C         -3.6420  -10.2140  -11.5910 C.2    84  ASN84       0.2292
    116  O         -3.0870  -10.6690  -12.6280 O.2    84  ASN84      -0.2864
    117  CB        -2.1050  -10.6730   -9.6930 C.3    84  ASN84       0.1181
    118  CG        -1.1990  -10.0830   -8.6450 C.2    84  ASN84       0.2629
    119  OD1       -0.2930   -9.3250   -9.0070 O.2    84  ASN84      -0.2716
    120  ND2       -1.4300  -10.4130   -7.3860 N.am   84  ASN84      -0.0877
    121  N          0.2360  -15.4800   -8.9830 N.3    90  TYR90      -0.1241
    122  CA         0.0540  -14.8870   -7.6650 C.3    90  TYR90       0.1605
    123  C         -1.2820  -15.3220   -7.0940 C.2    90  TYR90       0.2264
    124  O         -1.3770  -15.7200   -5.9250 O.2    90  TYR90      -0.2867
    125  CB         0.1280  -13.3610   -7.6620 C.3    90  TYR90       0.0534
    126  CG         1.5170  -12.7720   -7.7970 C.ar   90  TYR90      -0.0201
    127  CD1        2.3780  -12.7710   -6.7570 C.ar   90  TYR90      -0.0009
    128  CD2        1.8480  -12.0850   -8.9400 C.ar   90  TYR90      -0.0009
    129  CE1        3.6400  -12.1750   -6.9060 C.ar   90  TYR90       0.0417
    130  CE2        3.0610  -11.4620   -9.0630 C.ar   90  TYR90       0.0417
    131  CZ         3.9520  -11.5150   -8.0640 C.ar   90  TYR90       0.1957
    132  OH         5.2460  -10.9560   -8.1190 O.3    90  TYR90      -0.2866
@<TRIPOS>BOND
     1   116   115    2
     2   115   114    1
     3   104   103    2
     4   114   117    1
     5   114   113    1
     6   103   113   am
     7   103   102    1
     8   117   118    1
     9   112   111    1
    10   130   128   ar
    11   130   131   ar
    12   119   118    2
    13   121   122    1
    14   128   126   ar
    15   111   109   ar
    16   111   110   ar
    17   102   101    1
    18   102   105    1
    19   118   120   am
    20   109   107   ar
    21   110   108   ar
    22   132   131    1
    23    98    97    2
    24   131   129   ar
    25   107   106   ar
    26   108   106   ar
    27   126   125    1
    28   126   127   ar
    29   106   105    1
    30   122   125    1
    31   122   123    1
    32   123   124    2
    33    97    96    1
    34   129   127   ar
    35    81    80    1
    36   100    99    1
    37    68    67    2
    38    83    84    1
    39    78    77    1
    40    78    79    2
    41    77    80    1
    42    77    76    1
    43    96    99    1
    44    96    95    1
    45    84    85    1
    46    84    87    1
    47    80    82    1
    48    67    76   am
    49    67    66    1
    50    86    85    2
    51    12    14   ar
    52    12    10   ar
    53    89    91   ar
    54    89    88   ar
    55    14    13   ar
    56    87    88    1
    57    91    93   ar
    58    66    65    1
    59    66    69    1
    60    88    90   ar
    61    10     9   ar
    62    10     8   ar
    63     9     7   ar
    64    20    19    1
    65    20    21    1
    66    32    31   ar
    67    32    30   ar
    68    13    11   ar
    69    69    70    1
    70    31    29   ar
    71    93    94    1
    72    93    92   ar
    73    19    16    1
    74    30    28   ar
    75    90    92   ar
    76    21    15    1
    77     7     6   ar
    78     8    11   ar
    79     8     6   ar
    80    71    70   ar
    81    71    73   ar
    82    70    72   ar
    83    55    54    1
    84    60    59    2
    85    29    27   ar
    86     6     5    1
    87    16    15    1
    88    16    17    1
    89    15     3   am
    90    73    75   ar
    91    28    27   ar
    92    56    54    1
    93    59    58    1
    94    72    74   ar
    95    54    51    1
    96    27    26    1
    97    17    18    2
    98    17    22   am
    99     1     2    1
   100     3     2    1
   101     3     4    2
   102    75    74   ar
   103     5     2    1
   104    22    23    1
   105    57    58    1
   106    57    52   am
   107    51    52    1
   108    51    50    1
   109    58    61    1
   110    52    53    2
   111    26    23    1
   112    63    62    2
   113    61    62    1
   114    23    24    1
   115    62    64   am
   116    50    45   am
   117    24    25    2
   118    45    46    2
   119    45    44    1
   120    36    35    2
   121    44    43    1
   122    44    47    1
   123    35    43   am
   124    35    34    1
   125    33    34    1
   126    43    49    1
   127    47    48    1
   128    34    37    1
   129    37    38    1
   130    40    38   ar
   131    40    42   ar
   132    38    39   ar
   133    49    48    1
   134    42    41   ar
   135    39    41   ar
