@<TRIPOS>MOLECULE
tmp/5i2aB01.pdb
 91 88 0 0 0
SMALL
GASTEIGER

@<TRIPOS>ATOM
      1  N        -80.5050  -62.2810   48.2470 N.3   136  THR136     -0.1218
      2  CA       -81.9210  -62.6360   48.3700 C.3   136  THR136      0.1862
      3  C        -82.4670  -62.2500   49.7300 C.2   136  THR136      0.2287
      4  O        -83.5360  -61.6690   49.8250 O.2   136  THR136     -0.2866
      5  CB       -82.1340  -64.1400   48.1530 C.3   136  THR136      0.1770
      6  OG1      -81.8560  -64.4450   46.7870 O.3   136  THR136     -0.2211
      7  CG2      -83.5710  -64.5560   48.4990 C.3   136  THR136      0.0375
      8  N        -83.4390  -58.5130   50.1380 N.3   139  MET139     -0.1245
      9  CA       -84.4590  -57.9280   49.2700 C.3   139  MET139      0.1570
     10  C        -85.8190  -57.8610   49.9610 C.2   139  MET139      0.2261
     11  O        -86.2350  -58.8120   50.6060 O.2   139  MET139     -0.2867
     12  CB       -84.5820  -58.7310   47.9800 C.3   139  MET139      0.0387
     13  CG       -83.3230  -58.7480   47.1530 C.3   139  MET139      0.0595
     14  SD       -83.5420  -59.6650   45.6420 S.3   139  MET139     -0.1393
     15  CE       -81.8920  -59.5620   44.9450 C.3   139  MET139      0.0692
     16  N        -89.2420  -58.8960   45.6320 N.3   144  LEU144     -0.1245
     17  CA       -89.4450  -60.2660   45.1590 C.3   144  LEU144      0.1561
     18  C        -90.7380  -60.4000   44.3330 C.2   144  LEU144      0.2260
     19  O        -90.7570  -61.0560   43.2900 O.2   144  LEU144     -0.2867
     20  CB       -89.4820  -61.2380   46.3500 C.3   144  LEU144      0.0270
     21  CG       -88.2390  -61.2840   47.2500 C.3   144  LEU144      0.0019
     22  CD1      -88.4200  -62.2930   48.3800 C.3   144  LEU144      0.0001
     23  CD2      -86.9870  -61.6040   46.4430 C.3   144  LEU144      0.0001
     24  N        -90.2880  -58.9040   40.8710 N.3   147  MET147     -0.1245
     25  CA       -89.4660  -59.7290   39.9990 C.3   147  MET147      0.1570
     26  C        -90.2420  -60.9500   39.5010 C.2   147  MET147      0.2261
     27  O        -90.0710  -61.3870   38.3610 O.2   147  MET147     -0.2867
     28  CB       -88.1840  -60.1620   40.7180 C.3   147  MET147      0.0387
     29  CG       -87.1990  -59.0040   40.9090 C.3   147  MET147      0.0595
     30  SD       -85.6790  -59.4340   41.7840 S.3   147  MET147     -0.1393
     31  CE       -86.2880  -59.7780   43.4100 C.3   147  MET147      0.0692
     32  N        -92.0930  -59.9960   36.6820 N.3   150  ASN150     -0.1240
     33  CA       -91.2470  -59.5930   35.5640 C.3   150  ASN150      0.1653
     34  C        -91.2410  -58.0950   35.2370 C.2   150  ASN150      0.2266
     35  O        -91.1760  -57.7210   34.0710 O.2   150  ASN150     -0.2867
     36  CB       -91.6620  -60.3870   34.3290 C.3   150  ASN150      0.1155
     37  CG       -91.6200  -61.8850   34.5830 C.2   150  ASN150      0.2627
     38  OD1      -90.7230  -62.3650   35.2540 O.2   150  ASN150     -0.2716
     39  ND2      -92.6100  -62.6130   34.0880 N.am  150  ASN150     -0.0877
     40  N        -88.7980  -56.2140   36.2730 N.3   152  PHE152     -0.1227
     41  CA       -87.3760  -56.0500   36.0050 C.3   152  PHE152      0.1736
     42  C        -86.6530  -57.3130   36.4010 C.2   152  PHE152      0.2596
     43  O        -87.1690  -58.1020   37.1920 O.2   152  PHE152     -0.2718
     44  CB       -86.7950  -54.8670   36.7820 C.3   152  PHE152      0.0547
     45  CG       -86.9940  -54.9720   38.2740 C.ar  152  PHE152     -0.0202
     46  CD1      -86.0790  -55.6380   39.0710 C.ar  152  PHE152     -0.0042
     47  CD2      -88.1020  -54.4110   38.8690 C.ar  152  PHE152     -0.0042
     48  CE1      -86.2670  -55.7410   40.4380 C.ar  152  PHE152     -0.0003
     49  CE2      -88.2970  -54.5000   40.2360 C.ar  152  PHE152     -0.0003
     50  CZ       -87.3790  -55.1720   41.0190 C.ar  152  PHE152     -0.0000
     51  N        -85.4440  -57.4940   35.8910 N.am  153  THR153     -0.1939
     52  CA       -84.5880  -58.5380   36.4180 C.3   153  THR153      0.2013
     53  C        -83.1730  -58.0270   36.6970 C.2   153  THR153      0.2484
     54  O        -82.5420  -57.4470   35.8300 O.2   153  THR153     -0.2729
     55  CB       -84.5220  -59.7540   35.4670 C.3   153  THR153      0.1807
     56  OG1      -83.4640  -60.6130   35.8880 O.3   153  THR153     -0.2208
     57  CG2      -84.2780  -59.3160   34.0290 C.3   153  THR153      0.0379
     58  N        -82.6840  -58.2550   37.9240 N.am  154  PRO154     -0.2715
     59  CA       -81.3260  -57.9490   38.3600 C.3   154  PRO154      0.1536
     60  C        -80.4260  -59.1830   38.3290 C.2   154  PRO154      0.2599
     61  O        -79.4600  -59.2690   39.0870 O.2   154  PRO154     -0.2715
     62  CB       -81.5420  -57.4720   39.7990 C.3   154  PRO154      0.0310
     63  CG       -82.6650  -58.3520   40.2770 C.3   154  PRO154      0.0237
     64  CD       -83.4990  -58.7330   39.0560 C.3   154  PRO154      0.0939
     65  N        -80.7430  -60.1300   37.4560 N.am  155  GLY155     -0.1955
     66  CA       -79.9860  -61.3650   37.3840 C.3   155  GLY155      0.1869
     67  C        -78.4850  -61.2170   37.1900 C.2   155  GLY155      0.2309
     68  O        -77.7100  -62.0050   37.7500 O.2   155  GLY155     -0.2863
     69  N        -76.5280  -60.9280   40.1860 N.3   158  PHE158     -0.1227
     70  CA       -77.0980  -61.8500   41.1570 C.3   158  PHE158      0.1736
     71  C        -76.4450  -63.2220   41.0010 C.2   158  PHE158      0.2595
     72  O        -75.9760  -63.7960   41.9730 O.2   158  PHE158     -0.2718
     73  CB       -78.6240  -61.9510   40.9990 C.3   158  PHE158      0.0547
     74  CG       -79.2770  -62.9620   41.9340 C.ar  158  PHE158     -0.0202
     75  CD1      -79.6370  -62.6070   43.2230 C.ar  158  PHE158     -0.0042
     76  CD2      -79.5540  -64.2550   41.5040 C.ar  158  PHE158     -0.0042
     77  CE1      -80.2490  -63.5270   44.0760 C.ar  158  PHE158     -0.0003
     78  CE2      -80.1660  -65.1760   42.3490 C.ar  158  PHE158     -0.0003
     79  CZ       -80.5080  -64.8160   43.6360 C.ar  158  PHE158     -0.0000
     80  N        -76.3970  -63.7260   39.7720 N.am  159  TYR159     -0.1976
     81  CA       -75.8420  -65.0580   39.4950 C.3   159  TYR159      0.1639
     82  C        -74.3300  -65.1020   39.3400 C.2   159  TYR159      0.2290
     83  O        -73.7210  -66.1520   39.5280 O.2   159  TYR159     -0.2864
     84  CB       -76.4590  -65.6380   38.2230 C.3   159  TYR159      0.0560
     85  CG       -77.9310  -65.9170   38.3300 C.ar  159  TYR159     -0.0198
     86  CD1      -78.4050  -66.9520   39.1240 C.ar  159  TYR159     -0.0009
     87  CD2      -78.8460  -65.1530   37.6270 C.ar  159  TYR159     -0.0009
     88  CE1      -79.7600  -67.2140   39.2100 C.ar  159  TYR159      0.0417
     89  CE2      -80.1870  -65.4070   37.7000 C.ar  159  TYR159      0.0417
     90  CZ       -80.6430  -66.4320   38.4910 C.ar  159  TYR159      0.1957
     91  OH       -81.9880  -66.6590   38.5580 O.3   159  TYR159     -0.2866
@<TRIPOS>BOND
     1    57    55    1
     2    35    34    2
     3    39    37   am
     4    36    37    1
     5    36    33    1
     6    37    38    2
     7    34    33    1
     8    55    56    1
     9    55    52    1
    10    33    32    1
    11    54    53    2
    12    51    42   am
    13    51    52    1
    14    41    40    1
    15    41    42    1
    16    41    44    1
    17    42    43    2
    18    52    53    1
    19    53    58   am
    20    44    45    1
    21    67    66    1
    22    67    68    2
    23    66    65    1
    24    65    60   am
    25    87    89   ar
    26    87    85   ar
    27    89    90   ar
    28    58    59    1
    29    58    64    1
    30    84    85    1
    31    84    81    1
    32    45    47   ar
    33    45    46   ar
    34    60    59    1
    35    60    61    2
    36    85    86   ar
    37    59    62    1
    38    27    26    2
    39    90    91    1
    40    90    88   ar
    41    47    49   ar
    42    64    63    1
    43    46    48   ar
    44    86    88   ar
    45    82    81    1
    46    82    83    2
    47    81    80    1
    48    26    25    1
    49    80    71   am
    50    62    63    1
    51    25    28    1
    52    25    24    1
    53    69    70    1
    54    49    50   ar
    55    48    50   ar
    56    28    29    1
    57    29    30    1
    58    73    70    1
    59    73    74    1
    60    71    70    1
    61    71    72    2
    62    76    74   ar
    63    76    78   ar
    64    30    31    1
    65    74    75   ar
    66    78    79   ar
    67    75    77   ar
    68    19    18    2
    69    79    77   ar
    70    18    17    1
    71    15    14    1
    72    17    16    1
    73    17    20    1
    74    14    13    1
    75    20    21    1
    76    23    21    1
    77     6     5    1
    78    13    12    1
    79    21    22    1
    80    12     9    1
    81     5     2    1
    82     5     7    1
    83     1     2    1
    84     2     3    1
    85     9    10    1
    86     9     8    1
    87     3     4    2
    88    10    11    2
