@<TRIPOS>MOLECULE
tmp/5i2aA02.pdb
 104 99 0 0 0
SMALL
GASTEIGER

@<TRIPOS>ATOM
      1  N        -41.6290   -9.9120   25.3360 N.3   557  ASN557     -0.1240
      2  CA       -40.4050   -9.2400   25.7680 C.3   557  ASN557      0.1653
      3  C        -39.6460  -10.0950   26.7770 C.2   557  ASN557      0.2266
      4  O        -38.4350  -10.2560   26.6650 O.2   557  ASN557     -0.2867
      5  CB       -40.7130   -7.8670   26.3710 C.3   557  ASN557      0.1155
      6  CG       -41.5200   -6.9920   25.4340 C.2   557  ASN557      0.2627
      7  OD1      -42.7200   -6.8170   25.6200 O.2   557  ASN557     -0.2716
      8  ND2      -40.8660   -6.4590   24.4040 N.am  557  ASN557     -0.0877
      9  N        -26.0980   -5.3080   20.8570 N.3   644  HIS644     -0.1241
     10  CA       -27.4450   -5.1170   20.3580 C.3   644  HIS644      0.1621
     11  C        -27.6590   -5.8990   19.0700 C.2   644  HIS644      0.2264
     12  O        -28.6850   -6.5490   18.8960 O.2   644  HIS644     -0.2867
     13  CB       -27.7290   -3.6390   20.1120 C.3   644  HIS644      0.0745
     14  CG       -29.1880   -3.3200   20.0000 C.ar  644  HIS644      0.0817
     15  ND1      -29.6800   -2.3730   19.1310 N.ar  644  HIS644     -0.2268
     16  CD2      -30.2610   -3.8110   20.6650 C.ar  644  HIS644      0.1154
     17  CE1      -30.9930   -2.3010   19.2530 C.ar  644  HIS644      0.1986
     18  NE2      -31.3730   -3.1630   20.1780 N.ar  644  HIS644     -0.2212
     19  N        -30.4200   -8.8020   18.2540 N.3   648  LEU648     -0.1245
     20  CA       -31.4600   -8.6860   17.2290 C.3   648  LEU648      0.1561
     21  C        -31.4310   -9.8140   16.1980 C.2   648  LEU648      0.2260
     22  O        -32.4270  -10.0480   15.5150 O.2   648  LEU648     -0.2867
     23  CB       -31.3630   -7.3440   16.5110 C.3   648  LEU648      0.0270
     24  CG       -31.6110   -6.1070   17.3750 C.3   648  LEU648      0.0019
     25  CD1      -31.5290   -4.8440   16.5340 C.3   648  LEU648      0.0001
     26  CD2      -32.9530   -6.2000   18.0750 C.3   648  LEU648      0.0001
     27  N        -34.2000   -8.4520   25.1800 N.3   708  ASP708     -0.1225
     28  CA       -34.7730   -8.8550   23.8970 C.3   708  ASP708      0.1805
     29  C        -34.3150   -7.9020   22.7980 C.2   708  ASP708      0.2598
     30  O        -34.4810   -8.1910   21.6150 O.2   708  ASP708     -0.2718
     31  CB       -36.3150   -8.9160   23.9650 C.3   708  ASP708      0.1424
     32  CG       -36.9560   -7.5760   24.3340 C.2   708  ASP708      0.3668
     33  OD1      -36.2710   -6.7220   24.9340 O.co2 708  ASP708     -0.2456
     34  OD2      -38.1520   -7.3860   24.0340 O.co2 708  ASP708     -0.2456
     35  N        -33.7310   -6.7700   23.1900 N.am  709  GLY709     -0.1942
     36  CA       -33.2440   -5.7830   22.2260 C.3   709  GLY709      0.2014
     37  C        -34.1010   -4.5300   22.1500 C.2   709  GLY709      0.2639
     38  O        -33.7970   -3.5660   21.4330 O.2   709  GLY709     -0.2714
     39  N        -35.1910   -4.5520   22.9020 N.am  710  ARG710     -0.1963
     40  CA       -36.0940   -3.4270   22.9920 C.3   710  ARG710      0.1729
     41  C        -35.3830   -2.2440   23.6640 C.2   710  ARG710      0.2616
     42  O        -34.7310   -2.4160   24.6810 O.2   710  ARG710     -0.2715
     43  CB       -37.3410   -3.8500   23.7740 C.3   710  ARG710      0.0348
     44  CG       -38.3710   -2.7820   23.9780 C.3   710  ARG710      0.0492
     45  CD       -39.5110   -3.2120   24.9310 C.3   710  ARG710      0.2205
     46  NE       -39.8440   -2.0330   25.7110 N.pl3 710  ARG710     -0.0865
     47  CZ       -39.1670   -1.6610   26.7890 C.cat 710  ARG710      0.5346
     48  NH1      -38.1750   -2.4170   27.2500 N.pl3 710  ARG710      0.1354
     49  NH2      -39.4790   -0.5370   27.4030 N.pl3 710  ARG710      0.1354
     50  N        -35.5090   -1.0520   23.0980 N.am  711  LEU711     -0.1977
     51  CA       -34.8450    0.1220   23.6590 C.3   711  LEU711      0.1596
     52  C        -35.6360    0.6980   24.8290 C.2   711  LEU711      0.2287
     53  O        -36.8420    0.4790   24.9500 O.2   711  LEU711     -0.2864
     54  CB       -34.6410    1.1980   22.5840 C.3   711  LEU711      0.0297
     55  CG       -33.8110    0.7670   21.3700 C.3   711  LEU711      0.0022
     56  CD1      -33.5340    1.9470   20.4310 C.3   711  LEU711      0.0001
     57  CD2      -32.5170    0.0940   21.8050 C.3   711  LEU711      0.0001
     58  N        -39.6060    2.3670   25.3570 N.3   714  THR714     -0.1204
     59  CA       -40.4910    2.0830   24.2230 C.3   714  THR714      0.1979
     60  C        -41.5880    1.1080   24.6820 C.2   714  THR714      0.2459
     61  O        -41.4610    0.5250   25.7560 O.2   714  THR714     -0.2732
     62  CB       -39.7120    1.5050   23.0320 C.3   714  THR714      0.1783
     63  OG1      -39.1580    0.2350   23.3870 O.3   714  THR714     -0.2211
     64  CG2      -38.5950    2.4970   22.5760 C.3   714  THR714      0.0376
     65  N        -42.6700    0.9480   23.8890 N.am  715  PRO715     -0.2728
     66  CA       -43.7810    0.0960   24.3480 C.3   715  PRO715      0.1401
     67  C        -43.3720   -1.3550   24.5770 C.2   715  PRO715      0.2269
     68  O        -42.4530   -1.8320   23.9180 O.2   715  PRO715     -0.2865
     69  CB       -44.7980    0.1910   23.2000 C.3   715  PRO715      0.0296
     70  CG       -44.5200    1.5520   22.5740 C.3   715  PRO715      0.0237
     71  CD       -43.0270    1.7130   22.6740 C.3   715  PRO715      0.0939
     72  N        -43.3740   -9.7390   19.5130 N.3   723  THR723     -0.1203
     73  CA       -42.9400   -8.3560   19.4360 C.3   723  THR723      0.1994
     74  C        -42.9270   -7.8910   17.9750 C.2   723  THR723      0.2618
     75  O        -42.5260   -8.6390   17.0820 O.2   723  THR723     -0.2717
     76  CB       -41.5560   -8.1870   20.0750 C.3   723  THR723      0.1784
     77  OG1      -41.6860   -8.2030   21.4980 O.3   723  THR723     -0.2211
     78  CG2      -40.9070   -6.8830   19.6520 C.3   723  THR723      0.0376
     79  N        -43.3970   -6.6720   17.7350 N.am  724  SER724     -0.1951
     80  CA       -43.4180   -6.1010   16.3800 C.3   724  SER724      0.1924
     81  C        -42.0720   -6.1830   15.6580 C.2   724  SER724      0.2314
     82  O        -41.0450   -5.7780   16.1890 O.2   724  SER724     -0.2863
     83  CB       -43.8650   -4.6440   16.4390 C.3   724  SER724      0.2116
     84  OG       -45.1690   -4.5600   16.9840 O.3   724  SER724     -0.2180
     85  N        -40.4470   -8.8000   15.0260 N.3   726  PHE726     -0.1241
     86  CA       -39.6990   -9.9970   15.4340 C.3   726  PHE726      0.1605
     87  C        -40.3050  -11.2540   14.8280 C.2   726  PHE726      0.2264
     88  O        -39.6240  -12.2670   14.6650 O.2   726  PHE726     -0.2867
     89  CB       -39.6540  -10.1350   16.9660 C.3   726  PHE726      0.0534
     90  CG       -38.5950   -9.2950   17.6360 C.ar  726  PHE726     -0.0203
     91  CD1      -37.8280   -8.3940   16.9080 C.ar  726  PHE726     -0.0042
     92  CD2      -38.3530   -9.4280   18.9940 C.ar  726  PHE726     -0.0042
     93  CE1      -36.8450   -7.6300   17.5250 C.ar  726  PHE726     -0.0003
     94  CE2      -37.3790   -8.6700   19.6240 C.ar  726  PHE726     -0.0003
     95  CZ       -36.6230   -7.7600   18.8870 C.ar  726  PHE726     -0.0000
     96  N        -46.2090    0.3960   13.8980 N.3   832  LYS832     -0.1245
     97  CA       -45.0550   -0.4790   13.7650 C.3   832  LYS832      0.1561
     98  C        -45.3880   -1.9620   13.9790 C.2   832  LYS832      0.2260
     99  O        -44.5140   -2.8040   13.8200 O.2   832  LYS832     -0.2867
    100  CB       -43.9320   -0.0570   14.7140 C.3   832  LYS832      0.0271
    101  CG       -44.0500   -0.5710   16.1200 C.3   832  LYS832      0.0035
    102  CD       -42.7560   -0.3290   16.9000 C.3   832  LYS832      0.0206
    103  CE       -42.9040   -0.8060   18.3540 C.3   832  LYS832      0.1093
    104  NZ       -43.8170    0.0690   19.1550 N.3   832  LYS832     -0.1314
@<TRIPOS>BOND
     1    97    96    1
     2    97    98    1
     3    97   100    1
     4    99    98    2
     5    88    87    2
     6   100   101    1
     7    87    86    1
     8    85    86    1
     9    86    89    1
    10    22    21    2
    11    81    82    2
    12    81    80    1
    13   101   102    1
    14    21    20    1
    15    80    83    1
    16    80    79    1
    17    83    84    1
    18    23    20    1
    19    23    24    1
    20    25    24    1
    21   102   103    1
    22    91    93   ar
    23    91    90   ar
    24    89    90    1
    25    75    74    2
    26    20    19    1
    27    24    26    1
    28    93    95   ar
    29    90    92   ar
    30    79    74   am
    31    74    73    1
    32   103   104    1
    33    95    94   ar
    34    12    11    2
    35    92    94   ar
    36    11    10    1
    37    15    17   ar
    38    15    14   ar
    39    17    18   ar
    40    73    72    1
    41    73    76    1
    42    78    76    1
    43    14    13    1
    44    14    16   ar
    45    76    77    1
    46    13    10    1
    47    18    16   ar
    48    10     9    1
    49    56    55    1
    50    55    57    1
    51    55    54    1
    52    38    37    2
    53    30    29    2
    54    37    36    1
    55    37    39   am
    56    36    35    1
    57    70    71    1
    58    70    69    1
    59    64    62    1
    60    54    51    1
    61    71    65    1
    62    29    35   am
    63    29    28    1
    64    39    40    1
    65    40    41    1
    66    40    43    1
    67    62    63    1
    68    62    59    1
    69    50    51    1
    70    50    41   am
    71    69    66    1
    72    51    52    1
    73    41    42    2
    74    43    44    1
    75    65    66    1
    76    65    60   am
    77    28    31    1
    78    28    27    1
    79    68    67    2
    80    31    32    1
    81    44    45    1
    82    34    32   ar
    83    59    60    1
    84    59    58    1
    85    32    33   ar
    86    66    67    1
    87     8     6   am
    88    60    61    2
    89    52    53    2
    90    45    46    1
    91     1     2    1
    92     6     7    2
    93     6     5    1
    94    46    47    2
    95     2     5    1
    96     2     3    1
    97     4     3    2
    98    47    48    1
    99    47    49    1
