@<TRIPOS>MOLECULE
tmp/5i2bA00.pdb
 176 173 0 0 0
SMALL
GASTEIGER

@<TRIPOS>ATOM
      1  N         18.9190   74.9320   16.1620 N.3    43  ALA43      -0.1231
      2  CA        19.5460   75.6020   15.0310 C.3    43  ALA43       0.1694
      3  C         20.8840   76.2430   15.3890 C.2    43  ALA43       0.2592
      4  O         21.4760   76.9220   14.5420 O.2    43  ALA43      -0.2718
      5  CB        18.5980   76.6630   14.4630 C.3    43  ALA43       0.0304
      6  N         21.3610   76.0530   16.6210 N.am   44  ASN44      -0.1960
      7  CA        22.6300   76.6170   17.0820 C.3    44  ASN44       0.1819
      8  C         22.6410   78.1420   16.9800 C.2    44  ASN44       0.2622
      9  O         23.6560   78.7550   16.6350 O.2    44  ASN44      -0.2715
     10  CB        23.8090   76.0050   16.3240 C.3    44  ASN44       0.1195
     11  CG        23.8810   74.5020   16.4910 C.2    44  ASN44       0.2630
     12  OD1       24.0620   74.0020   17.6000 O.2    44  ASN44      -0.2716
     13  ND2       23.7310   73.7720   15.3900 N.am   44  ASN44      -0.0877
     14  N         21.4980   78.7620   17.3050 N.am   45  GLY45      -0.1940
     15  CA        21.3830   80.2020   17.2540 C.3    45  GLY45       0.2014
     16  C         21.8320   80.8820   18.5360 C.2    45  GLY45       0.2639
     17  O         21.8420   80.2920   19.6180 O.2    45  GLY45      -0.2714
     18  N         22.2320   82.1460   18.3940 N.am   46  ALA46      -0.1963
     19  CA        22.5800   82.9740   19.5400 C.3    46  ALA46       0.1728
     20  C         21.3770   83.7060   20.1180 C.2    46  ALA46       0.2616
     21  O         21.4710   84.2170   21.2400 O.2    46  ALA46      -0.2715
     22  CB        23.6530   83.9980   19.1540 C.3    46  ALA46       0.0334
     23  N         20.2750   83.7780   19.3710 N.am   47  GLY47      -0.1955
     24  CA        19.0280   84.3780   19.8310 C.3    47  GLY47       0.1869
     25  C         17.8850   83.9670   18.9230 C.2    47  GLY47       0.2309
     26  O         18.0900   83.3740   17.8590 O.2    47  GLY47      -0.2863
     27  N          9.5350   84.7850   14.6480 N.3    52  GLN52      -0.1245
     28  CA        10.2010   83.7970   13.8100 C.3    52  GLN52       0.1566
     29  C          9.5610   82.4160   13.9060 C.2    52  GLN52       0.2260
     30  O          9.7380   81.6100   12.9870 O.2    52  GLN52      -0.2867
     31  CB        11.6760   83.6960   14.1850 C.3    52  GLN52       0.0367
     32  CG        12.5120   84.9240   13.8170 C.3    52  GLN52       0.0905
     33  CD        13.9490   84.7120   14.1770 C.2    52  GLN52       0.2608
     34  OE1       14.3450   84.9270   15.3240 O.2    52  GLN52      -0.2717
     35  NE2       14.7430   84.2350   13.2150 N.am   52  GLN52      -0.0878
     36  N         34.3570   83.1790   17.2630 N.3    65  ASN65      -0.1225
     37  CA        35.6050   83.4220   16.5480 C.3    65  ASN65       0.1785
     38  C         35.5630   84.7590   15.8190 C.2    65  ASN65       0.2597
     39  O         36.5860   85.4350   15.6760 O.2    65  ASN65      -0.2718
     40  CB        35.8940   82.2910   15.5590 C.3    65  ASN65       0.1169
     41  CG        37.2600   82.3450   14.9080 C.2    65  ASN65       0.2627
     42  OD1       38.2640   82.6460   15.5490 O.2    65  ASN65      -0.2716
     43  ND2       37.3020   82.0390   13.6250 N.am   65  ASN65      -0.0877
     44  N         34.3700   85.1350   15.3440 N.am   66  ARG66      -0.1966
     45  CA        34.2080   86.4430   14.7160 C.3    66  ARG66       0.1729
     46  C         34.1750   87.5530   15.7560 C.2    66  ARG66       0.2616
     47  O         34.4960   88.7060   15.4440 O.2    66  ARG66      -0.2715
     48  CB        32.9400   86.4680   13.8600 C.3    66  ARG66       0.0348
     49  CG        32.9360   85.5550   12.6560 C.3    66  ARG66       0.0492
     50  CD        31.7460   85.9030   11.7880 C.3    66  ARG66       0.2205
     51  NE        31.3640   84.8150   10.8810 N.pl3  66  ARG66      -0.0865
     52  CZ        30.1060   84.4550   10.6510 C.cat  66  ARG66       0.5346
     53  NH1       29.1210   85.0960   11.2610 N.pl3  66  ARG66       0.1354
     54  NH2       29.8330   83.4530    9.8240 N.pl3  66  ARG66       0.1354
     55  N         33.7950   87.2200   16.9860 N.am   67  TYR67      -0.1974
     56  CA        33.7830   88.1510   18.1110 C.3    67  TYR67       0.1639
     57  C         34.4770   87.4760   19.2890 C.2    67  TYR67       0.2290
     58  O         33.8420   87.1300   20.2930 O.2    67  TYR67      -0.2864
     59  CB        32.3520   88.5640   18.4550 C.3    67  TYR67       0.0560
     60  CG        31.5840   89.0410   17.2440 C.ar   67  TYR67      -0.0198
     61  CD1       30.9420   88.1390   16.4000 C.ar   67  TYR67      -0.0009
     62  CD2       31.5220   90.3910   16.9280 C.ar   67  TYR67      -0.0009
     63  CE1       30.2440   88.5750   15.2820 C.ar   67  TYR67       0.0417
     64  CE2       30.8330   90.8330   15.8080 C.ar   67  TYR67       0.0417
     65  CZ        30.1930   89.9230   14.9940 C.ar   67  TYR67       0.1957
     66  OH        29.5020   90.3640   13.8900 O.3    67  TYR67      -0.2866
     67  N         29.6210   90.7370   10.5730 N.3    94  TRP94      -0.1227
     68  CA        28.8610   89.7450    9.8300 C.3    94  TRP94       0.1737
     69  C         27.6990   89.2110   10.6550 C.2    94  TRP94       0.2595
     70  O         27.8540   88.8990   11.8380 O.2    94  TRP94      -0.2718
     71  CB        29.7640   88.5830    9.4360 C.3    94  TRP94       0.0564
     72  CG        30.7530   88.9460    8.3950 C.ar   94  TRP94       0.0003
     73  CD1       32.0600   89.2720    8.5820 C.ar   94  TRP94       0.0946
     74  CD2       30.5110   89.0240    6.9920 C.ar   94  TRP94       0.0152
     75  NE1       32.6560   89.5410    7.3730 N.ar   94  TRP94      -0.2442
     76  CE2       31.7240   89.3900    6.3790 C.ar   94  TRP94       0.0810
     77  CE3       29.3860   88.8100    6.1890 C.ar   94  TRP94       0.0012
     78  CZ2       31.8420   89.5550    5.0030 C.ar   94  TRP94       0.0191
     79  CZ3       29.5100   88.9660    4.8200 C.ar   94  TRP94       0.0001
     80  CH2       30.7270   89.3390    4.2450 C.ar   94  TRP94       0.0015
     81  N         26.5370   89.1040   10.0220 N.am   95  GLU95      -0.1965
     82  CA        25.3560   88.5190   10.6410 C.3    95  GLU95       0.1733
     83  C         24.7450   87.4740    9.7210 C.2    95  GLU95       0.2617
     84  O         24.7890   87.5930    8.4970 O.2    95  GLU95      -0.2715
     85  CB        24.2930   89.5700   10.9530 C.3    95  GLU95       0.0429
     86  CG        24.8030   90.6720   11.8650 C.3    95  GLU95       0.1163
     87  CD        23.7050   91.5770   12.3850 C.2    95  GLU95       0.3649
     88  OE1       22.4960   91.2680   12.2370 O.co2  95  GLU95      -0.2457
     89  OE2       24.0620   92.6070   12.9830 O.co2  95  GLU95      -0.2457
     90  N         24.1610   86.4520   10.3400 N.am   96  GLY96      -0.1940
     91  CA        23.2350   85.5780    9.6610 C.3    96  GLY96       0.2014
     92  C         21.9540   85.5020   10.4700 C.2    96  GLY96       0.2639
     93  O         21.9150   85.9040   11.6280 O.2    96  GLY96      -0.2714
     94  N         20.9170   84.9490    9.8460 N.am   97  CYS97      -0.1953
     95  CA        19.6020   84.8780   10.4660 C.3    97  CYS97       0.1843
     96  C         18.9790   83.5330   10.1510 C.2    97  CYS97       0.2625
     97  O         19.0430   83.0760    9.0080 O.2    97  CYS97      -0.2714
     98  CB        18.6880   85.9950    9.9430 C.3    97  CYS97       0.0997
     99  SG        17.0920   86.0600   10.7690 S.3    97  CYS97      -0.0797
    100  N         18.3640   82.9040   11.1590 N.am   98  LEU98      -0.1977
    101  CA        17.7150   81.6280   10.8950 C.3    98  LEU98       0.1596
    102  C         16.5590   81.7610    9.9100 C.2    98  LEU98       0.2287
    103  O         16.1720   80.7660    9.2840 O.2    98  LEU98      -0.2864
    104  CB        17.2440   81.0140   12.2100 C.3    98  LEU98       0.0297
    105  CG        18.4060   80.6480   13.1380 C.3    98  LEU98       0.0022
    106  CD1       17.8530   80.0990   14.4360 C.3    98  LEU98       0.0001
    107  CD2       19.3380   79.6190   12.4720 C.3    98  LEU98       0.0001
    108  N         24.9810   85.3450    4.6680 N.3   104  ARG104     -0.1245
    109  CA        25.5760   86.2810    5.6190 C.3   104  ARG104      0.1563
    110  C         25.6360   87.6600    4.9860 C.2   104  ARG104      0.2260
    111  O         25.7500   87.7950    3.7650 O.2   104  ARG104     -0.2867
    112  CB        27.0100   85.8860    6.0290 C.3   104  ARG104      0.0307
    113  CG        27.1390   84.5360    6.7070 C.3   104  ARG104      0.0489
    114  CD        26.5210   84.5680    8.1140 C.3   104  ARG104      0.2205
    115  NE        26.7780   83.3210    8.8330 N.pl3 104  ARG104     -0.0865
    116  CZ        25.9700   82.2660    8.8160 C.cat 104  ARG104      0.5346
    117  NH1       24.8430   82.2940    8.1100 N.pl3 104  ARG104      0.1354
    118  NH2       26.2940   81.1770    9.5020 N.pl3 104  ARG104      0.1354
    119  N         29.2440   92.1750   20.6780 N.3   132  PHE132     -0.1241
    120  CA        28.3680   91.1210   20.1700 C.3   132  PHE132      0.1605
    121  C         27.0660   91.0380   20.9620 C.2   132  PHE132      0.2264
    122  O         25.9960   90.8290   20.3870 O.2   132  PHE132     -0.2867
    123  CB        29.0970   89.7720   20.1980 C.3   132  PHE132      0.0534
    124  CG        28.3220   88.6470   19.5510 C.ar  132  PHE132     -0.0203
    125  CD1       28.1180   88.6280   18.1780 C.ar  132  PHE132     -0.0042
    126  CD2       27.8120   87.6050   20.3120 C.ar  132  PHE132     -0.0042
    127  CE1       27.4100   87.6000   17.5770 C.ar  132  PHE132     -0.0003
    128  CE2       27.1000   86.5760   19.7180 C.ar  132  PHE132     -0.0003
    129  CZ        26.9030   86.5690   18.3500 C.ar  132  PHE132     -0.0000
    130  N         24.8730   93.5670   19.6570 N.3   135  ARG135     -0.1231
    131  CA        24.4840   93.2070   18.2920 C.3   135  ARG135      0.1694
    132  C         23.3520   92.1830   18.2830 C.2   135  ARG135      0.2591
    133  O         22.3820   92.3120   17.5190 O.2   135  ARG135     -0.2718
    134  CB        25.7020   92.6810   17.5260 C.3   135  ARG135      0.0321
    135  CG        25.3690   92.0850   16.1400 C.3   135  ARG135      0.0489
    136  CD        26.6140   91.7570   15.3210 C.3   135  ARG135      0.2205
    137  NE        27.5070   92.9130   15.1990 N.pl3 135  ARG135     -0.0865
    138  CZ        27.4970   93.7760   14.1870 C.cat 135  ARG135      0.5346
    139  NH1       26.6480   93.6140   13.1620 N.pl3 135  ARG135      0.1354
    140  NH2       28.3660   94.7800   14.1830 N.pl3 135  ARG135      0.1354
    141  N         23.4550   91.1550   19.1280 N.am  136  VAL136     -0.1980
    142  CA        22.3980   90.1490   19.1780 C.3   136  VAL136      0.1595
    143  C         21.0820   90.7820   19.6050 C.2   136  VAL136      0.2287
    144  O         20.0210   90.5020   19.0320 O.2   136  VAL136     -0.2864
    145  CB        22.7940   88.9920   20.1200 C.3   136  VAL136      0.0276
    146  CG1       21.5910   88.0690   20.3260 C.3   136  VAL136      0.0022
    147  CG2       23.9840   88.2180   19.5500 C.3   136  VAL136      0.0022
    148  N         19.6570   92.7940   16.7040 N.3   139  HIS139     -0.1226
    149  CA        19.1350   91.8740   15.6990 C.3   139  HIS139      0.1752
    150  C         17.7900   91.2830   16.1230 C.2   139  HIS139      0.2595
    151  O         16.8440   91.2450   15.3290 O.2   139  HIS139     -0.2718
    152  CB        20.1720   90.7850   15.4510 C.3   139  HIS139      0.0759
    153  CG        19.7540   89.7660   14.4450 C.ar  139  HIS139      0.0818
    154  ND1       20.3580   89.6560   13.2040 N.ar  139  HIS139     -0.2268
    155  CD2       18.8430   88.7660   14.5160 C.ar  139  HIS139      0.1154
    156  CE1       19.8050   88.6490   12.5480 C.ar  139  HIS139      0.1986
    157  NE2       18.8830   88.0940   13.3200 N.ar  139  HIS139     -0.2212
    158  N         17.6690   90.8340   17.3810 N.am  140  GLU140     -0.1979
    159  CA        16.3940   90.2450   17.7910 C.3   140  GLU140      0.1602
    160  C         15.3180   91.3070   17.9280 C.2   140  GLU140      0.2287
    161  O         14.1500   91.0710   17.5880 O.2   140  GLU140     -0.2864
    162  CB        16.5430   89.4760   19.1130 C.3   140  GLU140      0.0415
    163  CG        17.6070   88.4100   19.0740 C.3   140  GLU140      0.1163
    164  CD        17.4050   87.4090   17.9450 C.2   140  GLU140      0.3649
    165  OE1       16.2590   87.2390   17.4550 O.co2 140  GLU140     -0.2457
    166  OE2       18.3990   86.7700   17.5730 O.co2 140  GLU140     -0.2457
    167  N         13.5190   92.0290   14.7620 N.3   143  HIS143     -0.1241
    168  CA        12.4570   91.0780   14.4240 C.3   143  HIS143      0.1621
    169  C         11.1040   91.5220   14.9740 C.2   143  HIS143      0.2264
    170  O         10.0640   91.2220   14.3750 O.2   143  HIS143     -0.2867
    171  CB        12.7770   89.6770   14.9610 C.3   143  HIS143      0.0745
    172  CG        13.7120   88.8840   14.0980 C.ar  143  HIS143      0.0817
    173  ND1       13.4320   88.5620   12.7860 N.ar  143  HIS143     -0.2268
    174  CD2       14.9150   88.3240   14.3730 C.ar  143  HIS143      0.1154
    175  CE1       14.4340   87.8570   12.2840 C.ar  143  HIS143      0.1986
    176  NE2       15.3420   87.6940   13.2280 N.ar  143  HIS143     -0.2212
@<TRIPOS>BOND
     1   111   110    2
     2    80    79   ar
     3    80    78   ar
     4   108   109    1
     5    79    77   ar
     6   110   109    1
     7    78    76   ar
     8   109   112    1
     9   112   113    1
    10    77    74   ar
    11    76    74   ar
    12    76    75   ar
    13   113   114    1
    14    74    72   ar
    15    75    73   ar
    16   117   116    1
    17   114   115    1
    18    72    73   ar
    19    72    71    1
    20    84    83    2
    21   116   115    2
    22   116   118    1
    23    97    96    2
    24   103   102    2
    25    71    68    1
    26    91    90    1
    27    91    92    1
    28    83    90   am
    29    83    82    1
    30    54    52    1
    31    68    67    1
    32    68    69    1
    33    94    95    1
    34    94    92   am
    35   102   101    1
    36    98    95    1
    37    98    99    1
    38    81    82    1
    39    81    69   am
    40    96    95    1
    41    96   100   am
    42    92    93    2
    43    82    85    1
    44    52    51    2
    45    52    53    1
    46    69    70    2
    47    51    50    1
    48   101   100    1
    49   101   104    1
    50    85    86    1
    51    50    49    1
    52    86    87    1
    53   104   105    1
    54    88    87   ar
    55   175   173   ar
    56   175   176   ar
    57    87    89   ar
    58   107   105    1
    59   156   154   ar
    60   156   157   ar
    61    49    48    1
    62   173   172   ar
    63    30    29    2
    64   105   106    1
    65   139   138    1
    66   154   153   ar
    67    35    33   am
    68   176   174   ar
    69   157   155   ar
    70    43    41   am
    71    28    29    1
    72    28    31    1
    73    28    27    1
    74    32    33    1
    75    32    31    1
    76    48    45    1
    77    66    65    1
    78   172   174   ar
    79   172   171    1
    80    33    34    2
    81   140   138    1
    82   138   137    2
    83   170   169    2
    84   168   167    1
    85   168   171    1
    86   168   169    1
    87   153   155   ar
    88   153   152    1
    89     5     2    1
    90     4     3    2
    91    45    44    1
    92    45    46    1
    93    41    42    2
    94    41    40    1
    95    65    63   ar
    96    65    64   ar
    97     2     3    1
    98     2     1    1
    99   137   136    1
   100    63    61   ar
   101   136   135    1
   102   151   150    2
   103    44    38   am
   104     3     6   am
   105    13    11   am
   106    47    46    2
   107   152   149    1
   108    40    37    1
   109    39    38    2
   110   149   150    1
   111   149   148    1
   112    46    55   am
   113    64    62   ar
   114    38    37    1
   115   150   158   am
   116   135   134    1
   117    10    11    1
   118    10     7    1
   119    61    60   ar
   120    11    12    2
   121    37    36    1
   122     6     7    1
   123     9     8    2
   124    62    60   ar
   125     8     7    1
   126     8    14   am
   127    55    56    1
   128    60    59    1
   129    15    14    1
   130    15    16    1
   131   158   159    1
   132   165   164   ar
   133   133   132    2
   134   134   131    1
   135   166   164   ar
   136   127   125   ar
   137   127   129   ar
   138   161   160    2
   139   159   160    1
   140   159   162    1
   141    26    25    2
   142   164   163    1
   143    56    59    1
   144    56    57    1
   145   125   124   ar
   146   132   131    1
   147   132   141   am
   148   131   130    1
   149   129   128   ar
   150    18    16   am
   151    18    19    1
   152    16    17    2
   153    25    24    1
   154   144   143    2
   155   163   162    1
   156   141   142    1
   157    22    19    1
   158   142   143    1
   159   142   145    1
   160    57    58    2
   161    23    24    1
   162    23    20   am
   163    19    20    1
   164   147   145    1
   165   124   123    1
   166   124   126   ar
   167   128   126   ar
   168    20    21    2
   169   145   146    1
   170   120   123    1
   171   120   119    1
   172   120   121    1
   173   122   121    2
