@<TRIPOS>MOLECULE
tmp/5i2eA00.pdb
 198 194 0 0 0
SMALL
GASTEIGER

@<TRIPOS>ATOM
      1  N        -32.3070   -1.7480  -33.4030 N.3     7  ILE7       -0.1231
      2  CA       -31.2750   -1.0300  -34.1470 C.3     7  ILE7        0.1692
      3  C        -29.8980   -1.5940  -33.8160 C.2     7  ILE7        0.2592
      4  O        -29.0270   -1.7050  -34.6890 O.2     7  ILE7       -0.2718
      5  CB       -31.3580    0.4820  -33.8630 C.3     7  ILE7        0.0266
      6  CG1      -32.6140    1.0720  -34.5070 C.3     7  ILE7        0.0019
      7  CG2      -30.1130    1.2020  -34.3670 C.3     7  ILE7        0.0020
      8  CD1      -32.6890    0.8590  -36.0100 C.3     7  ILE7        0.0001
      9  N        -29.6950   -2.0100  -32.5640 N.am    8  PHE8       -0.1976
     10  CA       -28.3810   -2.5190  -32.1810 C.3     8  PHE8        0.1639
     11  C        -28.1000   -3.8750  -32.8140 C.2     8  PHE8        0.2290
     12  O        -26.9560   -4.1660  -33.1790 O.2     8  PHE8       -0.2864
     13  CB       -28.2490   -2.5980  -30.6610 C.3     8  PHE8        0.0560
     14  CG       -28.2240   -1.2640  -29.9860 C.ar    8  PHE8       -0.0200
     15  CD1      -28.2190   -0.0760  -30.7140 C.ar    8  PHE8       -0.0042
     16  CD2      -28.1910   -1.1900  -28.6020 C.ar    8  PHE8       -0.0042
     17  CE1      -28.1930    1.1600  -30.0710 C.ar    8  PHE8       -0.0003
     18  CE2      -28.1680    0.0370  -27.9640 C.ar    8  PHE8       -0.0003
     19  CZ       -28.1740    1.2090  -28.6920 C.ar    8  PHE8       -0.0000
     20  N        -26.9840   -3.0630  -36.1740 N.3    11  ILE11      -0.1245
     21  CA       -25.6140   -2.5590  -36.1460 C.3    11  ILE11       0.1561
     22  C        -24.6230   -3.7100  -35.9950 C.2    11  ILE11       0.2260
     23  O        -23.5790   -3.7340  -36.6610 O.2    11  ILE11      -0.2867
     24  CB       -25.4580   -1.5180  -35.0190 C.3    11  ILE11       0.0252
     25  CG1      -26.2050   -0.2360  -35.3670 C.3    11  ILE11       0.0019
     26  CG2      -23.9910   -1.2170  -34.7560 C.3    11  ILE11       0.0019
     27  CD1      -26.1010    0.8480  -34.2760 C.3    11  ILE11       0.0001
     28  N        -26.9400   -1.6580  -40.4910 N.3    16  ILE16      -0.1231
     29  CA       -27.0270   -0.2130  -40.2890 C.3    16  ILE16       0.1678
     30  C        -25.6200    0.2890  -39.9980 C.2    16  ILE16       0.2434
     31  O        -24.9260   -0.3060  -39.1650 O.2    16  ILE16      -0.2733
     32  CB       -27.9740    0.1470  -39.1270 C.3    16  ILE16       0.0265
     33  CG1      -29.4310   -0.1500  -39.4910 C.3    16  ILE16       0.0019
     34  CG2      -27.7980    1.6080  -38.7080 C.3    16  ILE16       0.0020
     35  CD1      -29.8620    0.4130  -40.8140 C.3    16  ILE16       0.0001
     36  N        -25.1590    1.3570  -40.6410 N.am   17  PRO17      -0.2718
     37  CA       -23.7960    1.8270  -40.3800 C.3    17  PRO17       0.1535
     38  C        -23.6740    2.4650  -39.0050 C.2    17  PRO17       0.2598
     39  O        -24.6210    3.0470  -38.4720 O.2    17  PRO17      -0.2715
     40  CB       -23.5490    2.8460  -41.4950 C.3    17  PRO17       0.0310
     41  CG       -24.9140    3.3190  -41.8830 C.3    17  PRO17       0.0237
     42  CD       -25.8420    2.1620  -41.6750 C.3    17  PRO17       0.0939
     43  N        -22.4840    2.3340  -38.4290 N.am   18  ALA18      -0.1964
     44  CA       -22.1640    2.9750  -37.1660 C.3    18  ALA18       0.1728
     45  C        -20.6770    3.2770  -37.1620 C.2    18  ALA18       0.2616
     46  O        -19.9120    2.7250  -37.9540 O.2    18  ALA18      -0.2715
     47  CB       -22.5350    2.0920  -35.9670 C.3    18  ALA18       0.0334
     48  N        -20.2700    4.1670  -36.2630 N.am   19  LYS19      -0.1977
     49  CA       -18.8550    4.4980  -36.1170 C.3    19  LYS19       0.1596
     50  C        -18.2900    3.5880  -35.0360 C.2    19  LYS19       0.2287
     51  O        -18.3520    3.8910  -33.8390 O.2    19  LYS19      -0.2864
     52  CB       -18.6740    5.9760  -35.7980 C.3    19  LYS19       0.0298
     53  CG       -19.1120    6.8830  -36.9390 C.3    19  LYS19       0.0038
     54  CD       -18.3670    6.5350  -38.2230 C.3    19  LYS19       0.0206
     55  CE       -18.8120    7.4030  -39.3890 C.3    19  LYS19       0.1093
     56  NZ       -17.8930    7.2640  -40.5600 N.3    19  LYS19      -0.1314
     57  N        -19.4160    1.5280  -30.1840 N.3    30  PHE30      -0.1227
     58  CA       -19.6180    2.4760  -31.2760 C.3    30  PHE30       0.1736
     59  C        -20.1570    3.7800  -30.7020 C.2    30  PHE30       0.2595
     60  O        -20.7330    3.8040  -29.6160 O.2    30  PHE30      -0.2718
     61  CB       -20.5660    1.9200  -32.3600 C.3    30  PHE30       0.0547
     62  CG       -21.8960    1.4540  -31.8300 C.ar   30  PHE30      -0.0202
     63  CD1      -22.0610    0.1410  -31.4050 C.ar   30  PHE30      -0.0042
     64  CD2      -22.9730    2.3240  -31.7420 C.ar   30  PHE30      -0.0042
     65  CE1      -23.2780   -0.2970  -30.9000 C.ar   30  PHE30      -0.0003
     66  CE2      -24.1970    1.8890  -31.2430 C.ar   30  PHE30      -0.0003
     67  CZ       -24.3450    0.5810  -30.8150 C.ar   30  PHE30      -0.0000
     68  N        -19.9820    4.8660  -31.4560 N.am   31  HIS31      -0.1961
     69  CA       -20.3490    6.1870  -30.9600 C.3    31  HIS31       0.1787
     70  C        -21.8610    6.3990  -30.9860 C.2    31  HIS31       0.2620
     71  O        -22.5550    5.9250  -31.8820 O.2    31  HIS31      -0.2715
     72  CB       -19.6430    7.2630  -31.7850 C.3    31  HIS31       0.0785
     73  CG       -18.1630    7.2920  -31.5670 C.ar   31  HIS31       0.0821
     74  ND1      -17.5750    8.0060  -30.5410 N.ar   31  HIS31      -0.2267
     75  CD2      -17.1530    6.6750  -32.2230 C.ar   31  HIS31       0.1154
     76  CE1      -16.2640    7.8430  -30.5920 C.ar   31  HIS31       0.1986
     77  NE2      -15.9830    7.0410  -31.6050 N.ar   31  HIS31      -0.2212
     78  N        -22.3650    7.1080  -29.9770 N.am   32  ASP32      -0.1957
     79  CA       -23.7800    7.4530  -29.9100 C.3    32  ASP32       0.1840
     80  C        -24.1080    8.5410  -30.9250 C.2    32  ASP32       0.2622
     81  O        -23.3520    9.5010  -31.0810 O.2    32  ASP32      -0.2715
     82  CB       -24.1250    7.9520  -28.5040 C.3    32  ASP32       0.1450
     83  CG       -25.5890    7.8100  -28.1770 C.2    32  ASP32       0.3671
     84  OD1      -26.4100    8.5080  -28.7950 O.co2  32  ASP32      -0.2456
     85  OD2      -25.9250    7.0100  -27.2830 O.co2  32  ASP32      -0.2456
     86  N        -25.2520    8.4020  -31.6070 N.am   33  ILE33      -0.1963
     87  CA       -25.6210    9.4060  -32.6080 C.3    33  ILE33       0.1727
     88  C        -26.2970   10.6300  -32.0230 C.2    33  ILE33       0.2616
     89  O        -26.5130   11.6090  -32.7520 O.2    33  ILE33      -0.2715
     90  CB       -26.5620    8.8540  -33.6940 C.3    33  ILE33       0.0290
     91  CG1      -27.8770    8.3770  -33.0730 C.3    33  ILE33       0.0022
     92  CG2      -25.8690    7.7660  -34.4890 C.3    33  ILE33       0.0023
     93  CD1      -28.8390    7.7760  -34.0940 C.3    33  ILE33       0.0001
     94  N        -26.6480   10.6100  -30.7390 N.am   34  SER34      -0.1950
     95  CA       -27.1450   11.7890  -30.0280 C.3    34  SER34       0.1924
     96  C        -26.2970   11.9840  -28.7790 C.2    34  SER34       0.2314
     97  O        -26.7550   11.7470  -27.6510 O.2    34  SER34      -0.2863
     98  CB       -28.6260   11.6420  -29.6760 C.3    34  SER34       0.2116
     99  OG       -29.3940   11.3740  -30.8390 O.3    34  SER34      -0.2180
    100  N        -24.4670   12.9700  -25.4820 N.3    36  GLN36      -0.1245
    101  CA       -24.7750   13.8160  -24.3400 C.3    36  GLN36       0.1566
    102  C        -23.5220   14.3860  -23.7020 C.2    36  GLN36       0.2260
    103  O        -23.6170   15.0890  -22.7000 O.2    36  GLN36      -0.2867
    104  CB       -25.5750   13.0340  -23.2910 C.3    36  GLN36       0.0367
    105  CG       -26.8830   12.4530  -23.8220 C.3    36  GLN36       0.0905
    106  CD       -27.8310   13.5330  -24.3060 C.2    36  GLN36       0.2608
    107  OE1      -28.2310   14.4040  -23.5340 O.2    36  GLN36      -0.2717
    108  NE2      -28.1990   13.4820  -25.5860 N.am   36  GLN36      -0.0878
    109  N        -19.1990   10.1930  -26.2570 N.3    40  HIS40      -0.1241
    110  CA       -20.3370    9.4180  -25.7800 C.3    40  HIS40       0.1621
    111  C        -20.4360    8.2040  -26.6870 C.2    40  HIS40       0.2264
    112  O        -20.7800    8.3430  -27.8640 O.2    40  HIS40      -0.2867
    113  CB       -21.6220   10.2440  -25.8090 C.3    40  HIS40       0.0745
    114  CG       -22.8190    9.5220  -25.2610 C.ar   40  HIS40       0.0817
    115  ND1      -24.0550   10.1200  -25.1520 N.ar   40  HIS40      -0.2268
    116  CD2      -22.9690    8.2610  -24.7910 C.ar   40  HIS40       0.1154
    117  CE1      -24.9190    9.2590  -24.6470 C.ar   40  HIS40       0.1986
    118  NE2      -24.2860    8.1200  -24.4180 N.ar   40  HIS40      -0.2212
    119  N        -21.2390    3.6610  -26.8610 N.3    42  LEU42      -0.1245
    120  CA       -21.9970    2.5440  -26.3170 C.3    42  LEU42       0.1561
    121  C        -21.2020    1.2600  -26.4720 C.2    42  LEU42       0.2260
    122  O        -20.5120    1.0660  -27.4750 O.2    42  LEU42      -0.2867
    123  CB       -23.3360    2.3940  -27.0450 C.3    42  LEU42       0.0270
    124  CG       -24.1380    3.6780  -27.2230 C.3    42  LEU42       0.0019
    125  CD1      -25.4180    3.4120  -27.9870 C.3    42  LEU42       0.0001
    126  CD2      -24.4300    4.2800  -25.8670 C.3    42  LEU42       0.0001
    127  N        -29.3040    1.9120  -18.5600 N.3    88  ASN88      -0.1240
    128  CA       -30.6840    2.3200  -18.3210 C.3    88  ASN88       0.1653
    129  C        -31.5850    1.1040  -18.4040 C.2    88  ASN88       0.2266
    130  O        -31.4500    0.2920  -19.3230 O.2    88  ASN88      -0.2867
    131  CB       -31.1460    3.3670  -19.3340 C.3    88  ASN88       0.1155
    132  CG       -30.4640    4.6940  -19.1400 C.2    88  ASN88       0.2627
    133  OD1      -30.1140    5.0570  -18.0170 O.2    88  ASN88      -0.2716
    134  ND2      -30.2780    5.4330  -20.2350 N.am   88  ASN88      -0.0877
    135  N        -38.6740    1.9850  -18.1210 N.3    91  SER91      -0.1202
    136  CA       -39.2560    3.3020  -18.3580 C.3    91  SER91       0.2020
    137  C        -38.6090    4.3580  -17.4720 C.2    91  SER91       0.2619
    138  O        -38.2300    5.4350  -17.9460 O.2    91  SER91      -0.2717
    139  CB       -40.7650    3.2490  -18.1180 C.3    91  SER91       0.2103
    140  OG       -41.3600    4.5000  -18.3930 O.3    91  SER91      -0.2182
    141  N        -38.4840    4.0650  -16.1760 N.am   92  ASP92      -0.1959
    142  CA       -37.8730    5.0140  -15.2530 C.3    92  ASP92       0.1840
    143  C        -36.3990    5.2390  -15.5650 C.2    92  ASP92       0.2623
    144  O        -35.8490    6.2930  -15.2330 O.2    92  ASP92      -0.2715
    145  CB       -38.0520    4.5200  -13.8140 C.3    92  ASP92       0.1450
    146  CG       -39.3650    4.9840  -13.2000 C.2    92  ASP92       0.3671
    147  OD1      -40.1530    5.6560  -13.9030 O.co2  92  ASP92      -0.2456
    148  OD2      -39.6160    4.6690  -12.0160 O.co2  92  ASP92      -0.2456
    149  N        -35.7330    4.2580  -16.1750 N.am   93  GLY93      -0.1940
    150  CA       -34.3860    4.4960  -16.6560 C.3    93  GLY93       0.2014
    151  C        -34.3230    5.2750  -17.9480 C.2    93  GLY93       0.2639
    152  O        -33.2580    5.7940  -18.2970 O.2    93  GLY93      -0.2714
    153  N        -35.4380    5.3740  -18.6660 N.am   94  GLY94      -0.1939
    154  CA       -35.4300    6.0120  -19.9660 C.3    94  GLY94       0.2014
    155  C        -34.9800    5.1210  -21.0990 C.2    94  GLY94       0.2639
    156  O        -34.6640    5.6270  -22.1800 O.2    94  GLY94      -0.2714
    157  N        -34.9530    3.8060  -20.8930 N.am   95  GLN95      -0.1963
    158  CA       -34.4580    2.9060  -21.9280 C.3    95  GLN95       0.1733
    159  C        -35.3280    2.9830  -23.1780 C.2    95  GLN95       0.2617
    160  O        -36.5440    2.7860  -23.1100 O.2    95  GLN95      -0.2715
    161  CB       -34.4060    1.4770  -21.3910 C.3    95  GLN95       0.0408
    162  CG       -33.7680    0.5050  -22.3610 C.3    95  GLN95       0.0908
    163  CD       -33.5740   -0.8740  -21.7670 C.2    95  GLN95       0.2608
    164  OE1      -34.0500   -1.1750  -20.6660 O.2    95  GLN95      -0.2717
    165  NE2      -32.8630   -1.7270  -22.4950 N.am   95  GLN95      -0.0878
    166  N        -34.6960    3.2770  -24.3200 N.am   96  SER96      -0.1936
    167  CA       -35.3870    3.4060  -25.5940 C.3    96  SER96       0.2055
    168  C        -35.0590    2.2970  -26.5790 C.2    96  SER96       0.2642
    169  O        -35.7600    2.1600  -27.5840 O.2    96  SER96      -0.2714
    170  CB       -35.0540    4.7550  -26.2530 C.3    96  SER96       0.2130
    171  OG       -33.6670    4.8560  -26.5640 O.3    96  SER96      -0.2179
    172  N        -34.0090    1.5200  -26.3280 N.am   97  VAL97      -0.1977
    173  CA       -33.6300    0.3920  -27.1700 C.3    97  VAL97       0.1596
    174  C        -33.4790   -0.8200  -26.2650 C.2    97  VAL97       0.2287
    175  O        -32.6390   -0.8160  -25.3590 O.2    97  VAL97      -0.2864
    176  CB       -32.3280    0.6480  -27.9530 C.3    97  VAL97       0.0276
    177  CG1      -31.9770   -0.5790  -28.7910 C.3    97  VAL97       0.0022
    178  CG2      -32.4700    1.8900  -28.8480 C.3    97  VAL97       0.0022
    179  N        -27.0720   -2.4940  -23.0150 N.3   101  HIS101     -0.1241
    180  CA       -25.9210   -1.7350  -23.4730 C.3   101  HIS101      0.1621
    181  C        -25.4230   -0.8370  -22.3600 C.2   101  HIS101      0.2264
    182  O        -26.1690   -0.4430  -21.4570 O.2   101  HIS101     -0.2867
    183  CB       -26.2380   -0.8880  -24.7130 C.3   101  HIS101      0.0745
    184  CG       -27.3760    0.0560  -24.5220 C.ar  101  HIS101      0.0817
    185  ND1      -28.6910   -0.3550  -24.5540 N.ar  101  HIS101     -0.2268
    186  CD2      -27.4010    1.3910  -24.2950 C.ar  101  HIS101      0.1154
    187  CE1      -29.4790    0.6860  -24.3460 C.ar  101  HIS101      0.1986
    188  NE2      -28.7220    1.7570  -24.1870 N.ar  101  HIS101     -0.2212
    189  N        -23.5840    2.8070  -21.6540 N.3   103  HIS103     -0.1241
    190  CA       -23.1420    4.1270  -22.1070 C.3   103  HIS103      0.1621
    191  C        -21.8230    4.4810  -21.4410 C.2   103  HIS103      0.2264
    192  O        -21.6220    4.2050  -20.2550 O.2   103  HIS103     -0.2867
    193  CB       -24.1380    5.2290  -21.7450 C.3   103  HIS103      0.0745
    194  CG       -25.4880    5.0920  -22.3690 C.ar  103  HIS103      0.0817
    195  ND1      -25.9300    5.9340  -23.3640 N.ar  103  HIS103     -0.2268
    196  CD2      -26.5100    4.2460  -22.1080 C.ar  103  HIS103      0.1154
    197  CE1      -27.1610    5.5980  -23.7060 C.ar  103  HIS103      0.1986
    198  NE2      -27.5390    4.5810  -22.9550 N.ar  103  HIS103     -0.2212
@<TRIPOS>BOND
     1    41    42    1
     2    41    40    1
     3    42    36    1
     4    40    37    1
     5    35    33    1
     6    36    37    1
     7    36    30   am
     8    56    55    1
     9    28    29    1
    10    37    38    1
    11    29    30    1
    12    29    32    1
    13    30    31    2
    14    33    32    1
    15    55    54    1
    16    32    34    1
    17    38    39    2
    18    38    43   am
    19    43    44    1
    20    54    53    1
    21    46    45    2
    22    44    45    1
    23    44    47    1
    24    45    48   am
    25    53    52    1
    26    23    22    2
    27    48    49    1
    28    20    21    1
    29    21    22    1
    30    21    24    1
    31    49    52    1
    32    49    50    1
    33     8     6    1
    34    25    24    1
    35    25    27    1
    36    50    51    2
    37    24    26    1
    38     4     3    2
    39     6     5    1
    40    92    90    1
    41     7     5    1
    42     2     5    1
    43     2     3    1
    44     2     1    1
    45    93    91    1
    46     3     9   am
    47    90    91    1
    48    90    87    1
    49    12    11    2
    50    11    10    1
    51    89    88    2
    52    87    88    1
    53    87    86    1
    54     9    10    1
    55    61    62    1
    56    61    58    1
    57    75    77   ar
    58    75    73   ar
    59    10    13    1
    60    88    94   am
    61    71    70    2
    62    62    64   ar
    63    62    63   ar
    64    72    73    1
    65    72    69    1
    66    64    66   ar
    67    86    80   am
    68    77    76   ar
    69    73    74   ar
    70    68    69    1
    71    68    59   am
    72    63    65   ar
    73    58    59    1
    74    58    57    1
    75    66    67   ar
    76    81    80    2
    77    70    69    1
    78    70    78   am
    79    80    79    1
    80    65    67   ar
    81    99    98    1
    82    94    95    1
    83    15    17   ar
    84    15    14   ar
    85    59    60    2
    86    13    14    1
    87    76    74   ar
    88    17    19   ar
    89    95    98    1
    90    95    96    1
    91    14    16   ar
    92    78    79    1
    93    79    82    1
    94   178   176    1
    95    84    83   ar
    96   177   176    1
    97    96    97    2
    98    19    18   ar
    99    16    18   ar
   100    82    83    1
   101    83    85   ar
   102   125   124    1
   103   176   173    1
   104   112   111    2
   105   169   168    2
   106   122   121    2
   107   124   123    1
   108   124   126    1
   109   173   172    1
   110   173   174    1
   111   123   120    1
   112   119   120    1
   113   111   110    1
   114   168   172   am
   115   168   167    1
   116   171   170    1
   117   121   120    1
   118   174   175    2
   119   109   110    1
   120   170   167    1
   121   113   110    1
   122   113   114    1
   123   167   166    1
   124   108   106   am
   125   100   101    1
   126   114   115   ar
   127   114   116   ar
   128   115   117   ar
   129   116   118   ar
   130   183   184    1
   131   183   180    1
   132   117   118   ar
   133   185   184   ar
   134   185   187   ar
   135   184   186   ar
   136   187   188   ar
   137   101   102    1
   138   101   104    1
   139   166   159   am
   140   106   105    1
   141   106   107    2
   142   186   188   ar
   143   105   104    1
   144   197   195   ar
   145   197   198   ar
   146   102   103    2
   147   180   179    1
   148   180   181    1
   149   195   194   ar
   150   159   160    2
   151   159   158    1
   152   198   196   ar
   153   165   163   am
   154   194   196   ar
   155   194   193    1
   156   162   163    1
   157   162   161    1
   158   181   182    2
   159   156   155    2
   160   190   193    1
   161   190   189    1
   162   190   191    1
   163   158   161    1
   164   158   157    1
   165   163   164    2
   166   191   192    2
   167   155   157   am
   168   155   154    1
   169   134   132   am
   170   154   153    1
   171   131   132    1
   172   131   128    1
   173   130   129    2
   174   132   133    2
   175   153   151   am
   176   127   128    1
   177   129   128    1
   178   140   139    1
   179   136   135    1
   180   136   139    1
   181   136   137    1
   182   152   151    2
   183   151   150    1
   184   138   137    2
   185   137   141   am
   186   150   149    1
   187   141   142    1
   188   149   143   am
   189   143   142    1
   190   143   144    2
   191   142   145    1
   192   147   146   ar
   193   145   146    1
   194   146   148   ar
