@<TRIPOS>MOLECULE
tmp/5i2fB00.pdb
 162 159 0 0 0
SMALL
GASTEIGER

@<TRIPOS>ATOM
      1  N        -32.8080   -1.5810  -33.5200 N.3     8  ILE8       -0.1231
      2  CA       -31.7640   -0.8790  -34.2560 C.3     8  ILE8        0.1692
      3  C        -30.3820   -1.3820  -33.8580 C.2     8  ILE8        0.2592
      4  O        -29.4700   -1.4150  -34.6900 O.2     8  ILE8       -0.2718
      5  CB       -31.8990    0.6500  -34.1200 C.3     8  ILE8        0.0266
      6  CG1      -31.9480    1.0630  -32.6460 C.3     8  ILE8        0.0019
      7  CG2      -33.1130    1.1470  -34.9090 C.3     8  ILE8        0.0020
      8  CD1      -32.0910    2.5380  -32.4340 C.3     8  ILE8        0.0001
      9  N        -30.2040   -1.8090  -32.6040 N.am    9  PHE9       -0.1976
     10  CA       -28.9010   -2.3110  -32.1780 C.3     9  PHE9        0.1639
     11  C        -28.5970   -3.6670  -32.8040 C.2     9  PHE9        0.2290
     12  O        -27.4530   -3.9350  -33.1910 O.2     9  PHE9       -0.2864
     13  CB       -28.8150   -2.3510  -30.6500 C.3     9  PHE9        0.0560
     14  CG       -28.8650   -0.9910  -29.9990 C.ar    9  PHE9       -0.0200
     15  CD1      -28.7350    0.1730  -30.7500 C.ar    9  PHE9       -0.0042
     16  CD2      -29.0240   -0.8780  -28.6250 C.ar    9  PHE9       -0.0042
     17  CE1      -28.7820    1.4200  -30.1410 C.ar    9  PHE9       -0.0003
     18  CE2      -29.0720    0.3690  -28.0150 C.ar    9  PHE9       -0.0003
     19  CZ       -28.9490    1.5110  -28.7700 C.ar    9  PHE9       -0.0000
     20  N        -27.5110   -2.8620  -36.2760 N.3    12  ILE12      -0.1245
     21  CA       -26.1410   -2.3560  -36.2820 C.3    12  ILE12       0.1561
     22  C        -25.1430   -3.5010  -36.1680 C.2    12  ILE12       0.2260
     23  O        -24.1250   -3.5300  -36.8760 O.2    12  ILE12      -0.2867
     24  CB       -25.9670   -1.3070  -35.1700 C.3    12  ILE12       0.0252
     25  CG1      -26.6850   -0.0180  -35.5710 C.3    12  ILE12       0.0019
     26  CG2      -24.4920   -1.0670  -34.8690 C.3    12  ILE12       0.0019
     27  CD1      -26.6920    1.0410  -34.4960 C.3    12  ILE12       0.0001
     28  N        -27.5910   -1.3710  -40.7330 N.3    17  ILE17      -0.1231
     29  CA       -27.6750    0.0850  -40.7240 C.3    17  ILE17       0.1678
     30  C        -26.3370    0.6230  -40.2260 C.2    17  ILE17       0.2434
     31  O        -25.6620   -0.0360  -39.4240 O.2    17  ILE17      -0.2733
     32  CB       -28.8760    0.5990  -39.9150 C.3    17  ILE17       0.0265
     33  CG1      -28.6950    0.2900  -38.4440 C.3    17  ILE17       0.0019
     34  CG2      -30.1880    0.0020  -40.4210 C.3    17  ILE17       0.0020
     35  CD1      -29.8590    0.7390  -37.6150 C.3    17  ILE17       0.0001
     36  N        -25.9070    1.7900  -40.6920 N.am   18  PRO18      -0.2718
     37  CA       -24.5420    2.2330  -40.4050 C.3    18  PRO18       0.1535
     38  C        -24.3780    2.7040  -38.9720 C.2    18  PRO18       0.2598
     39  O        -25.3220    3.1500  -38.3140 O.2    18  PRO18      -0.2715
     40  CB       -24.3340    3.3900  -41.3870 C.3    18  PRO18       0.0310
     41  CG       -25.7130    3.9110  -41.6430 C.3    18  PRO18       0.0237
     42  CD       -26.6090    2.7060  -41.6090 C.3    18  PRO18       0.0939
     43  N        -23.1450    2.5900  -38.4950 N.am   19  ALA19      -0.1978
     44  CA       -22.7710    3.0840  -37.1830 C.3    19  ALA19       0.1597
     45  C        -21.2970    3.4370  -37.2260 C.2    19  ALA19       0.2287
     46  O        -20.5490    2.9590  -38.0820 O.2    19  ALA19      -0.2864
     47  CB       -23.0620    2.0460  -36.0950 C.3    19  ALA19       0.0319
     48  N        -19.9310    1.6430  -30.2090 N.3    31  PHE31      -0.1227
     49  CA       -20.1520    2.5820  -31.3010 C.3    31  PHE31       0.1736
     50  C        -20.6860    3.8800  -30.7180 C.2    31  PHE31       0.2595
     51  O        -21.2620    3.9030  -29.6290 O.2    31  PHE31      -0.2718
     52  CB       -21.1170    2.0170  -32.3590 C.3    31  PHE31       0.0547
     53  CG       -22.4530    1.6320  -31.8130 C.ar   31  PHE31      -0.0202
     54  CD1      -23.5350    2.4880  -31.8920 C.ar   31  PHE31      -0.0042
     55  CD2      -22.6220    0.3980  -31.2010 C.ar   31  PHE31      -0.0042
     56  CE1      -24.7710    2.1090  -31.3730 C.ar   31  PHE31      -0.0003
     57  CE2      -23.8440    0.0210  -30.6830 C.ar   31  PHE31      -0.0003
     58  CZ       -24.9140    0.8680  -30.7680 C.ar   31  PHE31      -0.0000
     59  N        -20.5310    4.9620  -31.4740 N.am   32  HIS32      -0.1961
     60  CA       -20.8880    6.2860  -30.9780 C.3    32  HIS32       0.1787
     61  C        -22.3950    6.5000  -30.9910 C.2    32  HIS32       0.2620
     62  O        -23.0880    6.0720  -31.9170 O.2    32  HIS32      -0.2715
     63  CB       -20.1840    7.3560  -31.8070 C.3    32  HIS32       0.0785
     64  CG       -18.7090    7.3850  -31.5880 C.ar   32  HIS32       0.0821
     65  ND1      -18.1280    8.0440  -30.5250 N.ar   32  HIS32      -0.2267
     66  CD2      -17.6960    6.8030  -32.2700 C.ar   32  HIS32       0.1154
     67  CE1      -16.8180    7.8840  -30.5770 C.ar   32  HIS32       0.1986
     68  NE2      -16.5300    7.1360  -31.6260 N.ar   32  HIS32      -0.2212
     69  N        -22.9030    7.1750  -29.9610 N.am   33  ASP33      -0.1957
     70  CA       -24.3250    7.4860  -29.8730 C.3    33  ASP33       0.1840
     71  C        -24.6890    8.5870  -30.8710 C.2    33  ASP33       0.2622
     72  O        -23.9740    9.5800  -31.0110 O.2    33  ASP33      -0.2715
     73  CB       -24.6400    7.9570  -28.4500 C.3    33  ASP33       0.1450
     74  CG       -26.1090    7.8830  -28.1090 C.2    33  ASP33       0.3671
     75  OD1      -26.9100    8.6430  -28.6910 O.co2  33  ASP33      -0.2456
     76  OD2      -26.4640    7.0900  -27.2110 O.co2  33  ASP33      -0.2456
     77  N        -25.8330    8.4210  -31.5420 N.am   34  ILE34      -0.1963
     78  CA       -26.2670    9.3950  -32.5420 C.3    34  ILE34       0.1727
     79  C        -26.8010   10.6800  -31.9160 C.2    34  ILE34       0.2616
     80  O        -26.8970   11.7120  -32.5990 O.2    34  ILE34      -0.2715
     81  CB       -27.3040    8.7450  -33.4820 C.3    34  ILE34       0.0290
     82  CG1      -27.4560    9.5350  -34.7830 C.3    34  ILE34       0.0022
     83  CG2      -28.6430    8.5920  -32.7760 C.3    34  ILE34       0.0023
     84  CD1      -28.3480    8.8460  -35.7950 C.3    34  ILE34       0.0001
     85  N        -27.1690   10.6400  -30.6360 N.am   35  SER35      -0.1950
     86  CA       -27.6670   11.8040  -29.9050 C.3    35  SER35       0.1924
     87  C        -26.7860   12.0130  -28.6780 C.2    35  SER35       0.2314
     88  O        -27.2320   11.8240  -27.5370 O.2    35  SER35      -0.2863
     89  CB       -29.1300   11.6190  -29.5110 C.3    35  SER35       0.2116
     90  OG       -29.9470   11.4890  -30.6630 O.3    35  SER35      -0.2180
     91  N        -19.6760   10.2510  -26.2820 N.3    41  HIS41      -0.1241
     92  CA       -20.7950    9.4680  -25.7670 C.3    41  HIS41       0.1621
     93  C        -20.9310    8.2650  -26.6820 C.2    41  HIS41       0.2264
     94  O        -21.3090    8.4100  -27.8540 O.2    41  HIS41      -0.2867
     95  CB       -22.0680   10.3120  -25.7500 C.3    41  HIS41       0.0745
     96  CG       -23.2800    9.6010  -25.2270 C.ar   41  HIS41       0.0817
     97  ND1      -24.4930   10.2370  -25.0760 N.ar   41  HIS41      -0.2268
     98  CD2      -23.4740    8.3190  -24.8240 C.ar   41  HIS41       0.1154
     99  CE1      -25.3820    9.3780  -24.6110 C.ar   41  HIS41       0.1986
    100  NE2      -24.7880    8.2090  -24.4410 N.ar   41  HIS41      -0.2212
    101  N        -21.8100    3.7540  -26.8740 N.3    43  LEU43      -0.1245
    102  CA       -22.5740    2.6380  -26.3400 C.3    43  LEU43       0.1561
    103  C        -21.7790    1.3590  -26.5210 C.2    43  LEU43       0.2260
    104  O        -21.0920    1.1940  -27.5330 O.2    43  LEU43      -0.2867
    105  CB       -23.8670    2.4860  -27.1360 C.3    43  LEU43       0.0270
    106  CG       -24.7660    3.7170  -27.1320 C.3    43  LEU43       0.0019
    107  CD1      -25.7900    3.6760  -28.2560 C.3    43  LEU43       0.0001
    108  CD2      -25.4640    3.8460  -25.7940 C.3    43  LEU43       0.0001
    109  N        -29.6620    1.9190  -18.4160 N.3    89  ASN89      -0.1240
    110  CA       -31.0490    2.2850  -18.1690 C.3    89  ASN89       0.1653
    111  C        -31.9480    1.0610  -18.2460 C.2    89  ASN89       0.2266
    112  O        -31.8210    0.2400  -19.1620 O.2    89  ASN89      -0.2867
    113  CB       -31.5150    3.3030  -19.2070 C.3    89  ASN89       0.1155
    114  CG       -30.7820    4.6260  -19.0900 C.2    89  ASN89       0.2627
    115  OD1      -30.3130    4.9860  -18.0150 O.2    89  ASN89      -0.2716
    116  ND2      -30.6940    5.3590  -20.1870 N.am   89  ASN89      -0.0877
    117  N        -35.6210    5.3760  -18.3550 N.3    95  GLY95      -0.1210
    118  CA       -35.5080    6.0460  -19.6290 C.3    95  GLY95       0.1956
    119  C        -35.0110    5.1750  -20.7570 C.2    95  GLY95       0.2612
    120  O        -34.5000    5.6950  -21.7490 O.2    95  GLY95      -0.2717
    121  N        -35.1400    3.8550  -20.6390 N.am   96  GLN96      -0.1965
    122  CA       -34.6630    2.9570  -21.6850 C.3    96  GLN96       0.1733
    123  C        -35.4900    3.1370  -22.9590 C.2    96  GLN96       0.2617
    124  O        -36.7200    3.0300  -22.9300 O.2    96  GLN96      -0.2715
    125  CB       -34.7420    1.5160  -21.1920 C.3    96  GLN96       0.0408
    126  CG       -34.1810    0.5310  -22.1910 C.3    96  GLN96       0.0908
    127  CD       -34.0620   -0.8760  -21.6570 C.2    96  GLN96       0.2608
    128  OE1      -34.5140   -1.1940  -20.5580 O.2    96  GLN96      -0.2717
    129  NE2      -33.4640   -1.7420  -22.4620 N.am   96  GLN96      -0.0878
    130  N        -34.8300    3.4220  -24.0810 N.am   97  SER97      -0.1936
    131  CA       -35.5620    3.6330  -25.3240 C.3    97  SER97       0.2055
    132  C        -35.3870    2.5230  -26.3480 C.2    97  SER97       0.2642
    133  O        -36.1510    2.4770  -27.3190 O.2    97  SER97      -0.2714
    134  CB       -35.1810    4.9670  -25.9820 C.3    97  SER97       0.2130
    135  OG       -33.8100    4.9840  -26.3180 O.3    97  SER97      -0.2179
    136  N        -34.3880    1.6660  -26.1820 N.am   98  VAL98      -0.1977
    137  CA       -34.1500    0.5280  -27.0630 C.3    98  VAL98       0.1596
    138  C        -34.0170   -0.7010  -26.1800 C.2    98  VAL98       0.2287
    139  O        -33.1970   -0.7200  -25.2510 O.2    98  VAL98      -0.2864
    140  CB       -32.8740    0.7060  -27.9080 C.3    98  VAL98       0.0276
    141  CG1      -32.6650   -0.5110  -28.8080 C.3    98  VAL98       0.0022
    142  CG2      -32.9390    1.9820  -28.7420 C.3    98  VAL98       0.0022
    143  N        -27.6430   -2.1320  -23.2860 N.3   102  HIS102     -0.1241
    144  CA       -26.5800   -1.2440  -23.7330 C.3   102  HIS102      0.1621
    145  C        -25.9970   -0.4860  -22.5490 C.2   102  HIS102      0.2264
    146  O        -26.7220   -0.0660  -21.6400 O.2   102  HIS102     -0.2867
    147  CB       -27.0350   -0.2820  -24.8450 C.3   102  HIS102      0.0745
    148  CG       -28.2820    0.4860  -24.5340 C.ar  102  HIS102      0.0817
    149  ND1      -29.5340   -0.0920  -24.5290 N.ar  102  HIS102     -0.2268
    150  CD2      -28.4730    1.8010  -24.2700 C.ar  102  HIS102      0.1154
    151  CE1      -30.4400    0.8300  -24.2500 C.ar  102  HIS102      0.1986
    152  NE2      -29.8210    1.9840  -24.0770 N.ar  102  HIS102     -0.2212
    153  N        -24.0630    2.9230  -21.7140 N.3   104  HIS104     -0.1241
    154  CA       -23.6190    4.2430  -22.1530 C.3   104  HIS104      0.1621
    155  C        -22.2940    4.5570  -21.4830 C.2   104  HIS104      0.2264
    156  O        -22.1020    4.2590  -20.3030 O.2   104  HIS104     -0.2867
    157  CB       -24.5870    5.3240  -21.6750 C.3   104  HIS104      0.0745
    158  CG       -25.9620    5.2530  -22.2540 C.ar  104  HIS104      0.0817
    159  ND1      -26.3570    6.0260  -23.3260 N.ar  104  HIS104     -0.2268
    160  CD2      -27.0570    4.5620  -21.8620 C.ar  104  HIS104      0.1154
    161  CE1      -27.6290    5.7820  -23.5880 C.ar  104  HIS104      0.1986
    162  NE2      -28.0770    4.8990  -22.7140 N.ar  104  HIS104     -0.2212
@<TRIPOS>BOND
     1    41    42    1
     2    41    40    1
     3    42    36    1
     4    40    37    1
     5    28    29    1
     6    29    30    1
     7    29    32    1
     8    36    37    1
     9    36    30   am
    10    34    32    1
    11    37    38    1
    12    30    31    2
    13    32    33    1
    14    38    43   am
    15    38    39    2
    16    43    44    1
    17    33    35    1
    18    46    45    2
    19    45    44    1
    20    44    47    1
    21    23    22    2
    22    21    20    1
    23    21    22    1
    24    21    24    1
    25    84    82    1
    26    25    24    1
    27    25    27    1
    28    24    26    1
    29     7     5    1
    30    82    81    1
    31     4     3    2
    32     2     5    1
    33     2     3    1
    34     2     1    1
    35     5     6    1
    36     3     9   am
    37    81    83    1
    38    81    78    1
    39    12    11    2
    40    11    10    1
    41     6     8    1
    42     9    10    1
    43    80    79    2
    44    78    79    1
    45    78    77    1
    46    52    53    1
    47    52    49    1
    48    66    68   ar
    49    66    64   ar
    50    10    13    1
    51    62    61    2
    52    79    85   am
    53    54    53   ar
    54    54    56   ar
    55    53    55   ar
    56    63    64    1
    57    63    60    1
    58    68    67   ar
    59    64    65   ar
    60    77    71   am
    61    59    60    1
    62    59    50   am
    63    56    58   ar
    64    49    50    1
    65    49    48    1
    66    55    57   ar
    67    72    71    2
    68    61    60    1
    69    61    69   am
    70    71    70    1
    71    58    57   ar
    72    15    17   ar
    73    15    14   ar
    74    50    51    2
    75    90    89    1
    76    13    14    1
    77    85    86    1
    78    67    65   ar
    79    17    19   ar
    80    14    16   ar
    81    69    70    1
    82    86    89    1
    83    86    87    1
    84    70    73    1
    85   141   140    1
    86    19    18   ar
    87   142   140    1
    88    75    74   ar
    89    87    88    2
    90    16    18   ar
    91    73    74    1
    92   107   106    1
    93    74    76   ar
    94   140   137    1
    95    94    93    2
    96   104   103    2
    97   133   132    2
    98   105   106    1
    99   105   102    1
   100   106   108    1
   101   137   136    1
   102   137   138    1
   103   101   102    1
   104    93    92    1
   105   103   102    1
   106   132   136   am
   107   132   131    1
   108   135   134    1
   109    91    92    1
   110   138   139    2
   111   134   131    1
   112    92    95    1
   113    95    96    1
   114   131   130    1
   115    96    97   ar
   116    96    98   ar
   117    97    99   ar
   118   147   148    1
   119   147   144    1
   120    98   100   ar
   121    99   100   ar
   122   148   149   ar
   123   148   150   ar
   124   149   151   ar
   125   150   152   ar
   126   151   152   ar
   127   130   123   am
   128   144   143    1
   129   144   145    1
   130   161   159   ar
   131   161   162   ar
   132   159   158   ar
   133   123   124    2
   134   123   122    1
   135   162   160   ar
   136   145   146    2
   137   129   127   am
   138   158   160   ar
   139   158   157    1
   140   126   127    1
   141   126   125    1
   142   154   153    1
   143   154   157    1
   144   154   155    1
   145   120   119    2
   146   122   125    1
   147   122   121    1
   148   127   128    2
   149   155   156    2
   150   119   121   am
   151   119   118    1
   152   116   114   am
   153   118   117    1
   154   113   114    1
   155   113   110    1
   156   112   111    2
   157   114   115    2
   158   109   110    1
   159   111   110    1
