@<TRIPOS>MOLECULE
tmp/5i2hA00.pdb
 99 92 0 0 0
SMALL
GASTEIGER

@<TRIPOS>ATOM
      1  N         31.7840   35.9550   22.2900 N.3    21  ARG21      -0.1245
      2  CA        30.6160   36.4530   23.0290 C.3    21  ARG21       0.1563
      3  C         30.8400   36.5510   24.5270 C.2    21  ARG21       0.2260
      4  O         29.8710   36.8230   25.2520 O.2    21  ARG21      -0.2867
      5  CB        29.3970   35.5610   22.8680 C.3    21  ARG21       0.0307
      6  CG        29.2430   34.9430   21.5730 C.3    21  ARG21       0.0489
      7  CD        28.6650   35.8780   20.6230 C.3    21  ARG21       0.2205
      8  NE        28.4110   35.2070   19.3540 N.pl3  21  ARG21      -0.0865
      9  CZ        28.3460   35.8790   18.2210 C.cat  21  ARG21       0.5346
     10  NH1       28.1100   35.2550   17.0850 N.pl3  21  ARG21       0.1354
     11  NH2       28.5470   37.2080   18.2480 N.pl3  21  ARG21       0.1354
     12  N         30.0600   47.2430    7.8860 N.3   133  LEU133     -0.1245
     13  CA        29.2520   46.2340    8.5470 C.3   133  LEU133      0.1561
     14  C         28.9850   45.0530    7.6210 C.2   133  LEU133      0.2260
     15  O         29.0840   43.8970    8.0450 O.2   133  LEU133     -0.2867
     16  CB        27.9420   46.8420    9.0440 C.3   133  LEU133      0.0270
     17  CG        26.9960   45.8110    9.6660 C.3   133  LEU133      0.0019
     18  CD1       27.7220   44.9910   10.7620 C.3   133  LEU133      0.0001
     19  CD2       25.7320   46.4930   10.2320 C.3   133  LEU133      0.0001
     20  N         30.0750   41.0590    8.4740 N.3   137  LEU137     -0.1245
     21  CA        29.2220   39.8720    8.4770 C.3   137  LEU137      0.1561
     22  C         29.5540   38.9120    7.3340 C.2   137  LEU137      0.2260
     23  O         29.2330   37.7200    7.4270 O.2   137  LEU137     -0.2867
     24  CB        27.7470   40.2720    8.4130 C.3   137  LEU137      0.0270
     25  CG        27.3080   41.2320    9.5410 C.3   137  LEU137      0.0019
     26  CD1       25.8020   41.4040    9.6050 C.3   137  LEU137      0.0001
     27  CD2       27.8370   40.8470   10.9070 C.3   137  LEU137      0.0001
     28  N         31.4700   35.6180    8.2010 N.3   140  ARG140     -0.1245
     29  CA        30.6650   34.4880    8.6560 C.3   140  ARG140      0.1563
     30  C         29.9980   33.7870    7.4780 C.2   140  ARG140      0.2260
     31  O         30.0050   32.5570    7.3960 O.2   140  ARG140     -0.2867
     32  CB        29.6110   34.9170    9.6890 C.3   140  ARG140      0.0307
     33  CG        28.7510   33.7030   10.1480 C.3   140  ARG140      0.0489
     34  CD        27.7760   34.0510   11.2720 C.3   140  ARG140      0.2205
     35  NE        26.8400   35.1010   10.8270 N.pl3 140  ARG140     -0.0865
     36  CZ        26.2350   35.9660   11.6330 C.cat 140  ARG140      0.5346
     37  NH1       26.4530   35.9060   12.9490 N.pl3 140  ARG140      0.1354
     38  NH2       25.4160   36.8880   11.1210 N.pl3 140  ARG140      0.1354
     39  N         19.6050   35.1810    8.9500 N.3   236  ASN236     -0.1240
     40  CA        20.0320   36.1200    9.9950 C.3   236  ASN236      0.1653
     41  C         19.2860   37.4370    9.8910 C.2   236  ASN236      0.2266
     42  O         19.8470   38.5010   10.1760 O.2   236  ASN236     -0.2867
     43  CB        21.5490   36.3630    9.9400 C.3   236  ASN236      0.1155
     44  CG        22.3140   35.1020   10.1980 C.2   236  ASN236      0.2627
     45  OD1       22.0760   34.4390   11.2080 O.2   236  ASN236     -0.2716
     46  ND2       23.1890   34.7110    9.2530 N.am  236  ASN236     -0.0877
     47  N         15.9760   37.3120   13.4590 N.3   239  HIS239     -0.1226
     48  CA        16.4220   37.5710   14.8280 C.3   239  HIS239      0.1752
     49  C         16.7320   39.0480   15.0760 C.2   239  HIS239      0.2596
     50  O         16.9480   39.4290   16.2320 O.2   239  HIS239     -0.2718
     51  CB        17.6230   36.6700   15.2060 C.3   239  HIS239      0.0759
     52  CG        18.8840   36.9240   14.4280 C.ar  239  HIS239      0.0818
     53  ND1       19.7340   35.8960   14.0550 N.ar  239  HIS239     -0.2268
     54  CD2       19.4970   38.0710   14.0370 C.ar  239  HIS239      0.1154
     55  CE1       20.7980   36.3930   13.4420 C.ar  239  HIS239      0.1986
     56  NE2       20.6750   37.7110   13.4090 N.ar  239  HIS239     -0.2212
     57  N         16.6800   39.9020   14.0410 N.am  240  ASP240     -0.1974
     58  CA        16.8070   41.3490   14.2260 C.3   240  ASP240      0.1709
     59  C         15.5140   42.0210   14.6720 C.2   240  ASP240      0.2293
     60  O         15.5380   43.2390   14.9560 O.2   240  ASP240     -0.2864
     61  CB        17.2420   42.0390   12.9190 C.3   240  ASP240      0.1436
     62  CG        18.6780   41.7720   12.5410 C.2   240  ASP240      0.3671
     63  OD1       19.4870   41.2100   13.3150 O.co2 240  ASP240     -0.2456
     64  OD2       18.9840   42.1360   11.3930 O.co2 240  ASP240     -0.2456
     65  N         24.8860   35.0610   22.3960 N.3   283  TYR283     -0.1241
     66  CA        24.6800   35.7260   21.1130 C.3   283  TYR283      0.1605
     67  C         23.3480   36.4710   21.1020 C.2   283  TYR283      0.2264
     68  O         23.2500   37.5840   20.5600 O.2   283  TYR283     -0.2867
     69  CB        24.7680   34.6790   20.0020 C.3   283  TYR283      0.0534
     70  CG        24.5760   35.2110   18.6160 C.ar  283  TYR283     -0.0201
     71  CD1       25.0840   36.4450   18.2410 C.ar  283  TYR283     -0.0009
     72  CD2       23.9230   34.4520   17.6700 C.ar  283  TYR283     -0.0009
     73  CE1       24.9220   36.9160   16.9490 C.ar  283  TYR283      0.0417
     74  CE2       23.7520   34.9150   16.3760 C.ar  283  TYR283      0.0417
     75  CZ        24.2390   36.1510   16.0340 C.ar  283  TYR283      0.1957
     76  OH        24.0850   36.5970   14.7440 O.3   283  TYR283     -0.2866
     77  N         22.3900   40.3170   20.0850 N.3   287  LEU287     -0.1245
     78  CA        21.3170   40.7390   19.1770 C.3   287  LEU287      0.1561
     79  C         20.3400   41.6810   19.8780 C.2   287  LEU287      0.2260
     80  O         19.8590   42.6680   19.2840 O.2   287  LEU287     -0.2867
     81  CB        20.5850   39.5090   18.6370 C.3   287  LEU287      0.0270
     82  CG        21.4250   38.5910   17.7410 C.3   287  LEU287      0.0019
     83  CD1       20.6490   37.3180   17.4720 C.3   287  LEU287      0.0001
     84  CD2       21.8240   39.3090   16.4240 C.3   287  LEU287      0.0001
     85  N         21.8010   45.1620   19.9410 N.3   290  LEU290     -0.1231
     86  CA        22.0340   45.8290   18.6700 C.3   290  LEU290      0.1693
     87  C         20.7960   45.9760   17.7990 C.2   290  LEU290      0.2592
     88  O         20.8430   46.7390   16.8200 O.2   290  LEU290     -0.2718
     89  CB        23.0930   45.0640   17.8710 C.3   290  LEU290      0.0284
     90  CG        24.5050   45.0390   18.4680 C.3   290  LEU290      0.0019
     91  CD1       25.3510   43.9850   17.7920 C.3   290  LEU290      0.0001
     92  CD2       25.1440   46.4020   18.3030 C.3   290  LEU290      0.0001
     93  N         19.7160   45.2530   18.0970 N.am  291  THR291     -0.1953
     94  CA        18.5700   45.1510   17.2060 C.3   291  THR291      0.1897
     95  C         17.2950   45.1850   18.0380 C.2   291  THR291      0.2313
     96  O         17.3400   45.3430   19.2690 O.2   291  THR291     -0.2863
     97  CB        18.5870   43.8710   16.3720 C.3   291  THR291      0.1794
     98  OG1       18.1650   42.7730   17.1800 O.3   291  THR291     -0.2208
     99  CG2       19.9610   43.5640   15.8100 C.3   291  THR291      0.0378
@<TRIPOS>BOND
     1    22    23    2
     2    22    21    1
     3    31    30    2
     4    30    29    1
     5    14    15    2
     6    14    13    1
     7    12    13    1
     8    28    29    1
     9    24    21    1
    10    24    25    1
    11    20    21    1
    12    13    16    1
    13    29    32    1
    14    39    40    1
    15    16    17    1
    16    46    44   am
    17    25    26    1
    18    25    27    1
    19    17    19    1
    20    17    18    1
    21    32    33    1
    22    41    40    1
    23    41    42    2
    24    43    40    1
    25    43    44    1
    26    33    34    1
    27    44    45    2
    28    35    34    1
    29    35    36    2
    30    38    36    1
    31    64    62   ar
    32    36    37    1
    33    62    61    1
    34    62    63   ar
    35    61    58    1
    36    56    55   ar
    37    56    54   ar
    38    55    53   ar
    39    47    48    1
    40    54    52   ar
    41    57    58    1
    42    57    49   am
    43    53    52   ar
    44    58    59    1
    45    52    51    1
    46    59    60    2
    47    76    75    1
    48    48    49    1
    49    48    51    1
    50    49    50    2
    51    99    97    1
    52    75    74   ar
    53    75    73   ar
    54    97    98    1
    55    97    94    1
    56    74    72   ar
    57    84    82    1
    58    88    87    2
    59    73    71   ar
    60    10     9    1
    61    94    95    1
    62    94    93    1
    63    83    82    1
    64    72    70   ar
    65    82    81    1
    66    91    90    1
    67    87    93   am
    68    87    86    1
    69    89    90    1
    70    89    86    1
    71    95    96    2
    72     9    11    1
    73     9     8    2
    74    71    70   ar
    75    92    90    1
    76    70    69    1
    77    81    78    1
    78    86    85    1
    79    78    79    1
    80    78    77    1
    81    80    79    2
    82     8     7    1
    83    69    66    1
    84    68    67    2
    85     7     6    1
    86    67    66    1
    87    66    65    1
    88     6     5    1
    89     1     2    1
    90     5     2    1
    91     2     3    1
    92     3     4    2
