@<TRIPOS>MOLECULE
tmp/5i2iC00.pdb
 52 49 0 0 0
SMALL
GASTEIGER

@<TRIPOS>ATOM
      1  N         16.3000   14.3730  -22.3950 N.3     9  VAL9       -0.1245
      2  CA        16.9070   13.2080  -23.0320 C.3     9  VAL9        0.1561
      3  C         17.9570   13.6400  -24.0500 C.2     9  VAL9        0.2260
      4  O         19.0390   13.0530  -24.1420 O.2     9  VAL9       -0.2867
      5  CB        15.8160   12.3310  -23.6660 C.3     9  VAL9        0.0252
      6  CG1       16.4440   11.1590  -24.3860 C.3     9  VAL9        0.0019
      7  CG2       14.8620   11.8510  -22.5830 C.3     9  VAL9        0.0019
      8  N         27.6970   11.7480  -23.8380 N.3    85  ASP85      -0.1239
      9  CA        26.5480   11.4370  -23.0060 C.3    85  ASP85       0.1674
     10  C         26.9360   11.5630  -21.5380 C.2    85  ASP85       0.2266
     11  O         28.1000   11.3950  -21.1660 O.2    85  ASP85      -0.2867
     12  CB        26.0220   10.0370  -23.3100 C.3    85  ASP85       0.1410
     13  CG        25.6920    9.8550  -24.7750 C.2    85  ASP85       0.3668
     14  OD1       25.3610   10.8630  -25.4360 O.co2  85  ASP85      -0.2456
     15  OD2       25.7720    8.7080  -25.2660 O.co2  85  ASP85      -0.2456
     16  N         25.8420   10.8350  -17.4080 N.3    87  TYR87      -0.1241
     17  CA        25.0970    9.9520  -16.5260 C.3    87  TYR87       0.1605
     18  C         25.2840   10.3630  -15.0720 C.2    87  TYR87       0.2264
     19  O         26.3720   10.7960  -14.6730 O.2    87  TYR87      -0.2867
     20  CB        25.5440    8.4930  -16.7010 C.3    87  TYR87       0.0534
     21  CG        25.3140    7.9100  -18.0840 C.ar   87  TYR87      -0.0201
     22  CD1       26.3150    7.9440  -19.0460 C.ar   87  TYR87      -0.0009
     23  CD2       24.1000    7.3000  -18.4210 C.ar   87  TYR87      -0.0009
     24  CE1       26.1150    7.4010  -20.3050 C.ar   87  TYR87       0.0417
     25  CE2       23.8940    6.7560  -19.6820 C.ar   87  TYR87       0.0417
     26  CZ        24.9050    6.8130  -20.6180 C.ar   87  TYR87       0.1957
     27  OH        24.7100    6.2700  -21.8660 O.3    87  TYR87      -0.2866
     28  N         19.4500    7.0610  -17.0340 N.3   100  ALA100     -0.1231
     29  CA        19.4570    6.6720  -18.4460 C.3   100  ALA100      0.1694
     30  C         20.3360    7.5620  -19.3090 C.2   100  ALA100      0.2593
     31  O         20.6150    7.2020  -20.4560 O.2   100  ALA100     -0.2718
     32  CB        18.0430    6.6800  -19.0150 C.3   100  ALA100      0.0304
     33  N         20.7530    8.7110  -18.8100 N.am  101  GLY101     -0.1942
     34  CA        21.6990    9.5320  -19.5350 C.3   101  GLY101      0.2014
     35  C         21.0380   10.6620  -20.2980 C.2   101  GLY101      0.2640
     36  O         19.8570   10.6060  -20.6600 O.2   101  GLY101     -0.2714
     37  N         21.8210   11.7030  -20.5610 N.am  102  THR102     -0.1936
     38  CA        21.4060   12.8330  -21.3780 C.3   102  THR102      0.2028
     39  C         22.4670   13.0450  -22.4400 C.2   102  THR102      0.2642
     40  O         23.6550   13.1300  -22.1190 O.2   102  THR102     -0.2714
     41  CB        21.2230   14.1090  -20.5360 C.3   102  THR102      0.1808
     42  OG1       19.9800   14.0450  -19.8200 O.3   102  THR102     -0.2208
     43  CG2       21.2420   15.3600  -21.4150 C.3   102  THR102      0.0379
     44  N         22.0380   13.1100  -23.6980 N.am  103  LYS103     -0.1977
     45  CA        22.9400   13.3490  -24.8140 C.3   103  LYS103      0.1596
     46  C         23.1370   14.8460  -24.9990 C.2   103  LYS103      0.2287
     47  O         22.1790   15.6220  -24.9300 O.2   103  LYS103     -0.2864
     48  CB        22.3810   12.7280  -26.0950 C.3   103  LYS103      0.0298
     49  CG        23.2930   12.8560  -27.3080 C.3   103  LYS103      0.0038
     50  CD        22.7280   12.0770  -28.4650 C.3   103  LYS103      0.0206
     51  CE        23.6910   12.0520  -29.6250 C.3   103  LYS103      0.1093
     52  NZ        23.3040   11.0000  -30.5870 N.3   103  LYS103     -0.1314
@<TRIPOS>BOND
     1    52    51    1
     2    51    50    1
     3    50    49    1
     4    49    48    1
     5    48    45    1
     6    14    13   ar
     7    15    13   ar
     8    46    47    2
     9    46    45    1
    10    45    44    1
    11    13    12    1
    12     6     5    1
    13     4     3    2
    14     3     2    1
    15     8     9    1
    16    44    39   am
    17     5     2    1
    18     5     7    1
    19    12     9    1
    20     2     1    1
    21     9    10    1
    22    39    40    2
    23    39    38    1
    24    27    26    1
    25    10    11    2
    26    43    41    1
    27    38    37    1
    28    38    41    1
    29    36    35    2
    30    26    24   ar
    31    26    25   ar
    32    37    35   am
    33    41    42    1
    34    31    30    2
    35    24    22   ar
    36    35    34    1
    37    25    23   ar
    38    34    33    1
    39    30    33   am
    40    30    29    1
    41    22    21   ar
    42    32    29    1
    43    29    28    1
    44    23    21   ar
    45    21    20    1
    46    16    17    1
    47    20    17    1
    48    17    18    1
    49    18    19    2
