@<TRIPOS>MOLECULE
tmp/5i2kB00.pdb
 84 81 0 0 0
SMALL
GASTEIGER

@<TRIPOS>ATOM
      1  N        -11.2640   -8.9060   32.6190 N.3   123  ILE123     -0.1245
      2  CA       -11.5090   -7.7640   31.7180 C.3   123  ILE123      0.1561
      3  C        -12.7330   -6.9850   32.2670 C.2   123  ILE123      0.2260
      4  O        -13.7790   -7.5980   32.5510 O.2   123  ILE123     -0.2867
      5  CB       -11.7680   -8.2240   30.2420 C.3   123  ILE123      0.0252
      6  CG1      -10.6690   -9.1840   29.7300 C.3   123  ILE123      0.0019
      7  CG2      -11.9820   -7.0210   29.2910 C.3   123  ILE123      0.0019
      8  CD1      -11.1240  -10.2500   28.8680 C.3   123  ILE123      0.0001
      9  N         -8.1530  -10.7240   23.3910 N.3   135  LYS135     -0.1231
     10  CA        -9.4110  -11.4520   23.2990 C.3   135  LYS135      0.1678
     11  C         -9.3320  -12.4370   24.4870 C.2   135  LYS135      0.2434
     12  O         -8.2180  -12.7670   24.8860 O.2   135  LYS135     -0.2733
     13  CB        -9.5330  -12.2070   21.9690 C.3   135  LYS135      0.0284
     14  CG        -9.9980  -11.3460   20.8100 C.3   135  LYS135      0.0035
     15  CD       -11.4810  -10.9640   20.8770 C.3   135  LYS135      0.0206
     16  CE       -11.7710   -9.8360   19.9120 C.3   135  LYS135      0.1093
     17  NZ       -12.1180   -8.5740   20.6070 N.3   135  LYS135     -0.1314
     18  N        -10.4310  -12.8240   25.1570 N.am  136  PRO136     -0.2729
     19  CA       -10.2830  -13.6510   26.3590 C.3   136  PRO136      0.1401
     20  C         -9.6410  -15.0260   26.1400 C.2   136  PRO136      0.2269
     21  O         -9.8240  -15.6420   25.1010 O.2   136  PRO136     -0.2865
     22  CB       -11.7170  -13.7500   26.9160 C.3   136  PRO136      0.0296
     23  CG       -12.4730  -12.7180   26.2410 C.3   136  PRO136      0.0237
     24  CD       -11.8480  -12.5020   24.9070 C.3   136  PRO136      0.0939
     25  N        -10.0720  -17.1990   28.6450 N.3   138  LYS138     -0.1231
     26  CA       -10.8810  -17.9570   29.6000 C.3   138  LYS138      0.1693
     27  C        -12.1600  -17.1770   29.8930 C.2   138  LYS138      0.2592
     28  O        -12.0830  -15.9620   30.0450 O.2   138  LYS138     -0.2718
     29  CB       -10.0720  -18.1850   30.9210 C.3   138  LYS138      0.0285
     30  CG       -10.7210  -19.0870   31.9910 C.3   138  LYS138      0.0035
     31  CD       -10.4060  -20.5690   31.7800 C.3   138  LYS138      0.0206
     32  CE       -11.2180  -21.4720   32.6880 C.3   138  LYS138      0.1093
     33  NZ       -12.0340  -22.4540   31.9140 N.3   138  LYS138     -0.1314
     34  N        -13.3180  -17.8750   29.9840 N.am  139  TYR139     -0.1976
     35  CA       -14.6140  -17.3000   30.3790 C.3   139  TYR139      0.1639
     36  C        -15.1090  -18.0790   31.5840 C.2   139  TYR139      0.2290
     37  O        -15.2880  -19.2970   31.5240 O.2   139  TYR139     -0.2864
     38  CB       -15.6600  -17.3630   29.2580 C.3   139  TYR139      0.0560
     39  CG       -16.9060  -16.5210   29.4530 C.ar  139  TYR139     -0.0198
     40  CD1      -16.8150  -15.1820   29.8350 C.ar  139  TYR139     -0.0009
     41  CD2      -18.1610  -17.0040   29.0820 C.ar  139  TYR139     -0.0009
     42  CE1      -17.9490  -14.3740   29.9280 C.ar  139  TYR139      0.0417
     43  CE2      -19.3000  -16.1970   29.1490 C.ar  139  TYR139      0.0417
     44  CZ       -19.1880  -14.8810   29.5700 C.ar  139  TYR139      0.1957
     45  OH       -20.2990  -14.0790   29.6310 O.3   139  TYR139     -0.2866
     46  N        -20.7600  -13.2490   35.0100 N.3   243  ARG243     -0.1231
     47  CA       -19.8250  -14.0050   34.1910 C.3   243  ARG243      0.1694
     48  C        -18.7900  -13.0550   33.6360 C.2   243  ARG243      0.2593
     49  O        -19.1310  -12.0020   33.1000 O.2   243  ARG243     -0.2718
     50  CB       -20.5420  -14.7200   33.0480 C.3   243  ARG243      0.0321
     51  CG       -21.0330  -16.1240   33.4050 C.3   243  ARG243      0.0489
     52  CD       -21.6600  -16.8290   32.2030 C.3   243  ARG243      0.2205
     53  NE       -22.7040  -15.9990   31.5950 N.pl3 243  ARG243     -0.0865
     54  CZ       -23.3680  -16.2980   30.4850 C.cat 243  ARG243      0.5346
     55  NH1      -23.1180  -17.4310   29.8370 N.pl3 243  ARG243      0.1354
     56  NH2      -24.2920  -15.4690   30.0160 N.pl3 243  ARG243      0.1354
     57  N        -17.5250  -13.4180   33.7720 N.am  244  SER244     -0.1938
     58  CA       -16.4450  -12.6020   33.2490 C.3   244  SER244      0.2055
     59  C        -15.3110  -13.4520   32.6480 C.2   244  SER244      0.2643
     60  O        -15.1370  -14.6120   33.0220 O.2   244  SER244     -0.2714
     61  CB       -15.9380  -11.6330   34.3190 C.3   244  SER244      0.2130
     62  OG       -15.3730  -12.3270   35.4180 O.3   244  SER244     -0.2179
     63  N        -14.5600  -12.8520   31.7280 N.am  245  GLY245     -0.1954
     64  CA       -13.4290  -13.4900   31.0680 C.3   245  GLY245      0.1869
     65  C        -12.0890  -12.8930   31.4350 C.2   245  GLY245      0.2309
     66  O        -12.0170  -11.7320   31.8490 O.2   245  GLY245     -0.2863
     67  N         -6.7460  -16.6830   19.7490 N.3   265  LEU265     -0.1245
     68  CA        -7.7360  -17.2670   18.8490 C.3   265  LEU265      0.1561
     69  C         -7.1360  -18.5500   18.2220 C.2   265  LEU265      0.2260
     70  O         -7.6900  -19.6310   18.4320 O.2   265  LEU265     -0.2867
     71  CB        -8.1960  -16.2570   17.7720 C.3   265  LEU265      0.0270
     72  CG        -8.9310  -14.9850   18.2640 C.3   265  LEU265      0.0019
     73  CD1       -9.2880  -14.0480   17.1000 C.3   265  LEU265      0.0001
     74  CD2      -10.1360  -15.3140   19.0310 C.3   265  LEU265      0.0001
     75  N         -7.4020  -21.2080   20.7670 N.3   268  HIS268     -0.1241
     76  CA        -8.7770  -21.6410   21.0740 C.3   268  HIS268      0.1621
     77  C         -9.2230  -22.6130   19.9750 C.2   268  HIS268      0.2264
     78  O         -9.6320  -23.7370   20.2630 O.2   268  HIS268     -0.2867
     79  CB        -9.7520  -20.4460   21.0990 C.3   268  HIS268      0.0745
     80  CG        -9.7410  -19.6580   22.3660 C.ar  268  HIS268      0.0817
     81  ND1      -10.1510  -20.2110   23.5630 N.ar  268  HIS268     -0.2268
     82  CD2       -9.4570  -18.3520   22.5660 C.ar  268  HIS268      0.1154
     83  CE1      -10.0470  -19.2430   24.4570 C.ar  268  HIS268      0.1986
     84  NE2       -9.6410  -18.1070   23.8980 N.ar  268  HIS268     -0.2212
@<TRIPOS>BOND
     1    73    72    1
     2    71    72    1
     3    71    68    1
     4    69    70    2
     5    69    68    1
     6    72    74    1
     7    68    67    1
     8    16    17    1
     9    16    15    1
    10    77    78    2
    11    77    76    1
    12    75    76    1
    13    14    15    1
    14    14    13    1
    15    76    79    1
    16    79    80    1
    17    13    10    1
    18    80    82   ar
    19    80    81   ar
    20    82    84   ar
    21    10     9    1
    22    10    11    1
    23    81    83   ar
    24    84    83   ar
    25    11    12    2
    26    11    18   am
    27    24    18    1
    28    24    23    1
    29    21    20    2
    30    18    19    1
    31    20    19    1
    32    23    22    1
    33    19    22    1
    34    25    26    1
    35     8     6    1
    36    41    43   ar
    37    41    39   ar
    38    43    44   ar
    39    38    39    1
    40    38    35    1
    41     7     5    1
    42    39    40   ar
    43    44    45    1
    44    44    42   ar
    45    26    27    1
    46    26    29    1
    47     6     5    1
    48    40    42   ar
    49    55    54    1
    50    27    34   am
    51    27    28    2
    52    34    35    1
    53    56    54    1
    54     5     2    1
    55    35    36    1
    56    54    53    2
    57    29    30    1
    58    64    65    1
    59    64    63    1
    60    65    66    2
    61    37    36    2
    62    53    52    1
    63     2     3    1
    64     2     1    1
    65    63    59   am
    66    31    30    1
    67    31    32    1
    68    33    32    1
    69    52    51    1
    70     3     4    2
    71    59    60    2
    72    59    58    1
    73    50    51    1
    74    50    47    1
    75    49    48    2
    76    58    57    1
    77    58    61    1
    78    48    57   am
    79    48    47    1
    80    47    46    1
    81    61    62    1
