@<TRIPOS>MOLECULE
tmp/5i2kA01.pdb
 99 94 0 0 0
SMALL
GASTEIGER

@<TRIPOS>ATOM
      1  N        -16.0850  -14.4450   15.8920 N.3   109  ILE109     -0.1245
      2  CA       -14.6990  -13.9910   15.9240 C.3   109  ILE109      0.1561
      3  C        -13.8210  -15.2320   15.6350 C.2   109  ILE109      0.2260
      4  O        -14.0480  -16.2940   16.2180 O.2   109  ILE109     -0.2867
      5  CB       -14.3250  -13.3360   17.3100 C.3   109  ILE109      0.0252
      6  CG1      -15.1550  -12.0400   17.5800 C.3   109  ILE109      0.0019
      7  CG2      -12.8100  -13.0560   17.4150 C.3   109  ILE109      0.0019
      8  CD1      -15.2180  -11.5290   19.0780 C.3   109  ILE109      0.0001
      9  N        -15.3310   -6.3860   21.6180 N.3   121  VAL121     -0.1231
     10  CA       -15.1610   -7.3930   22.6620 C.3   121  VAL121      0.1678
     11  C        -16.3440   -8.4470   22.5290 C.2   121  VAL121      0.2434
     12  O        -17.3680   -8.0490   21.9720 O.2   121  VAL121     -0.2733
     13  CB       -15.0660   -6.6290   24.0090 C.3   121  VAL121      0.0265
     14  CG1      -16.4230   -6.1150   24.4880 C.3   121  VAL121      0.0020
     15  CG2      -14.3200   -7.4250   25.0780 C.3   121  VAL121      0.0020
     16  N        -16.2400   -9.7740   22.8590 N.am  122  PRO122     -0.2718
     17  CA       -17.3960  -10.6690   22.6370 C.3   122  PRO122      0.1535
     18  C        -18.6660  -10.3190   23.4120 C.2   122  PRO122      0.2599
     19  O        -18.5860   -9.8820   24.5490 O.2   122  PRO122     -0.2715
     20  CB       -16.8720  -12.0450   23.0530 C.3   122  PRO122      0.0310
     21  CG       -15.7430  -11.7870   23.9170 C.3   122  PRO122      0.0237
     22  CD       -15.1120  -10.5170   23.4560 C.3   122  PRO122      0.0939
     23  N        -19.8350  -10.5160   22.8180 N.am  123  PHE123     -0.1960
     24  CA       -21.0760  -10.2670   23.5550 C.3   123  PHE123      0.1771
     25  C        -21.8670  -11.5690   23.7680 C.2   123  PHE123      0.2619
     26  O        -22.7270  -11.6270   24.6430 O.2   123  PHE123     -0.2715
     27  CB       -21.9350   -9.1320   22.9470 C.3   123  PHE123      0.0574
     28  CG       -22.0970   -9.1900   21.4520 C.ar  123  PHE123     -0.0200
     29  CD1      -23.0800   -9.9860   20.8740 C.ar  123  PHE123     -0.0042
     30  CD2      -21.2480   -8.4720   20.6180 C.ar  123  PHE123     -0.0042
     31  CE1      -23.2120  -10.0640   19.4840 C.ar  123  PHE123     -0.0003
     32  CE2      -21.3840   -8.5460   19.2320 C.ar  123  PHE123     -0.0003
     33  CZ       -22.3600   -9.3520   18.6720 C.ar  123  PHE123     -0.0000
     34  N        -21.5610  -12.6200   22.9980 N.am  124  VAL124     -0.1963
     35  CA       -22.2170  -13.9280   23.1550 C.3   124  VAL124      0.1727
     36  C        -21.1460  -15.0050   23.0570 C.2   124  VAL124      0.2616
     37  O        -20.3710  -14.9930   22.1120 O.2   124  VAL124     -0.2715
     38  CB       -23.3570  -14.2080   22.1190 C.3   124  VAL124      0.0290
     39  CG1      -23.9480  -15.5950   22.3000 C.3   124  VAL124      0.0023
     40  CG2      -24.4550  -13.1710   22.1700 C.3   124  VAL124      0.0023
     41  N        -21.1290  -15.9590   23.9980 N.am  125  GLU125     -0.1977
     42  CA       -20.2180  -17.0910   23.8920 C.3   125  GLU125      0.1602
     43  C        -20.7590  -18.0540   22.8290 C.2   125  GLU125      0.2287
     44  O        -21.9730  -18.3390   22.7530 O.2   125  GLU125     -0.2864
     45  CB       -20.0340  -17.8230   25.2230 C.3   125  GLU125      0.0415
     46  CG       -18.7760  -18.6870   25.2530 C.3   125  GLU125      0.1163
     47  CD       -18.6860  -19.7550   26.3280 C.2   125  GLU125      0.3649
     48  OE1      -19.6550  -19.9330   27.1050 O.co2 125  GLU125     -0.2457
     49  OE2      -17.6350  -20.4330   26.3760 O.co2 125  GLU125     -0.2457
     50  N        -13.9530  -22.6720   21.4670 N.3   234  THR234     -0.1203
     51  CA       -14.6970  -21.6050   22.1060 C.3   234  THR234      0.1994
     52  C        -14.2440  -20.2260   21.6530 C.2   234  THR234      0.2619
     53  O        -13.0520  -19.9520   21.5350 O.2   234  THR234     -0.2717
     54  CB       -14.7060  -21.8000   23.5980 C.3   234  THR234      0.1784
     55  OG1      -15.9250  -21.2760   24.0770 O.3   234  THR234     -0.2211
     56  CG2      -13.5220  -21.1720   24.2980 C.3   234  THR234      0.0376
     57  N        -15.2280  -19.4000   21.3030 N.am  235  THR235     -0.1938
     58  CA       -15.0560  -18.0570   20.7750 C.3   235  THR235      0.2028
     59  C        -16.3110  -17.2690   21.1700 C.2   235  THR235      0.2642
     60  O        -16.9510  -17.6130   22.1730 O.2   235  THR235     -0.2714
     61  CB       -14.7640  -18.1320   19.2600 C.3   235  THR235      0.1808
     62  OG1      -14.5820  -16.8290   18.7230 O.3   235  THR235     -0.2208
     63  CG2      -15.8410  -18.8990   18.4700 C.3   235  THR235      0.0379
     64  N        -16.6340  -16.2120   20.4290 N.am  236  GLY236     -0.1954
     65  CA       -17.7910  -15.3920   20.7090 C.3   236  GLY236      0.1869
     66  C        -18.2750  -14.6010   19.5230 C.2   236  GLY236      0.2309
     67  O        -17.6540  -14.6120   18.4550 O.2   236  GLY236     -0.2863
     68  N        -18.7480   -3.5310   27.4080 N.3   256  LEU256     -0.1245
     69  CA       -18.2820   -3.9000   28.7370 C.3   256  LEU256      0.1561
     70  C        -19.1880   -3.2870   29.8090 C.2   256  LEU256      0.2260
     71  O        -19.4510   -3.9530   30.8070 O.2   256  LEU256     -0.2867
     72  CB       -16.8050   -3.5370   28.9550 C.3   256  LEU256      0.0270
     73  CG       -15.7720   -4.3690   28.1780 C.3   256  LEU256      0.0019
     74  CD1      -14.4790   -3.5880   27.9620 C.3   256  LEU256      0.0001
     75  CD2      -15.5160   -5.6920   28.8450 C.3   256  LEU256      0.0001
     76  N        -22.4070   -5.4520   30.0080 N.3   259  VAL259     -0.1245
     77  CA       -22.1790   -6.7360   30.6680 C.3   259  VAL259      0.1561
     78  C        -22.2520   -6.5180   32.1790 C.2   259  VAL259      0.2260
     79  O        -22.9320   -7.2790   32.8730 O.2   259  VAL259     -0.2867
     80  CB       -20.8760   -7.4510   30.2330 C.3   259  VAL259      0.0252
     81  CG1      -20.8500   -8.8760   30.7600 C.3   259  VAL259      0.0019
     82  CG2      -20.7340   -7.4700   28.7180 C.3   259  VAL259      0.0019
     83  N        -26.9200   -6.7930   29.4900 N.3   264  MET264     -0.1245
     84  CA       -26.6730   -7.9620   28.6560 C.3   264  MET264      0.1570
     85  C        -27.4420   -9.1560   29.1740 C.2   264  MET264      0.2261
     86  O        -28.0960   -9.8140   28.3720 O.2   264  MET264     -0.2867
     87  CB       -25.1870   -8.2840   28.5570 C.3   264  MET264      0.0387
     88  CG       -24.4860   -7.5460   27.4300 C.3   264  MET264      0.0595
     89  SD       -24.8060   -8.1520   25.7590 S.3   264  MET264     -0.1393
     90  CE       -24.8180   -9.9250   26.0610 C.3   264  MET264      0.0692
     91  N        -30.3950  -11.4910   27.2000 N.3   268  GLU268     -0.1245
     92  CA       -30.3820  -12.9440   27.1820 C.3   268  GLU268      0.1567
     93  C        -31.7140  -13.5390   27.6990 C.2   268  GLU268      0.2260
     94  O        -32.1300  -14.6060   27.2480 O.2   268  GLU268     -0.2867
     95  CB       -29.2320  -13.4540   28.0420 C.3   268  GLU268      0.0388
     96  CG       -27.8550  -12.9440   27.6590 C.3   268  GLU268      0.1160
     97  CD       -26.7320  -13.7320   28.3080 C.2   268  GLU268      0.3649
     98  OE1      -26.0650  -13.1840   29.2180 O.co2 268  GLU268     -0.2457
     99  OE2      -26.5440  -14.9140   27.9320 O.co2 268  GLU268     -0.2457
@<TRIPOS>BOND
     1     3     2    1
     2     3     4    2
     3     1     2    1
     4     2     5    1
     5     5     7    1
     6     5     6    1
     7     6     8    1
     8    67    66    2
     9    63    61    1
    10    33    32   ar
    11    33    31   ar
    12    62    61    1
    13    32    30   ar
    14    61    58    1
    15    31    29   ar
    16    66    65    1
    17    64    65    1
    18    64    59   am
    19    30    28   ar
    20    58    59    1
    21    58    57    1
    22    29    28   ar
    23    59    60    2
    24    57    52   am
    25    28    27    1
    26    50    51    1
    27    53    52    2
    28     9    10    1
    29    52    51    1
    30    12    11    2
    31    51    54    1
    32    37    36    2
    33    38    40    1
    34    38    39    1
    35    38    35    1
    36    11    10    1
    37    11    16   am
    38    17    16    1
    39    17    20    1
    40    17    18    1
    41    10    13    1
    42    44    43    2
    43    23    18   am
    44    23    24    1
    45    43    42    1
    46    16    22    1
    47    27    24    1
    48    34    35    1
    49    34    25   am
    50    20    21    1
    51    36    35    1
    52    36    41   am
    53    18    19    2
    54    22    21    1
    55    24    25    1
    56    54    55    1
    57    54    56    1
    58    25    26    2
    59    42    41    1
    60    42    45    1
    61    13    14    1
    62    13    15    1
    63    45    46    1
    64    46    47    1
    65    89    90    1
    66    89    88    1
    67    47    49   ar
    68    47    48   ar
    69    92    91    1
    70    92    93    1
    71    92    95    1
    72    94    93    2
    73    68    69    1
    74    88    87    1
    75    96    95    1
    76    96    97    1
    77    99    97   ar
    78    74    73    1
    79    73    75    1
    80    73    72    1
    81    97    98   ar
    82    86    85    2
    83    87    84    1
    84    84    85    1
    85    84    83    1
    86    82    80    1
    87    69    72    1
    88    69    70    1
    89    70    71    2
    90    76    77    1
    91    80    77    1
    92    80    81    1
    93    77    78    1
    94    78    79    2
