@<TRIPOS>MOLECULE
tmp/5i2nB01.pdb
 91 89 0 0 0
SMALL
GASTEIGER

@<TRIPOS>ATOM
      1  N         19.7920   -4.7500   27.1820 N.3     2  SER2       -0.1202
      2  CA        18.5900   -5.5940   27.0970 C.3     2  SER2        0.2020
      3  C         17.3840   -4.9190   26.4580 C.2     2  SER2        0.2619
      4  O         16.9280   -3.8710   26.9200 O.2     2  SER2       -0.2717
      5  CB        18.2160   -6.1230   28.4800 C.3     2  SER2        0.2103
      6  OG        17.0160   -6.8780   28.4620 O.3     2  SER2       -0.2182
      7  N         16.8670   -5.5420   25.3980 N.am    3  THR3       -0.1938
      8  CA        15.6600   -5.1050   24.6990 C.3     3  THR3        0.2028
      9  C         14.5430   -6.1130   25.0040 C.2     3  THR3        0.2642
     10  O         13.5210   -6.1370   24.3250 O.2     3  THR3       -0.2714
     11  CB        15.9430   -4.8930   23.2080 C.3     3  THR3        0.1808
     12  OG1       16.0590   -6.1550   22.5530 O.3     3  THR3       -0.2208
     13  CG2       17.1720   -4.0360   22.9800 C.3     3  THR3        0.0379
     14  N         14.7690   -6.9570   26.0300 N.am    4  ARG4       -0.1963
     15  CA        13.8450   -7.9740   26.5190 C.3     4  ARG4        0.1729
     16  C         12.5680   -7.3370   27.0800 C.2     4  ARG4        0.2616
     17  O         12.6320   -6.3380   27.8010 O.2     4  ARG4       -0.2715
     18  CB        14.5260   -8.8020   27.6180 C.3     4  ARG4        0.0348
     19  CG        14.9420  -10.1690   27.1410 C.3     4  ARG4        0.0492
     20  CD        16.3020  -10.6160   27.5720 C.3     4  ARG4        0.2205
     21  NE        16.4350  -10.7980   29.0150 N.pl3   4  ARG4       -0.0865
     22  CZ        17.1630  -11.7560   29.5780 C.cat   4  ARG4        0.5346
     23  NH1       17.7890  -12.6550   28.8260 N.pl3   4  ARG4        0.1354
     24  NH2       17.2600  -11.8340   30.8970 N.pl3   4  ARG4        0.1354
     25  N         11.4120   -7.9260   26.7620 N.am    5  LEU5       -0.1963
     26  CA        10.1300   -7.4380   27.2690 C.3     5  LEU5        0.1728
     27  C         10.0510   -7.7600   28.7480 C.2     5  LEU5        0.2616
     28  O         10.3840   -8.8760   29.1330 O.2     5  LEU5       -0.2715
     29  CB         8.9660   -8.1250   26.5150 C.3     5  LEU5        0.0311
     30  CG         8.2390   -7.3120   25.4580 C.3     5  LEU5        0.0022
     31  CD1        9.1910   -6.7940   24.3770 C.3     5  LEU5        0.0001
     32  CD2        7.1090   -8.1450   24.8290 C.3     5  LEU5        0.0001
     33  N          9.6150   -6.7980   29.5740 N.am    6  LYS6       -0.1977
     34  CA         9.4680   -7.0450   31.0000 C.3     6  LYS6        0.1596
     35  C          8.0650   -7.5360   31.2440 C.2     6  LYS6        0.2287
     36  O          7.0900   -6.8200   30.9760 O.2     6  LYS6       -0.2864
     37  CB         9.7760   -5.8030   31.8420 C.3     6  LYS6        0.0298
     38  CG        11.2580   -5.4630   31.8940 C.3     6  LYS6        0.0038
     39  CD        11.5510   -4.1310   32.6070 C.3     6  LYS6        0.0206
     40  CE        11.0780   -2.8870   31.8660 C.3     6  LYS6        0.1093
     41  NZ        11.5690   -2.8210   30.4550 N.3     6  LYS6       -0.1314
     42  N          5.8480    1.7330   33.1810 N.3   112  GLY112     -0.1225
     43  CA         6.9370    1.2540   32.3500 C.3   112  GLY112      0.1811
     44  C          7.7970    0.2430   33.0670 C.2   112  GLY112      0.2280
     45  O          8.7430   -0.2590   32.4850 O.2   112  GLY112     -0.2866
     46  N          6.1920   -4.2980   30.5120 N.3   115  ASP115     -0.1239
     47  CA         5.8430   -4.1100   29.1030 C.3   115  ASP115      0.1674
     48  C          4.6350   -4.9480   28.7230 C.2   115  ASP115      0.2266
     49  O          4.0070   -4.7040   27.6880 O.2   115  ASP115     -0.2867
     50  CB         7.0240   -4.4500   28.1980 C.3   115  ASP115      0.1410
     51  CG         8.2250   -3.5920   28.5190 C.2   115  ASP115      0.3668
     52  OD1        8.0530   -2.3480   28.6450 O.co2 115  ASP115     -0.2456
     53  OD2        9.3360   -4.1540   28.6360 O.co2 115  ASP115     -0.2456
     54  N          0.3970   -1.6980   26.9610 N.3   251  ARG251     -0.1245
     55  CA         0.1730   -0.2440   26.8260 C.3   251  ARG251      0.1563
     56  C         -0.4530   -0.0320   25.4560 C.2   251  ARG251      0.2260
     57  O         -0.2520   -0.8450   24.5490 O.2   251  ARG251     -0.2867
     58  CB         1.4680    0.6080   26.9640 C.3   251  ARG251      0.0307
     59  CG         1.9020    0.9230   28.4140 C.3   251  ARG251      0.0489
     60  CD         3.2000    1.7770   28.4880 C.3   251  ARG251      0.2205
     61  NE         4.3190    1.1280   27.7910 N.pl3 251  ARG251     -0.0865
     62  CZ         5.1130    0.2000   28.3310 C.cat 251  ARG251      0.5346
     63  NH1        4.9680   -0.1550   29.6050 N.pl3 251  ARG251      0.1354
     64  NH2        6.0750   -0.3560   27.6090 N.pl3 251  ARG251      0.1354
     65  N          1.6920   -0.3090   22.3030 N.3   254  SER254     -0.1203
     66  CA         2.4950   -1.5180   22.1310 C.3   254  SER254      0.2005
     67  C          2.5020   -1.9940   20.6630 C.2   254  SER254      0.2461
     68  O          1.4420   -2.0410   20.0240 O.2   254  SER254     -0.2732
     69  CB         1.9990   -2.6390   23.0350 C.3   254  SER254      0.2103
     70  OG         2.7130   -3.8330   22.7620 O.3   254  SER254     -0.2182
     71  N          3.6860   -2.3190   20.0990 N.am  255  PRO255     -0.2717
     72  CA         3.7200   -2.8100   18.7080 C.3   255  PRO255      0.1535
     73  C          3.3040   -4.2940   18.5910 C.2   255  PRO255      0.2598
     74  O          3.2200   -4.8260   17.4860 O.2   255  PRO255     -0.2715
     75  CB         5.1970   -2.6060   18.3180 C.3   255  PRO255      0.0310
     76  CG         5.9420   -2.7780   19.5860 C.3   255  PRO255      0.0237
     77  CD         5.0390   -2.3140   20.7040 C.3   255  PRO255      0.0939
     78  N          3.0770   -4.9660   19.7340 N.am  256  TRP256     -0.1974
     79  CA         2.7500   -6.3900   19.8270 C.3   256  TRP256      0.1640
     80  C          1.2560   -6.7220   19.9040 C.2   256  TRP256      0.2290
     81  O          0.9090   -7.8780   19.7330 O.2   256  TRP256     -0.2864
     82  CB         3.4760   -7.0160   21.0480 C.3   256  TRP256      0.0576
     83  CG         4.9590   -6.7590   21.0900 C.ar  256  TRP256      0.0006
     84  CD1        5.6000   -5.7580   21.7640 C.ar  256  TRP256      0.0946
     85  CD2        5.9860   -7.5100   20.4160 C.ar  256  TRP256      0.0152
     86  NE1        6.9560   -5.8100   21.5140 N.ar  256  TRP256     -0.2442
     87  CE2        7.2260   -6.9010   20.7280 C.ar  256  TRP256      0.0810
     88  CE3        5.9800   -8.6360   19.5710 C.ar  256  TRP256      0.0012
     89  CZ2        8.4430   -7.3720   20.2140 C.ar  256  TRP256      0.0191
     90  CZ3        7.1910   -9.1220   19.0880 C.ar  256  TRP256      0.0001
     91  CH2        8.4030   -8.4740   19.3880 C.ar  256  TRP256      0.0015
@<TRIPOS>BOND
     1    74    73    2
     2    75    72    1
     3    75    76    1
     4    73    72    1
     5    73    78   am
     6    72    71    1
     7    90    91   ar
     8    90    88   ar
     9    91    89   ar
    10    88    85   ar
    11    76    77    1
    12    81    80    2
    13    78    79    1
    14    79    80    1
    15    79    82    1
    16    68    67    2
    17    71    67   am
    18    71    77    1
    19    89    87   ar
    20    85    87   ar
    21    85    83   ar
    22    67    66    1
    23    87    86   ar
    24    82    83    1
    25    83    84   ar
    26    86    84   ar
    27    66    65    1
    28    66    69    1
    29    12    11    1
    30    70    69    1
    31    13    11    1
    32    11     8    1
    33    10     9    2
    34    31    30    1
    35    57    56    2
    36     8     9    1
    37     8     7    1
    38    32    30    1
    39     9    14   am
    40     7     3   am
    41    56    55    1
    42    30    29    1
    43    14    15    1
    44     3     4    2
    45     3     2    1
    46    29    26    1
    47    15    16    1
    48    15    18    1
    49    25    16   am
    50    25    26    1
    51    55    54    1
    52    55    58    1
    53    58    59    1
    54    16    17    2
    55     2     1    1
    56     2     5    1
    57    19    20    1
    58    19    18    1
    59    26    27    1
    60    20    21    1
    61    64    62    1
    62    49    48    2
    63    61    62    2
    64    61    60    1
    65    50    51    1
    66    50    47    1
    67    62    63    1
    68    59    60    1
    69     6     5    1
    70    51    53   ar
    71    51    52   ar
    72    48    47    1
    73    27    28    2
    74    27    33   am
    75    23    22    1
    76    21    22    2
    77    47    46    1
    78    33    34    1
    79    22    24    1
    80    41    40    1
    81    36    35    2
    82    34    35    1
    83    34    37    1
    84    37    38    1
    85    40    39    1
    86    38    39    1
    87    43    44    1
    88    43    42    1
    89    45    44    2
