@<TRIPOS>MOLECULE
tmp/5i2nA01.pdb
 107 102 0 0 0
SMALL
GASTEIGER

@<TRIPOS>ATOM
      1  N        -15.7980  -14.3350   15.6140 N.3   110  ILE110     -0.1245
      2  CA       -14.4330  -13.8430   15.6490 C.3   110  ILE110      0.1561
      3  C        -13.5290  -15.0440   15.3680 C.2   110  ILE110      0.2260
      4  O        -13.6870  -16.0830   15.9920 O.2   110  ILE110     -0.2867
      5  CB       -14.0560  -13.2230   17.0260 C.3   110  ILE110      0.0252
      6  CG1      -14.8720  -11.9310   17.3470 C.3   110  ILE110      0.0019
      7  CG2      -12.5270  -12.9460   17.1190 C.3   110  ILE110      0.0019
      8  CD1      -15.0690  -11.7370   18.8950 C.3   110  ILE110      0.0001
      9  N        -14.6250   -6.2640   21.3160 N.3   122  VAL122     -0.1231
     10  CA       -14.5750   -7.2850   22.3600 C.3   122  VAL122      0.1678
     11  C        -15.7850   -8.2470   22.0700 C.2   122  VAL122      0.2434
     12  O        -16.7860   -7.7820   21.5180 O.2   122  VAL122     -0.2733
     13  CB       -14.7370   -6.6440   23.7650 C.3   122  VAL122      0.0265
     14  CG1      -13.4830   -5.8640   24.1690 C.3   122  VAL122      0.0020
     15  CG2      -15.9660   -5.7460   23.8030 C.3   122  VAL122      0.0020
     16  N        -15.7110   -9.5550   22.4050 N.am  123  PRO123     -0.2718
     17  CA       -16.8710  -10.4520   22.1680 C.3   123  PRO123      0.1535
     18  C        -18.0900  -10.0660   23.0320 C.2   123  PRO123      0.2599
     19  O        -17.9160   -9.5840   24.1500 O.2   123  PRO123     -0.2715
     20  CB       -16.3430  -11.8230   22.6000 C.3   123  PRO123      0.0310
     21  CG       -15.2080  -11.5100   23.5440 C.3   123  PRO123      0.0237
     22  CD       -14.5920  -10.2700   23.0590 C.3   123  PRO123      0.0939
     23  N        -19.3090  -10.2980   22.5450 N.am  124  PHE124     -0.1960
     24  CA       -20.4880   -9.9310   23.3440 C.3   124  PHE124      0.1771
     25  C        -21.5020  -11.0830   23.4800 C.2   124  PHE124      0.2619
     26  O        -22.5020  -10.9250   24.1840 O.2   124  PHE124     -0.2715
     27  CB       -21.1280   -8.6310   22.8120 C.3   124  PHE124      0.0574
     28  CG       -21.6220   -8.7030   21.3960 C.ar  124  PHE124     -0.0200
     29  CD1      -22.8960   -9.1730   21.1110 C.ar  124  PHE124     -0.0042
     30  CD2      -20.8050   -8.3180   20.3390 C.ar  124  PHE124     -0.0042
     31  CE1      -23.3340   -9.2940   19.7860 C.ar  124  PHE124     -0.0003
     32  CE2      -21.2340   -8.4520   19.0160 C.ar  124  PHE124     -0.0003
     33  CZ       -22.4960   -8.9400   18.7480 C.ar  124  PHE124     -0.0000
     34  N        -21.2400  -12.2280   22.7910 N.am  125  VAL125     -0.1963
     35  CA       -22.0040  -13.4970   22.8320 C.3   125  VAL125      0.1727
     36  C        -20.9620  -14.5940   22.8100 C.2   125  VAL125      0.2616
     37  O        -20.1290  -14.6100   21.9000 O.2   125  VAL125     -0.2715
     38  CB       -22.9990  -13.7390   21.6430 C.3   125  VAL125      0.0290
     39  CG1      -23.7180  -15.0890   21.7830 C.3   125  VAL125      0.0023
     40  CG2      -23.9970  -12.6170   21.5050 C.3   125  VAL125      0.0023
     41  N        -21.0400  -15.5240   23.7640 N.am  126  GLU126     -0.1977
     42  CA       -20.1450  -16.6570   23.8390 C.3   126  GLU126      0.1602
     43  C        -20.5700  -17.7280   22.8180 C.2   126  GLU126      0.2287
     44  O        -21.7280  -18.1590   22.8010 O.2   126  GLU126     -0.2864
     45  CB       -20.1420  -17.2530   25.2590 C.3   126  GLU126      0.0415
     46  CG       -19.5610  -18.6640   25.3070 C.3   126  GLU126      0.1163
     47  CD       -19.4800  -19.3180   26.6720 C.2   126  GLU126      0.3649
     48  OE1      -20.4860  -19.2890   27.4170 O.co2 126  GLU126     -0.2457
     49  OE2      -18.4040  -19.8730   26.9900 O.co2 126  GLU126     -0.2457
     50  N        -13.6790  -22.3920   21.3720 N.3   235  THR235     -0.1203
     51  CA       -14.4260  -21.3360   22.0460 C.3   235  THR235      0.1994
     52  C        -14.0400  -19.9870   21.4890 C.2   235  THR235      0.2619
     53  O        -12.8500  -19.6900   21.2780 O.2   235  THR235     -0.2717
     54  CB       -14.3150  -21.4590   23.5720 C.3   235  THR235      0.1784
     55  OG1      -15.4490  -20.8300   24.1640 O.3   235  THR235     -0.2211
     56  CG2      -13.0440  -20.8580   24.1170 C.3   235  THR235      0.0376
     57  N        -15.0650  -19.2030   21.1580 N.am  236  THR236     -0.1938
     58  CA       -14.8710  -17.8810   20.5990 C.3   236  THR236      0.2028
     59  C        -16.0780  -17.0100   20.9550 C.2   236  THR236      0.2642
     60  O        -16.8020  -17.3330   21.8790 O.2   236  THR236     -0.2714
     61  CB       -14.5110  -17.9880   19.0970 C.3   236  THR236      0.1808
     62  OG1      -14.1540  -16.6950   18.6330 O.3   236  THR236     -0.2208
     63  CG2      -15.6290  -18.6130   18.2420 C.3   236  THR236      0.0379
     64  N        -16.2940  -15.9240   20.2350 N.am  237  GLY237     -0.1954
     65  CA       -17.4700  -15.1070   20.4750 C.3   237  GLY237      0.1869
     66  C        -17.9310  -14.4080   19.2310 C.2   237  GLY237      0.2309
     67  O        -17.2100  -14.4050   18.2240 O.2   237  GLY237     -0.2863
     68  N        -19.6120   -1.7990   25.1310 N.3   256  LEU256     -0.1231
     69  CA       -19.9530   -3.2240   25.3700 C.3   256  LEU256      0.1693
     70  C        -19.5170   -3.6940   26.7770 C.2   256  LEU256      0.2591
     71  O        -20.2810   -4.3640   27.4590 O.2   256  LEU256     -0.2718
     72  CB       -19.3940   -4.1590   24.2730 C.3   256  LEU256      0.0284
     73  CG       -19.9310   -3.9450   22.8460 C.3   256  LEU256      0.0019
     74  CD1      -19.0190   -4.6290   21.8120 C.3   256  LEU256      0.0001
     75  CD2      -21.4150   -4.4050   22.7170 C.3   256  LEU256      0.0001
     76  N        -18.3190   -3.2830   27.2340 N.am  257  LEU257     -0.1980
     77  CA       -17.8460   -3.6190   28.5790 C.3   257  LEU257      0.1596
     78  C        -18.7400   -2.9670   29.6280 C.2   257  LEU257      0.2287
     79  O        -19.0870   -3.6120   30.6180 O.2   257  LEU257     -0.2864
     80  CB       -16.3710   -3.2030   28.7890 C.3   257  LEU257      0.0297
     81  CG       -15.3640   -4.0500   28.0560 C.3   257  LEU257      0.0022
     82  CD1      -14.0600   -3.2880   27.8420 C.3   257  LEU257      0.0001
     83  CD2      -15.1380   -5.3560   28.7700 C.3   257  LEU257      0.0001
     84  N        -22.0620   -5.0540   29.9510 N.3   260  VAL260     -0.1245
     85  CA       -21.8800   -6.2930   30.7260 C.3   260  VAL260      0.1561
     86  C        -21.8820   -5.9930   32.2320 C.2   260  VAL260      0.2260
     87  O        -22.5990   -6.6590   32.9850 O.2   260  VAL260     -0.2867
     88  CB       -20.6170   -7.1180   30.3030 C.3   260  VAL260      0.0252
     89  CG1      -20.5260   -8.4150   31.0970 C.3   260  VAL260      0.0019
     90  CG2      -20.6380   -7.4260   28.8180 C.3   260  VAL260      0.0019
     91  N        -26.4660   -6.9180   29.5590 N.3   265  MET265     -0.1245
     92  CA       -26.2580   -8.0350   28.6300 C.3   265  MET265      0.1570
     93  C        -27.0780   -9.2300   29.0600 C.2   265  MET265      0.2261
     94  O        -27.6620   -9.9090   28.2200 O.2   265  MET265     -0.2867
     95  CB       -24.7790   -8.4440   28.5370 C.3   265  MET265      0.0387
     96  CG       -23.9440   -7.5020   27.7030 C.3   265  MET265      0.0595
     97  SD       -24.3600   -7.3900   25.9470 S.3   265  MET265     -0.1393
     98  CE       -24.4920   -9.0420   25.5430 C.3   265  MET265      0.0692
     99  N        -29.9670  -11.6150   27.0790 N.3   269  GLU269     -0.1245
    100  CA       -29.8600  -13.0690   27.0710 C.3   269  GLU269      0.1567
    101  C        -31.1920  -13.6570   27.5080 C.2   269  GLU269      0.2260
    102  O        -31.6930  -14.5720   26.8500 O.2   269  GLU269     -0.2867
    103  CB       -28.7240  -13.5260   28.0090 C.3   269  GLU269      0.0388
    104  CG       -27.3280  -13.0990   27.5470 C.3   269  GLU269      0.1160
    105  CD       -26.1810  -13.1660   28.5490 C.2   269  GLU269      0.3649
    106  OE1      -25.1840  -12.4340   28.3430 O.co2 269  GLU269     -0.2457
    107  OE2      -26.2670  -13.9480   29.5280 O.co2 269  GLU269     -0.2457
@<TRIPOS>BOND
     1     3     2    1
     2     3     4    2
     3     1     2    1
     4     2     5    1
     5     5     7    1
     6     5     6    1
     7     6     8    1
     8    67    66    2
     9    63    61    1
    10    62    61    1
    11    33    32   ar
    12    33    31   ar
    13    32    30   ar
    14    61    58    1
    15    66    65    1
    16    31    29   ar
    17    64    65    1
    18    64    59   am
    19    30    28   ar
    20    58    59    1
    21    58    57    1
    22    59    60    2
    23    29    28   ar
    24    57    52   am
    25    53    52    2
    26     9    10    1
    27    50    51    1
    28    28    27    1
    29    52    51    1
    30    40    38    1
    31    12    11    2
    32    38    39    1
    33    38    35    1
    34    74    73    1
    35    37    36    2
    36    51    54    1
    37    11    10    1
    38    11    16   am
    39    17    16    1
    40    17    20    1
    41    17    18    1
    42    10    13    1
    43    16    22    1
    44    23    18   am
    45    23    24    1
    46    20    21    1
    47    75    73    1
    48    34    35    1
    49    34    25   am
    50    44    43    2
    51    36    35    1
    52    36    41   am
    53    27    24    1
    54    43    42    1
    55    73    72    1
    56    18    19    2
    57    22    21    1
    58    24    25    1
    59    25    26    2
    60    54    56    1
    61    54    55    1
    62    41    42    1
    63    13    15    1
    64    13    14    1
    65    42    45    1
    66    72    69    1
    67    68    69    1
    68    45    46    1
    69    46    47    1
    70    69    70    1
    71    98    97    1
    72    97    96    1
    73    47    49   ar
    74    47    48   ar
    75    70    76   am
    76    70    71    2
    77   102   101    2
    78   100    99    1
    79   100   101    1
    80   100   103    1
    81    76    77    1
    82   104   103    1
    83   104   105    1
    84    96    95    1
    85    82    81    1
    86    81    83    1
    87    81    80    1
    88    94    93    2
    89   106   105   ar
    90    95    92    1
    91   105   107   ar
    92    77    80    1
    93    77    78    1
    94    92    93    1
    95    92    91    1
    96    90    88    1
    97    78    79    2
    98    84    85    1
    99    88    85    1
   100    88    89    1
   101    85    86    1
   102    86    87    2
