@<TRIPOS>MOLECULE
tmp/5i2nB00.pdb
 84 81 0 0 0
SMALL
GASTEIGER

@<TRIPOS>ATOM
      1  N        -10.6750   -8.3800   32.2120 N.3   123  ILE123     -0.1245
      2  CA       -10.9330   -7.3250   31.2470 C.3   123  ILE123      0.1561
      3  C        -12.1910   -6.5910   31.7510 C.2   123  ILE123      0.2260
      4  O        -13.2420   -7.1910   31.9100 O.2   123  ILE123     -0.2867
      5  CB       -11.1560   -7.9320   29.8390 C.3   123  ILE123      0.0252
      6  CG1       -9.9490   -8.7950   29.3820 C.3   123  ILE123      0.0019
      7  CG2      -11.5290   -6.8370   28.8160 C.3   123  ILE123      0.0019
      8  CD1      -10.2320   -9.6530   28.2120 C.3   123  ILE123      0.0001
      9  N         -7.7800  -10.1540   22.9330 N.3   135  LYS135     -0.1231
     10  CA        -9.0250  -10.9280   22.8930 C.3   135  LYS135      0.1678
     11  C         -8.8580  -11.8990   24.0990 C.2   135  LYS135      0.2434
     12  O         -7.7040  -12.2350   24.4200 O.2   135  LYS135     -0.2733
     13  CB        -9.1140  -11.7480   21.5790 C.3   135  LYS135      0.0284
     14  CG        -9.5640  -10.9500   20.3460 C.3   135  LYS135      0.0035
     15  CD       -11.0530  -10.5290   20.4840 C.3   135  LYS135      0.0206
     16  CE       -11.5390   -9.6550   19.3640 C.3   135  LYS135      0.1093
     17  NZ       -11.1440   -8.2620   19.5880 N.3   135  LYS135     -0.1314
     18  N         -9.9280  -12.3170   24.8210 N.am  136  PRO136     -0.2729
     19  CA        -9.6950  -13.1470   26.0240 C.3   136  PRO136      0.1401
     20  C         -9.0480  -14.5140   25.8160 C.2   136  PRO136      0.2269
     21  O         -9.3450  -15.2010   24.8330 O.2   136  PRO136     -0.2865
     22  CB       -11.0820  -13.2950   26.6640 C.3   136  PRO136      0.0296
     23  CG       -12.0700  -12.8240   25.6470 C.3   136  PRO136      0.0237
     24  CD       -11.3570  -11.9710   24.6420 C.3   136  PRO136      0.0939
     25  N         -9.4110  -16.7860   28.2850 N.3   138  LYS138     -0.1231
     26  CA       -10.3170  -17.5590   29.1410 C.3   138  LYS138      0.1693
     27  C        -11.5550  -16.7370   29.4590 C.2   138  LYS138      0.2592
     28  O        -11.4390  -15.5560   29.7530 O.2   138  LYS138     -0.2718
     29  CB        -9.6230  -17.9930   30.4580 C.3   138  LYS138      0.0285
     30  CG       -10.5180  -18.8320   31.3900 C.3   138  LYS138      0.0035
     31  CD        -9.7850  -20.0160   31.9960 C.3   138  LYS138      0.0206
     32  CE       -10.7290  -21.0230   32.6060 C.3   138  LYS138      0.1093
     33  NZ       -11.5650  -21.7220   31.5860 N.3   138  LYS138     -0.1314
     34  N        -12.7380  -17.3700   29.3930 N.am  139  TYR139     -0.1976
     35  CA       -14.0150  -16.7560   29.7460 C.3   139  TYR139      0.1639
     36  C        -14.5170  -17.5020   30.9630 C.2   139  TYR139      0.2290
     37  O        -14.5830  -18.7280   30.9510 O.2   139  TYR139     -0.2864
     38  CB       -15.0260  -16.8360   28.5980 C.3   139  TYR139      0.0560
     39  CG       -16.3490  -16.1480   28.8800 C.ar  139  TYR139     -0.0198
     40  CD1      -16.3930  -14.8460   29.3750 C.ar  139  TYR139     -0.0009
     41  CD2      -17.5600  -16.7810   28.5960 C.ar  139  TYR139     -0.0009
     42  CE1      -17.6060  -14.1950   29.5920 C.ar  139  TYR139      0.0417
     43  CE2      -18.7790  -16.1310   28.7890 C.ar  139  TYR139      0.0417
     44  CZ       -18.7970  -14.8400   29.2880 C.ar  139  TYR139      0.1957
     45  OH       -20.0000  -14.2030   29.4620 O.3   139  TYR139     -0.2866
     46  N        -19.9630  -12.4860   34.6020 N.3   243  ARG243     -0.1231
     47  CA       -19.1060  -13.2130   33.6930 C.3   243  ARG243      0.1694
     48  C        -18.1410  -12.2210   33.0910 C.2   243  ARG243      0.2593
     49  O        -18.5020  -11.0640   32.8550 O.2   243  ARG243     -0.2718
     50  CB       -19.9250  -13.9340   32.6250 C.3   243  ARG243      0.0321
     51  CG       -20.5450  -15.2250   33.1470 C.3   243  ARG243      0.0489
     52  CD       -21.3940  -15.9070   32.0990 C.3   243  ARG243      0.2205
     53  NE       -22.1480  -17.0230   32.6670 N.pl3 243  ARG243     -0.0865
     54  CZ       -21.7300  -18.2850   32.6770 C.cat 243  ARG243      0.5346
     55  NH1      -20.5590  -18.6080   32.1390 N.pl3 243  ARG243      0.1354
     56  NH2      -22.4800  -19.2340   33.2220 N.pl3 243  ARG243      0.1354
     57  N        -16.8920  -12.6480   32.9140 N.am  244  SER244     -0.1938
     58  CA       -15.8410  -11.7880   32.3750 C.3   244  SER244      0.2055
     59  C        -14.7010  -12.6500   31.8670 C.2   244  SER244      0.2643
     60  O        -14.5420  -13.7960   32.2860 O.2   244  SER244     -0.2714
     61  CB       -15.3370  -10.8260   33.4550 C.3   244  SER244      0.2130
     62  OG       -14.9870  -11.5320   34.6390 O.3   244  SER244     -0.2179
     63  N        -13.9100  -12.0820   30.9860 N.am  245  GLY245     -0.1954
     64  CA       -12.7630  -12.7730   30.4300 C.3   245  GLY245      0.1869
     65  C        -11.4530  -12.3070   31.0230 C.2   245  GLY245      0.2309
     66  O        -11.3770  -11.2120   31.6050 O.2   245  GLY245     -0.2863
     67  N         -6.1850  -16.1450   19.3600 N.3   265  LEU265     -0.1245
     68  CA        -7.2550  -16.7100   18.5150 C.3   265  LEU265      0.1561
     69  C         -6.8050  -18.0100   17.8680 C.2   265  LEU265      0.2260
     70  O         -7.5590  -18.9820   17.8950 O.2   265  LEU265     -0.2867
     71  CB        -7.7390  -15.6980   17.4610 C.3   265  LEU265      0.0270
     72  CG        -8.4080  -14.4250   18.0040 C.3   265  LEU265      0.0019
     73  CD1       -8.6460  -13.4230   16.8980 C.3   265  LEU265      0.0001
     74  CD2       -9.6970  -14.7620   18.7400 C.3   265  LEU265      0.0001
     75  N         -6.9400  -20.7390   20.4990 N.3   268  HIS268     -0.1241
     76  CA        -8.2840  -21.2420   20.7940 C.3   268  HIS268      0.1621
     77  C         -8.7000  -22.1780   19.6370 C.2   268  HIS268      0.2264
     78  O         -9.2180  -23.2530   19.8790 O.2   268  HIS268     -0.2867
     79  CB        -9.3080  -20.0850   20.8750 C.3   268  HIS268      0.0745
     80  CG        -9.2600  -19.3300   22.1660 C.ar  268  HIS268      0.0817
     81  ND1       -9.5550  -19.9410   23.3630 N.ar  268  HIS268     -0.2268
     82  CD2       -8.9750  -18.0300   22.3960 C.ar  268  HIS268      0.1154
     83  CE1       -9.4410  -18.9990   24.2850 C.ar  268  HIS268      0.1986
     84  NE2       -9.1160  -17.8360   23.7490 N.ar  268  HIS268     -0.2212
@<TRIPOS>BOND
     1    73    72    1
     2    71    72    1
     3    71    68    1
     4    69    70    2
     5    69    68    1
     6    72    74    1
     7    68    67    1
     8    16    17    1
     9    16    15    1
    10    77    78    2
    11    77    76    1
    12    14    15    1
    13    14    13    1
    14    75    76    1
    15    76    79    1
    16    79    80    1
    17    13    10    1
    18    80    82   ar
    19    80    81   ar
    20    82    84   ar
    21    10     9    1
    22    10    11    1
    23    81    83   ar
    24    84    83   ar
    25    11    12    2
    26    11    18   am
    27    24    18    1
    28    24    23    1
    29    18    19    1
    30    21    20    2
    31    23    22    1
    32    20    19    1
    33    19    22    1
    34     8     6    1
    35    25    26    1
    36    41    43   ar
    37    41    39   ar
    38    38    39    1
    39    38    35    1
    40    43    44   ar
    41     7     5    1
    42    39    40   ar
    43    26    27    1
    44    26    29    1
    45    44    45    1
    46    44    42   ar
    47    40    42   ar
    48     6     5    1
    49    34    27   am
    50    34    35    1
    51    27    28    2
    52    35    36    1
    53     5     2    1
    54    64    63    1
    55    64    65    1
    56    29    30    1
    57    37    36    2
    58    63    59   am
    59    65    66    2
    60     2     3    1
    61     2     1    1
    62    30    31    1
    63    33    32    1
    64     3     4    2
    65    59    60    2
    66    59    58    1
    67    31    32    1
    68    52    53    1
    69    52    51    1
    70    55    54    1
    71    58    57    1
    72    58    61    1
    73    50    51    1
    74    50    47    1
    75    53    54    2
    76    54    56    1
    77    49    48    2
    78    57    48   am
    79    48    47    1
    80    61    62    1
    81    47    46    1
