@<TRIPOS>MOLECULE
tmp/5i2rA00.pdb
 157 150 0 0 0
SMALL
GASTEIGER

@<TRIPOS>ATOM
      1  N         83.3350   -1.4440   12.4300 N.3    66  TYR66      -0.1227
      2  CA        83.9880   -1.9040   13.6340 C.3    66  TYR66       0.1736
      3  C         84.6240   -0.7970   14.4510 C.2    66  TYR66       0.2595
      4  O         84.4270   -0.7600   15.6670 O.2    66  TYR66      -0.2718
      5  CB        85.0230   -2.9970   13.3140 C.3    66  TYR66       0.0548
      6  CG        85.8710   -3.3500   14.5080 C.ar   66  TYR66      -0.0200
      7  CD1       85.3200   -4.0100   15.5920 C.ar   66  TYR66      -0.0009
      8  CD2       87.2140   -2.9760   14.5800 C.ar   66  TYR66      -0.0009
      9  CE1       86.0810   -4.3140   16.7110 C.ar   66  TYR66       0.0417
     10  CE2       87.9800   -3.2680   15.6950 C.ar   66  TYR66       0.0417
     11  CZ        87.4040   -3.9400   16.7550 C.ar   66  TYR66       0.1957
     12  OH        88.1380   -4.2460   17.8760 O.3    66  TYR66      -0.2866
     13  N         85.3950    0.0810   13.8020 N.am   67  HIS67      -0.1975
     14  CA        86.1090    1.1650   14.4860 C.3    67  HIS67       0.1656
     15  C         85.2160    2.3360   14.8420 C.2    67  HIS67       0.2291
     16  O         85.5210    3.4830   14.5320 O.2    67  HIS67      -0.2864
     17  CB        87.3020    1.6450   13.6640 C.3    67  HIS67       0.0771
     18  CG        88.5020    0.7610   13.7830 C.ar   67  HIS67       0.0820
     19  ND1       88.7710   -0.2560   12.8920 N.ar   67  HIS67      -0.2267
     20  CD2       89.4960    0.7320   14.7010 C.ar   67  HIS67       0.1154
     21  CE1       89.8850   -0.8670   13.2520 C.ar   67  HIS67       0.1986
     22  NE2       90.3470   -0.2850   14.3430 N.ar   67  HIS67      -0.2212
     23  N         98.2020    2.4100   20.7620 N.3   175  THR175     -0.1218
     24  CA        97.1930    1.5840   20.0970 C.3   175  THR175      0.1862
     25  C         97.6040    1.3380   18.6610 C.2   175  THR175      0.2287
     26  O         96.9980    0.5280   17.9860 O.2   175  THR175     -0.2866
     27  CB        95.7890    2.1950   20.1730 C.3   175  THR175      0.1770
     28  OG1       95.8090    3.4920   19.5800 O.3   175  THR175     -0.2211
     29  CG2       95.3280    2.3160   21.6230 C.3   175  THR175      0.0375
     30  N         99.4310   -0.7380   16.6120 N.3   177  LEU177     -0.1245
     31  CA        99.8490   -2.1190   16.8600 C.3   177  LEU177      0.1561
     32  C        101.2730   -2.3970   16.3660 C.2   177  LEU177      0.2260
     33  O        101.9290   -3.3090   16.8580 O.2   177  LEU177     -0.2867
     34  CB        98.8640   -3.0970   16.2130 C.3   177  LEU177      0.0270
     35  CG        98.8530   -4.4950   16.8160 C.3   177  LEU177      0.0019
     36  CD1       98.4490   -4.4520   18.2850 C.3   177  LEU177      0.0001
     37  CD2       97.9290   -5.3880   16.0190 C.3   177  LEU177      0.0001
     38  N        104.6610   -4.7770   19.2360 N.3   181  PHE181     -0.1241
     39  CA       105.5560   -5.9440   19.1870 C.3   181  PHE181      0.1605
     40  C        106.8490   -5.6990   19.9600 C.2   181  PHE181      0.2264
     41  O        107.2650   -6.5070   20.7760 O.2   181  PHE181     -0.2867
     42  CB       105.8540   -6.3110   17.7440 C.3   181  PHE181      0.0534
     43  CG       104.6530   -6.7420   16.9900 C.ar  181  PHE181     -0.0203
     44  CD1      104.1020   -7.9970   17.2090 C.ar  181  PHE181     -0.0042
     45  CD2      104.0480   -5.8940   16.0760 C.ar  181  PHE181     -0.0042
     46  CE1      102.9790   -8.4140   16.5230 C.ar  181  PHE181     -0.0003
     47  CE2      102.9150   -6.3020   15.3820 C.ar  181  PHE181     -0.0003
     48  CZ       102.3790   -7.5730   15.6130 C.ar  181  PHE181     -0.0000
     49  N         92.3760   -2.6300   23.6030 N.3   216  ASP216     -0.1225
     50  CA        92.0860   -2.4630   22.1940 C.3   216  ASP216      0.1805
     51  C         91.7030   -3.7800   21.5560 C.2   216  ASP216      0.2597
     52  O         90.8030   -3.8240   20.7360 O.2   216  ASP216     -0.2718
     53  CB        93.2810   -1.8510   21.4420 C.3   216  ASP216      0.1424
     54  CG        92.8750   -1.1900   20.1470 C.2   216  ASP216      0.3668
     55  OD1       91.7030   -0.7850   20.0200 O.co2 216  ASP216     -0.2456
     56  OD2       93.7280   -1.0660   19.2450 O.co2 216  ASP216     -0.2456
     57  N         92.3790   -4.8540   21.9400 N.am  217  LEU217     -0.1979
     58  CA        92.1650   -6.1540   21.3140 C.3   217  LEU217      0.1596
     59  C         91.0980   -6.9720   22.0220 C.2   217  LEU217      0.2287
     60  O         90.8130   -8.0960   21.6110 O.2   217  LEU217     -0.2864
     61  CB        93.4910   -6.9260   21.2770 C.3   217  LEU217      0.0297
     62  CG        94.5940   -6.3070   20.4050 C.3   217  LEU217      0.0022
     63  CD1       95.7770   -7.2590   20.2940 C.3   217  LEU217      0.0001
     64  CD2       94.0630   -5.9940   19.0270 C.3   217  LEU217      0.0001
     65  N         88.0540   -7.6200   22.2430 N.3   219  SER219     -0.1202
     66  CA        86.9730   -8.4070   21.6570 C.3   219  SER219      0.2020
     67  C         87.3640   -9.9010   21.5280 C.2   219  SER219      0.2618
     68  O         86.5040  -10.7770   21.4910 O.2   219  SER219     -0.2717
     69  CB        86.4990   -7.8100   20.3150 C.3   219  SER219      0.2103
     70  OG        87.0100   -8.5280   19.1960 O.3   219  SER219     -0.2182
     71  N         88.6580  -10.2000   21.4700 N.am  220  VAL220     -0.1979
     72  CA        89.0910  -11.6060   21.4660 C.3   220  VAL220      0.1595
     73  C         89.0120  -12.2540   22.8650 C.2   220  VAL220      0.2287
     74  O         89.2680  -13.4420   23.0000 O.2   220  VAL220     -0.2864
     75  CB        90.5240  -11.7720   20.9020 C.3   220  VAL220      0.0276
     76  CG1       90.5960  -11.1720   19.5090 C.3   220  VAL220      0.0022
     77  CG2       91.5620  -11.1520   21.8350 C.3   220  VAL220      0.0022
     78  N         84.1100  -10.4780   15.0040 N.3   231  ALA231     -0.1245
     79  CA        84.9700  -10.8450   13.8880 C.3   231  ALA231      0.1562
     80  C         84.3850  -10.4440   12.5300 C.2   231  ALA231      0.2260
     81  O         85.1230   -9.9510   11.6750 O.2   231  ALA231     -0.2867
     82  CB        85.2680  -12.3470   13.9190 C.3   231  ALA231      0.0290
     83  N         85.1570   -6.7760   12.0810 N.3   234  ILE234     -0.1231
     84  CA        86.5680   -6.4510   11.8750 C.3   234  ILE234      0.1692
     85  C         86.8710   -6.7260   10.4240 C.2   234  ILE234      0.2592
     86  O         87.4210   -5.8810    9.7210 O.2   234  ILE234     -0.2718
     87  CB        87.5090   -7.2840   12.7790 C.3   234  ILE234      0.0266
     88  CG1       87.2940   -6.9270   14.2470 C.3   234  ILE234      0.0019
     89  CG2       88.9710   -7.0550   12.4370 C.3   234  ILE234      0.0020
     90  CD1       87.8640   -7.9220   15.2090 C.3   234  ILE234      0.0001
     91  N         86.4480   -7.8980    9.9620 N.am  235  TYR235     -0.1976
     92  CA        86.7760   -8.3320    8.6040 C.3   235  TYR235      0.1639
     93  C         86.0330   -7.5290    7.5630 C.2   235  TYR235      0.2290
     94  O         86.5190   -7.3990    6.4440 O.2   235  TYR235     -0.2864
     95  CB        86.5810   -9.8570    8.4200 C.3   235  TYR235      0.0560
     96  CG        87.7920  -10.6120    8.9300 C.ar  235  TYR235     -0.0198
     97  CD1       88.7540  -11.1180    8.0630 C.ar  235  TYR235     -0.0009
     98  CD2       88.0070  -10.7510   10.2920 C.ar  235  TYR235     -0.0009
     99  CE1       89.8890  -11.7670    8.5470 C.ar  235  TYR235      0.0417
    100  CE2       89.1230  -11.3990   10.7790 C.ar  235  TYR235      0.0417
    101  CZ        90.0650  -11.9060    9.9080 C.ar  235  TYR235      0.1957
    102  OH        91.1810  -12.5370   10.4350 O.3   235  TYR235     -0.2866
    103  N         88.3180   -4.7760    6.8860 N.3   238  PHE238     -0.1241
    104  CA        89.4730   -5.3290    6.1860 C.3   238  PHE238      0.1605
    105  C         89.1660   -5.4660    4.7180 C.2   238  PHE238      0.2264
    106  O         89.9010   -4.9710    3.8910 O.2   238  PHE238     -0.2867
    107  CB        89.9120   -6.6970    6.7350 C.3   238  PHE238      0.0534
    108  CG        90.5820   -6.6510    8.0800 C.ar  238  PHE238     -0.0203
    109  CD1       91.1950   -5.5160    8.5530 C.ar  238  PHE238     -0.0042
    110  CD2       90.6160   -7.7840    8.8610 C.ar  238  PHE238     -0.0042
    111  CE1       91.8050   -5.5010    9.7910 C.ar  238  PHE238     -0.0003
    112  CE2       91.2230   -7.7780   10.1030 C.ar  238  PHE238     -0.0003
    113  CZ        91.8220   -6.6260   10.5610 C.ar  238  PHE238     -0.0000
    114  N         94.5260  -11.3910    4.3120 N.3   255  MET255     -0.1245
    115  CA        93.7150  -10.9250    5.4490 C.3   255  MET255      0.1570
    116  C         92.6220   -9.9530    4.9880 C.2   255  MET255      0.2261
    117  O         91.5270   -9.9370    5.5520 O.2   255  MET255     -0.2867
    118  CB        94.6020  -10.2190    6.4710 C.3   255  MET255      0.0387
    119  CG        94.0260  -10.1380    7.8610 C.3   255  MET255      0.0595
    120  SD        94.8220   -8.8270    8.8190 S.3   255  MET255     -0.1393
    121  CE        96.4930   -9.4820    8.9860 C.3   255  MET255      0.0692
    122  N         93.6900  -17.5760    9.4760 N.3   267  GLY267     -0.1210
    123  CA        94.0870  -16.1930    9.8100 C.3   267  GLY267      0.1956
    124  C         93.8910  -15.7870   11.2690 C.2   267  GLY267      0.2611
    125  O         94.7140  -15.0710   11.8330 O.2   267  GLY267     -0.2717
    126  N         92.7990  -16.2260   11.8860 N.am  268  GLN268     -0.1979
    127  CA        92.5320  -15.8970   13.2920 C.3   268  GLN268      0.1601
    128  C         93.4940  -16.6330   14.2310 C.2   268  GLN268      0.2287
    129  O         94.0820  -16.0310   15.1260 O.2   268  GLN268     -0.2864
    130  CB        91.0810  -16.2320   13.6500 C.3   268  GLN268      0.0394
    131  CG        90.0720  -15.2480   13.0900 C.3   268  GLN268      0.0908
    132  CD        90.1840  -13.9120   13.7610 C.2   268  GLN268      0.2608
    133  OE1       89.7870  -13.7510   14.9150 O.2   268  GLN268     -0.2717
    134  NE2       90.7710  -12.9470   13.0640 N.am  268  GLN268     -0.0878
    135  N         96.7350  -14.9280   14.2060 N.3   271  PHE271     -0.1241
    136  CA        96.6420  -13.7250   15.0270 C.3   271  PHE271      0.1605
    137  C         96.5960  -13.9990   16.5360 C.2   271  PHE271      0.2264
    138  O         97.1830  -13.2620   17.3210 O.2   271  PHE271     -0.2867
    139  CB        95.3830  -12.9480   14.6330 C.3   271  PHE271      0.0534
    140  CG        95.2180  -11.6650   15.3850 C.ar  271  PHE271     -0.0203
    141  CD1       95.9210  -10.5320   15.0020 C.ar  271  PHE271     -0.0042
    142  CD2       94.4020  -11.6080   16.5010 C.ar  271  PHE271     -0.0042
    143  CE1       95.7980   -9.3570   15.7170 C.ar  271  PHE271     -0.0003
    144  CE2       94.2650  -10.4490   17.2180 C.ar  271  PHE271     -0.0003
    145  CZ        94.9630   -9.3170   16.8370 C.ar  271  PHE271     -0.0000
    146  N        100.2360  -15.2340   17.1670 N.3   274  ALA274     -0.1231
    147  CA       101.2650  -14.2250   16.8870 C.3   274  ALA274      0.1694
    148  C        101.0870  -12.9360   17.6660 C.2   274  ALA274      0.2591
    149  O        102.0730  -12.2260   17.9000 O.2   274  ALA274     -0.2718
    150  CB       101.3250  -13.9260   15.4080 C.3   274  ALA274      0.0304
    151  N         99.8550  -12.6420   18.0940 N.am  275  VAL275     -0.1980
    152  CA        99.5590  -11.3540   18.7300 C.3   275  VAL275      0.1595
    153  C         98.8670  -11.4160   20.0760 C.2   275  VAL275      0.2287
    154  O         99.4000  -10.9150   21.0710 O.2   275  VAL275     -0.2864
    155  CB        98.7040  -10.4610   17.8120 C.3   275  VAL275      0.0276
    156  CG1       98.6160   -9.0570   18.4020 C.3   275  VAL275      0.0022
    157  CG2       99.2950  -10.4200   16.4060 C.3   275  VAL275      0.0022
@<TRIPOS>BOND
     1   106   105    2
     2   114   115    1
     3   105   104    1
     4   116   115    1
     5   116   117    2
     6   115   118    1
     7   104   107    1
     8   104   103    1
     9    94    93    2
    10   118   119    1
    11   107   108    1
    12    93    92    1
    13   119   120    1
    14    97    99   ar
    15    97    96   ar
    16   108   109   ar
    17   108   110   ar
    18    95    92    1
    19    95    96    1
    20    99   101   ar
    21   109   111   ar
    22    92    91    1
    23   120   121    1
    24   110   112   ar
    25    96    98   ar
    26   122   123    1
    27    86    85    2
    28   111   113   ar
    29   123   124    1
    30   101   102    1
    31   101   100   ar
    32    91    85   am
    33   112   113   ar
    34    98   100   ar
    35    85    84    1
    36   124   125    2
    37   124   126   am
    38    81    80    2
    39    84    83    1
    40    84    87    1
    41   126   127    1
    42     1     2    1
    43    89    87    1
    44    80    79    1
    45    87    88    1
    46    19    21   ar
    47    19    18   ar
    48   134   132   am
    49   131   130    1
    50   131   132    1
    51    21    22   ar
    52   127   130    1
    53   127   128    1
    54     5     2    1
    55     5     6    1
    56     2     3    1
    57    17    18    1
    58    17    14    1
    59   132   133    2
    60    18    20   ar
    61    13     3   am
    62    13    14    1
    63    79    82    1
    64    79    78    1
    65   135   136    1
    66   128   129    2
    67    88    90    1
    68    22    20   ar
    69     3     4    2
    70    14    15    1
    71     6     8   ar
    72     6     7   ar
    73    16    15    2
    74     8    10   ar
    75   139   136    1
    76   139   140    1
    77   141   140   ar
    78   141   143   ar
    79   136   137    1
    80    47    48   ar
    81    47    45   ar
    82   140   142   ar
    83   150   147    1
    84     7     9   ar
    85    48    46   ar
    86    10    11   ar
    87   143   145   ar
    88    37    35    1
    89    45    43   ar
    90    34    35    1
    91    34    31    1
    92    32    33    2
    93    32    31    1
    94   157   155    1
    95   142   144   ar
    96    46    44   ar
    97   137   138    2
    98    30    31    1
    99     9    11   ar
   100    11    12    1
   101    35    36    1
   102   145   144   ar
   103   147   146    1
   104   147   148    1
   105    43    44   ar
   106    43    42    1
   107   148   149    2
   108   148   151   am
   109    42    39    1
   110   155   156    1
   111   155   152    1
   112    26    25    2
   113   151   152    1
   114    25    24    1
   115   152   153    1
   116    64    62    1
   117    39    38    1
   118    39    40    1
   119    70    69    1
   120    56    54   ar
   121    76    75    1
   122    28    27    1
   123    40    41    2
   124    55    54   ar
   125   153   154    2
   126    24    27    1
   127    24    23    1
   128    54    53    1
   129    27    29    1
   130    63    62    1
   131    69    66    1
   132    62    61    1
   133    52    51    2
   134    75    72    1
   135    75    77    1
   136    61    58    1
   137    58    57    1
   138    58    59    1
   139    53    50    1
   140    72    71    1
   141    72    73    1
   142    71    67   am
   143    68    67    2
   144    67    66    1
   145    51    57   am
   146    51    50    1
   147    60    59    2
   148    66    65    1
   149    50    49    1
   150    73    74    2
