@<TRIPOS>MOLECULE
tmp/5i2zC00.pdb
 167 167 0 0 0
SMALL
GASTEIGER

@<TRIPOS>ATOM
      1  N        -31.8950   -2.3040   33.9480 N.3    66  HIS66      -0.1226
      2  CA       -31.5810   -3.6580   34.3810 C.3    66  HIS66       0.1752
      3  C        -31.0340   -3.6450   35.8100 C.2    66  HIS66       0.2595
      4  O        -29.8260   -3.8040   36.0470 O.2    66  HIS66      -0.2718
      5  CB       -30.5990   -4.3170   33.4200 C.3    66  HIS66       0.0759
      6  CG       -31.1950   -4.6380   32.0880 C.ar   66  HIS66       0.0818
      7  ND1      -31.2180   -3.7330   31.0480 N.ar   66  HIS66      -0.2268
      8  CD2      -31.8070   -5.7550   31.6300 C.ar   66  HIS66       0.1154
      9  CE1      -31.8120   -4.2840   30.0040 C.ar   66  HIS66       0.1986
     10  NE2      -32.1860   -5.5060   30.3340 N.ar   66  HIS66      -0.2212
     11  N        -31.9420   -3.4120   36.7500 N.am   67  ALA67      -0.1980
     12  CA       -31.6050   -3.2400   38.1580 C.3    67  ALA67       0.1597
     13  C        -30.9600   -4.4860   38.7480 C.2    67  ALA67       0.2287
     14  O        -31.3230   -5.6350   38.4180 O.2    67  ALA67      -0.2864
     15  CB       -32.8600   -2.8570   38.9660 C.3    67  ALA67       0.0319
     16  N        -27.9470  -13.9980   43.5380 N.3    73  GLY73      -0.1210
     17  CA       -28.5850  -13.9480   42.2370 C.3    73  GLY73       0.1956
     18  C        -27.6520  -13.3690   41.1790 C.2    73  GLY73       0.2612
     19  O        -26.5180  -13.8220   41.0320 O.2    73  GLY73      -0.2717
     20  N        -28.1390  -12.3560   40.4640 N.am   74  ILE74      -0.1965
     21  CA       -27.3650  -11.6640   39.4480 C.3    74  ILE74       0.1727
     22  C        -26.1170  -11.0210   40.0720 C.2    74  ILE74       0.2616
     23  O        -26.2280  -10.2720   41.0620 O.2    74  ILE74      -0.2715
     24  CB       -28.2130  -10.5790   38.7610 C.3    74  ILE74       0.0290
     25  CG1      -29.4450  -11.1990   38.0880 C.3    74  ILE74       0.0022
     26  CG2      -27.3800   -9.8220   37.7540 C.3    74  ILE74       0.0023
     27  CD1      -30.4030  -10.1630   37.4690 C.3    74  ILE74       0.0001
     28  N        -24.9520  -11.3210   39.4910 N.am   75  LEU75      -0.1963
     29  CA       -23.6670  -10.8190   39.9900 C.3    75  LEU75       0.1728
     30  C        -23.1790   -9.6410   39.1700 C.2    75  LEU75       0.2616
     31  O        -22.4260   -8.7940   39.6770 O.2    75  LEU75      -0.2715
     32  CB       -22.6080  -11.9350   39.9650 C.3    75  LEU75       0.0311
     33  CG       -23.0790  -13.2020   40.6730 C.3    75  LEU75       0.0022
     34  CD1      -22.2140  -14.3530   40.2320 C.3    75  LEU75       0.0001
     35  CD2      -23.0640  -13.0450   42.2100 C.3    75  LEU75       0.0001
     36  N        -23.5960   -9.6210   37.9000 N.am   76  ALA76      -0.1963
     37  CA       -23.0710   -8.6780   36.9230 C.3    76  ALA76       0.1728
     38  C        -23.7300   -8.8790   35.5670 C.2    76  ALA76       0.2616
     39  O        -24.2680   -9.9470   35.2630 O.2    76  ALA76      -0.2715
     40  CB       -21.5440   -8.8270   36.7840 C.3    76  ALA76       0.0334
     41  N        -23.6970   -7.8330   34.7550 N.am   77  HIS77      -0.1959
     42  CA       -24.1110   -7.9910   33.3850 C.3    77  HIS77       0.1787
     43  C        -23.3110   -7.0690   32.4770 C.2    77  HIS77       0.2620
     44  O        -22.5260   -6.2420   32.9320 O.2    77  HIS77      -0.2715
     45  CB       -25.6120   -7.7640   33.2230 C.3    77  HIS77       0.0785
     46  CG       -26.0860   -6.4560   33.7460 C.ar   77  HIS77       0.0821
     47  ND1      -27.2540   -6.3320   34.4600 N.ar   77  HIS77      -0.2267
     48  CD2      -25.5760   -5.2100   33.6390 C.ar   77  HIS77       0.1154
     49  CE1      -27.4310   -5.0610   34.7950 C.ar   77  HIS77       0.1986
     50  NE2      -26.4290   -4.3640   34.3070 N.ar   77  HIS77      -0.2212
     51  N        -23.5120   -7.2500   31.1890 N.am   78  ALA78      -0.1977
     52  CA       -22.6750   -6.6500   30.1870 C.3    78  ALA78       0.1597
     53  C        -23.4640   -6.5820   28.8820 C.2    78  ALA78       0.2287
     54  O        -24.3610   -7.3850   28.6440 O.2    78  ALA78      -0.2864
     55  CB       -21.3760   -7.4550   30.0430 C.3    78  ALA78       0.0319
     56  N        -12.6360  -13.4150   37.5010 N.3   108  LEU108     -0.1231
     57  CA       -13.3450  -14.4370   36.7430 C.3   108  LEU108      0.1693
     58  C        -14.6210  -13.8740   36.1520 C.2   108  LEU108      0.2592
     59  O        -14.9650  -14.1380   35.0060 O.2   108  LEU108     -0.2718
     60  CB       -13.6720  -15.6380   37.6100 C.3   108  LEU108      0.0284
     61  CG       -12.4830  -16.4940   38.0110 C.3   108  LEU108      0.0019
     62  CD1      -12.8440  -17.4140   39.1740 C.3   108  LEU108      0.0001
     63  CD2      -12.0190  -17.2800   36.7980 C.3   108  LEU108      0.0001
     64  N        -15.3150  -13.0740   36.9330 N.am  109  THR109     -0.1953
     65  CA       -16.5790  -12.5100   36.4770 C.3   109  THR109      0.1897
     66  C        -16.3530  -11.5890   35.2760 C.2   109  THR109      0.2313
     67  O        -17.1120  -11.5880   34.3100 O.2   109  THR109     -0.2863
     68  CB       -17.2690  -11.7250   37.5990 C.3   109  THR109      0.1794
     69  OG1      -17.3830  -12.5600   38.7580 O.3   109  THR109     -0.2208
     70  CG2      -18.6350  -11.2770   37.1480 C.3   109  THR109      0.0378
     71  N        -15.6170  -13.4270   31.9100 N.3   112  HIS112     -0.1226
     72  CA       -16.9290  -13.8720   31.4170 C.3   112  HIS112      0.1752
     73  C        -17.7210  -12.7020   30.8130 C.2   112  HIS112      0.2595
     74  O        -18.1890  -12.7790   29.6620 O.2   112  HIS112     -0.2718
     75  CB       -17.7280  -14.5420   32.5570 C.3   112  HIS112      0.0759
     76  CG       -19.1260  -14.9300   32.1840 C.ar  112  HIS112      0.0818
     77  ND1      -19.4660  -16.1990   31.7730 N.ar  112  HIS112     -0.2268
     78  CD2      -20.2780  -14.2120   32.1670 C.ar  112  HIS112      0.1154
     79  CE1      -20.7580  -16.2470   31.5110 C.ar  112  HIS112      0.1986
     80  NE2      -21.2760  -15.0580   31.7530 N.ar  112  HIS112     -0.2212
     81  N        -17.8430  -11.6240   31.5960 N.am  113  GLN113     -0.1979
     82  CA       -18.5630  -10.4220   31.1800 C.3   113  GLN113      0.1601
     83  C        -17.9680   -9.7900   29.9250 C.2   113  GLN113      0.2287
     84  O        -18.6870   -9.3960   29.0200 O.2   113  GLN113     -0.2864
     85  CB       -18.5810   -9.3920   32.3170 C.3   113  GLN113      0.0394
     86  CG       -19.4670   -9.7910   33.5010 C.3   113  GLN113      0.0908
     87  CD       -20.8850  -10.0650   33.0510 C.2   113  GLN113      0.2608
     88  OE1      -21.5190   -9.1930   32.4860 O.2   113  GLN113     -0.2717
     89  NE2      -21.3730  -11.2850   33.2670 N.am  113  GLN113     -0.0878
     90  N        -19.0170  -11.0690   26.7900 N.3   116  HIS116     -0.1241
     91  CA       -20.2960  -10.5060   26.3940 C.3   116  HIS116      0.1621
     92  C        -20.1290   -9.1480   25.7270 C.2   116  HIS116      0.2264
     93  O        -20.8910   -8.7760   24.8290 O.2   116  HIS116     -0.2867
     94  CB       -21.2080  -10.3570   27.6050 C.3   116  HIS116      0.0745
     95  CG       -21.7180  -11.6470   28.1540 C.ar  116  HIS116      0.0817
     96  ND1      -22.2510  -12.6430   27.3510 N.ar  116  HIS116     -0.2268
     97  CD2      -21.8320  -12.0890   29.4310 C.ar  116  HIS116      0.1154
     98  CE1      -22.6540  -13.6450   28.1150 C.ar  116  HIS116      0.1986
     99  NE2      -22.4090  -13.3320   29.3740 N.ar  116  HIS116     -0.2212
    100  N        -23.4860  -17.6380   25.5940 N.3   122  HIS122     -0.1241
    101  CA       -23.1290  -18.6190   26.6240 C.3   122  HIS122      0.1621
    102  C        -22.6700  -19.9830   26.0870 C.2   122  HIS122      0.2264
    103  O        -22.8830  -20.3160   24.9250 O.2   122  HIS122     -0.2867
    104  CB       -24.3170  -18.8230   27.5610 C.3   122  HIS122      0.0745
    105  CG       -24.4170  -17.7880   28.6340 C.ar  122  HIS122      0.0817
    106  ND1      -25.6170  -17.2500   29.0430 N.ar  122  HIS122     -0.2268
    107  CD2      -23.4620  -17.2010   29.3960 C.ar  122  HIS122      0.1154
    108  CE1      -25.4000  -16.3680   29.9980 C.ar  122  HIS122      0.1986
    109  NE2      -24.1020  -16.3260   30.2390 N.ar  122  HIS122     -0.2212
    110  N        -15.9790  -24.0230   30.4340 N.3   128  ALA128     -0.1231
    111  CA       -15.8450  -22.7780   29.6780 C.3   128  ALA128      0.1694
    112  C        -16.1160  -21.5500   30.5520 C.2   128  ALA128      0.2591
    113  O        -16.9540  -21.5750   31.4570 O.2   128  ALA128     -0.2718
    114  CB       -16.7670  -22.7870   28.4620 C.3   128  ALA128      0.0304
    115  N        -15.3990  -20.4680   30.2810 N.am  129  VAL129     -0.1980
    116  CA       -15.5330  -19.2840   31.1020 C.3   129  VAL129      0.1595
    117  C        -16.8980  -18.6740   30.8200 C.2   129  VAL129      0.2287
    118  O        -17.4980  -18.0330   31.7030 O.2   129  VAL129     -0.2864
    119  CB       -14.3790  -18.2760   30.8490 C.3   129  VAL129      0.0276
    120  CG1      -14.5840  -17.5220   29.5360 C.3   129  VAL129      0.0022
    121  CG2      -14.2000  -17.3070   32.0400 C.3   129  VAL129      0.0022
    122  N        -19.5880  -20.2400   30.4950 N.3   131  PHE131     -0.1228
    123  CA       -20.6620  -20.9780   31.1090 C.3   131  PHE131      0.1721
    124  C        -21.5780  -20.0050   31.8940 C.2   131  PHE131      0.2437
    125  O        -21.1120  -19.0430   32.4890 O.2   131  PHE131     -0.2733
    126  CB       -20.0990  -22.0810   32.0020 C.3   131  PHE131      0.0547
    127  CG       -21.0870  -23.1440   32.2810 C.ar  131  PHE131     -0.0202
    128  CD1      -21.6080  -23.8750   31.2380 C.ar  131  PHE131     -0.0042
    129  CD2      -21.5380  -23.3820   33.5670 C.ar  131  PHE131     -0.0042
    130  CE1      -22.5590  -24.8320   31.4510 C.ar  131  PHE131     -0.0003
    131  CE2      -22.4860  -24.3570   33.7980 C.ar  131  PHE131     -0.0003
    132  CZ       -22.9960  -25.0850   32.7380 C.ar  131  PHE131     -0.0000
    133  N        -22.8960  -20.2270   31.8620 N.am  132  PRO132     -0.2718
    134  CA       -23.7800  -19.2250   32.4810 C.3   132  PRO132      0.1535
    135  C        -23.8030  -19.2400   34.0020 C.2   132  PRO132      0.2599
    136  O        -24.4800  -18.4070   34.5970 O.2   132  PRO132     -0.2715
    137  CB       -25.1690  -19.5860   31.9440 C.3   132  PRO132      0.0310
    138  CG       -24.9330  -20.6070   30.8420 C.3   132  PRO132      0.0237
    139  CD       -23.6460  -21.2710   31.1510 C.3   132  PRO132      0.0939
    140  N        -23.0800  -20.1530   34.6260 N.am  133  THR133     -0.1937
    141  CA       -23.1130  -20.2460   36.0730 C.3   133  THR133      0.2028
    142  C        -21.7550  -19.9240   36.6760 C.2   133  THR133      0.2642
    143  O        -20.7230  -20.4290   36.2290 O.2   133  THR133     -0.2714
    144  CB       -23.5570  -21.6410   36.5380 C.3   133  THR133      0.1808
    145  OG1      -24.8200  -21.9430   35.9440 O.3   133  THR133     -0.2208
    146  CG2      -23.7350  -21.6720   38.0390 C.3   133  THR133      0.0379
    147  N        -21.7760  -19.1000   37.7160 N.am  134  TYR134     -0.1959
    148  CA       -20.5580  -18.7570   38.4290 C.3   134  TYR134      0.1771
    149  C        -20.0740  -19.8770   39.3460 C.2   134  TYR134      0.2619
    150  O        -20.8170  -20.4180   40.1720 O.2   134  TYR134     -0.2715
    151  CB       -20.7260  -17.4810   39.2700 C.3   134  TYR134      0.0574
    152  CG       -19.4810  -17.1430   40.0650 C.ar  134  TYR134     -0.0198
    153  CD1      -18.4740  -16.3470   39.5110 C.ar  134  TYR134     -0.0009
    154  CD2      -19.2850  -17.6460   41.3460 C.ar  134  TYR134     -0.0009
    155  CE1      -17.3080  -16.0290   40.2150 C.ar  134  TYR134      0.0417
    156  CE2      -18.1150  -17.3490   42.0630 C.ar  134  TYR134      0.0417
    157  CZ       -17.1300  -16.5310   41.4910 C.ar  134  TYR134      0.1957
    158  OH       -15.9710  -16.2370   42.1820 O.3   134  TYR134     -0.2866
    159  N        -18.7960  -20.2040   39.2130 N.am  135  LYS135     -0.1977
    160  CA       -18.1420  -21.0880   40.1600 C.3   135  LYS135      0.1596
    161  C        -16.7040  -20.6380   40.2960 C.2   135  LYS135      0.2287
    162  O        -16.0910  -20.1620   39.3340 O.2   135  LYS135     -0.2864
    163  CB       -18.2140  -22.5560   39.7100 C.3   135  LYS135      0.0298
    164  CG       -17.7800  -23.5320   40.7810 C.3   135  LYS135      0.0038
    165  CD       -18.6380  -23.3890   42.0400 C.3   135  LYS135      0.0206
    166  CE       -19.9190  -24.2150   41.9790 C.3   135  LYS135      0.1093
    167  NZ       -20.8820  -23.7830   40.9240 N.3   135  LYS135     -0.1314
@<TRIPOS>BOND
     1    93    92    2
     2   103   102    2
     3   100   101    1
     4    92    91    1
     5   102   101    1
     6    91    90    1
     7    91    94    1
     8   101   104    1
     9    96    98   ar
    10    96    95   ar
    11   104   105    1
    12    94    95    1
    13    98    99   ar
    14    95    97   ar
    15   114   111    1
    16   105   106   ar
    17   105   107   ar
    18    54    53    2
    19    53    52    1
    20    84    83    2
    21   106   108   ar
    22    99    97   ar
    23   107   109   ar
    24   120   119    1
    25    74    73    2
    26   111   110    1
    27   111   112    1
    28    83    82    1
    29   108   109   ar
    30     9    10   ar
    31     9     7   ar
    32    55    52    1
    33    52    51    1
    34   115   112   am
    35   115   116    1
    36    10     8   ar
    37   122   123    1
    38   112   113    2
    39    73    72    1
    40    73    81   am
    41   117   116    1
    42   117   118    2
    43   138   139    1
    44   138   137    1
    45   119   116    1
    46   119   121    1
    47     7     6   ar
    48   123   124    1
    49   123   126    1
    50   139   133    1
    51    82    81    1
    52    82    85    1
    53    51    43   am
    54   128   130   ar
    55   128   127   ar
    56    72    71    1
    57    72    75    1
    58   130   132   ar
    59    79    80   ar
    60    79    77   ar
    61     8     6   ar
    62    80    78   ar
    63    77    76   ar
    64   133   124   am
    65   133   134    1
    66   124   125    2
    67   137   134    1
    68   126   127    1
    69     6     5    1
    70    78    76   ar
    71    76    75    1
    72   127   129   ar
    73    85    86    1
    74    43    44    2
    75    43    42    1
    76   134   135    1
    77    88    87    2
    78   132   131   ar
    79    87    89   am
    80    87    86    1
    81    45    42    1
    82    45    46    1
    83    42    41    1
    84     5     2    1
    85   129   131   ar
    86    48    46   ar
    87    48    50   ar
    88    46    47   ar
    89     1     2    1
    90   135   136    2
    91   135   140   am
    92    50    49   ar
    93    67    66    2
    94     2     3    1
    95    47    49   ar
    96   140   141    1
    97    41    38   am
    98    59    58    2
    99    39    38    2
   100    66    65    1
   101    38    37    1
   102     3     4    2
   103     3    11   am
   104   145   144    1
   105   141   144    1
   106   141   142    1
   107    58    57    1
   108    58    64   am
   109   143   142    2
   110    65    64    1
   111    65    68    1
   112   144   146    1
   113   142   147   am
   114    57    56    1
   115    57    60    1
   116    11    12    1
   117    40    37    1
   118    63    61    1
   119    37    36    1
   120    70    68    1
   121    27    25    1
   122    68    69    1
   123    60    61    1
   124   147   148    1
   125    26    24    1
   126    36    30   am
   127    61    62    1
   128    25    24    1
   129    12    13    1
   130    12    15    1
   131    14    13    2
   132   148   151    1
   133   148   149    1
   134    24    21    1
   135    30    31    2
   136    30    29    1
   137   159   149   am
   138   159   160    1
   139   151   152    1
   140   162   161    2
   141   149   150    2
   142    21    22    1
   143    21    20    1
   144    28    29    1
   145    28    22   am
   146   153   152   ar
   147   153   155   ar
   148   163   160    1
   149   163   164    1
   150    32    29    1
   151    32    33    1
   152   152   154   ar
   153    22    23    2
   154   160   161    1
   155   155   157   ar
   156    34    33    1
   157    20    18   am
   158    33    35    1
   159   164   165    1
   160   167   166    1
   161    19    18    2
   162    18    17    1
   163   154   156   ar
   164   157   156   ar
   165   157   158    1
   166   166   165    1
   167    17    16    1
