@<TRIPOS>MOLECULE
tmp/5i34A00.pdb
 137 131 0 0 0
SMALL
GASTEIGER

@<TRIPOS>ATOM
      1  N         17.3880   37.5850   43.8050 N.3    17  ASP17      -0.1225
      2  CA        17.0550   36.5500   44.7780 C.3    17  ASP17       0.1805
      3  C         15.7590   36.8460   45.5120 C.2    17  ASP17       0.2598
      4  O         15.5580   36.3950   46.6400 O.2    17  ASP17      -0.2718
      5  CB        18.2080   36.3820   45.7810 C.3    17  ASP17       0.1424
      6  CG        19.5470   36.1960   45.0860 C.2    17  ASP17       0.3668
      7  OD1       20.4910   36.9580   45.3820 O.co2  17  ASP17      -0.2456
      8  OD2       19.6500   35.2970   44.2150 O.co2  17  ASP17      -0.2456
      9  N         14.8690   37.6000   44.8830 N.am   18  GLU18      -0.1965
     10  CA        13.6150   37.9380   45.5560 C.3    18  GLU18       0.1733
     11  C         12.6910   36.7470   45.6810 C.2    18  GLU18       0.2617
     12  O         11.9160   36.6570   46.6400 O.2    18  GLU18      -0.2715
     13  CB        12.8900   39.0650   44.8190 C.3    18  GLU18       0.0429
     14  CG        13.6460   40.3950   44.8210 C.3    18  GLU18       0.1163
     15  CD        14.6330   40.5650   43.6740 C.2    18  GLU18       0.3649
     16  OE1       14.8720   39.6100   42.8850 O.co2  18  GLU18      -0.2457
     17  OE2       15.1430   41.7020   43.5680 O.co2  18  GLU18      -0.2457
     18  N         12.7780   35.8290   44.7270 N.am   19  GLY19      -0.1940
     19  CA        11.8510   34.7150   44.6580 C.3    19  GLY19       0.2014
     20  C         10.8850   34.7960   43.4850 C.2    19  GLY19       0.2639
     21  O          9.6880   34.5500   43.6610 O.2    19  GLY19      -0.2714
     22  N         11.4060   35.1230   42.3000 N.am   20  LYS20      -0.1963
     23  CA        10.6120   35.3070   41.0770 C.3    20  LYS20       0.1728
     24  C          9.9820   34.0250   40.5600 C.2    20  LYS20       0.2617
     25  O          8.9560   34.0650   39.8740 O.2    20  LYS20      -0.2715
     26  CB        11.4860   35.8920   39.9430 C.3    20  LYS20       0.0311
     27  CG        12.0280   37.2920   40.2190 C.3    20  LYS20       0.0038
     28  CD        12.9210   37.8810   39.0740 C.3    20  LYS20       0.0206
     29  CE        14.3760   37.4180   39.1620 C.3    20  LYS20       0.1093
     30  NZ        15.0430   37.7060   40.4900 N.3    20  LYS20      -0.1314
     31  N         10.6140   32.8940   40.8620 N.am   21  GLY21      -0.1940
     32  CA        10.2480   31.6230   40.2590 C.3    21  GLY21       0.2014
     33  C          8.8060   31.2190   40.4810 C.2    21  GLY21       0.2638
     34  O          8.1360   30.7540   39.5550 O.2    21  GLY21      -0.2714
     35  N          8.3230   31.3780   41.7070 N.am   22  LYS22      -0.1977
     36  CA         6.9650   30.9710   42.0160 C.3    22  LYS22       0.1596
     37  C          5.9500   31.7620   41.2000 C.2    22  LYS22       0.2287
     38  O          4.9910   31.1790   40.6700 O.2    22  LYS22      -0.2864
     39  CB         6.6960   31.1180   43.5200 C.3    22  LYS22       0.0298
     40  CG         7.2590   29.9450   44.3180 C.3    22  LYS22       0.0038
     41  CD         7.2880   30.2040   45.8050 C.3    22  LYS22       0.0206
     42  CE         5.9080   30.1690   46.3640 C.3    22  LYS22       0.1093
     43  NZ         5.7660   31.0460   47.5100 N.3    22  LYS22      -0.1314
     44  N         19.3350   32.7710   36.0590 N.3    43  ALA43      -0.1231
     45  CA        17.9040   32.7700   36.3290 C.3    43  ALA43       0.1694
     46  C         17.4850   31.3840   36.7840 C.2    43  ALA43       0.2593
     47  O         16.4320   30.8770   36.3910 O.2    43  ALA43      -0.2718
     48  CB        17.1220   33.2010   35.0920 C.3    43  ALA43       0.0304
     49  N         18.3340   30.7740   37.6060 N.am   44  GLY44      -0.1942
     50  CA        18.0980   29.4360   38.1110 C.3    44  GLY44       0.2014
     51  C         16.8170   29.3110   38.9170 C.2    44  GLY44       0.2639
     52  O         16.6580   29.9670   39.9420 O.2    44  GLY44      -0.2714
     53  N         15.9050   28.4670   38.4390 N.am   45  HIS45      -0.1959
     54  CA        14.6770   28.1230   39.1570 C.3    45  HIS45       0.1787
     55  C         14.5220   26.6320   39.2400 C.2    45  HIS45       0.2620
     56  O         14.8520   25.9290   38.2980 O.2    45  HIS45      -0.2715
     57  CB        13.4430   28.6800   38.4540 C.3    45  HIS45       0.0785
     58  CG        13.3700   30.1640   38.4730 C.ar   45  HIS45       0.0821
     59  ND1       12.8750   30.9020   37.4190 N.ar   45  HIS45      -0.2267
     60  CD2       13.7400   31.0530   39.4200 C.ar   45  HIS45       0.1154
     61  CE1       12.9520   32.1860   37.7180 C.ar   45  HIS45       0.1986
     62  NE2       13.4690   32.3030   38.9290 N.ar   45  HIS45      -0.2212
     63  N         13.9890   26.1530   40.3540 N.am   46  THR46      -0.1951
     64  CA        13.5050   24.7940   40.4130 C.3    46  THR46       0.1897
     65  C         12.0300   24.8400   40.6870 C.2    46  THR46       0.2313
     66  O         11.5940   25.5310   41.6110 O.2    46  THR46      -0.2863
     67  CB        14.2130   23.9740   41.4930 C.3    46  THR46       0.1794
     68  OG1       15.5950   23.8370   41.1540 O.3    46  THR46      -0.2208
     69  CG2       13.6040   22.5770   41.5950 C.3    46  THR46       0.0378
     70  N         16.7880   31.9370   58.4290 N.3   297  VAL297     -0.1231
     71  CA        15.3870   31.5960   58.2140 C.3   297  VAL297      0.1692
     72  C         15.0380   31.7140   56.7190 C.2   297  VAL297      0.2592
     73  O         14.2810   30.9050   56.2080 O.2   297  VAL297     -0.2718
     74  CB        14.4570   32.4840   59.0620 C.3   297  VAL297      0.0266
     75  CG1       12.9800   32.1760   58.7980 C.3   297  VAL297      0.0020
     76  CG2       14.7640   32.2960   60.5410 C.3   297  VAL297      0.0020
     77  N         15.6010   32.7050   56.0330 N.am  298  GLY298     -0.1957
     78  CA        15.3920   32.8500   54.6010 C.3   298  GLY298      0.1869
     79  C         16.2590   31.9530   53.7380 C.2   298  GLY298      0.2309
     80  O         16.1670   32.0230   52.5040 O.2   298  GLY298     -0.2863
     81  N         24.5750   35.6700   51.2210 N.3   309  ARG309     -0.1245
     82  CA        23.9300   36.9420   50.9860 C.3   309  ARG309      0.1563
     83  C         23.9610   37.8720   52.1760 C.2   309  ARG309      0.2260
     84  O         23.7580   37.4670   53.3200 O.2   309  ARG309     -0.2867
     85  CB        22.5030   36.7020   50.5520 C.3   309  ARG309      0.0307
     86  CG        22.4500   35.6060   49.5300 C.3   309  ARG309      0.0489
     87  CD        21.3100   35.7680   48.6110 C.3   309  ARG309      0.2205
     88  NE        21.4080   34.7970   47.5270 N.pl3 309  ARG309     -0.0865
     89  CZ        20.6290   33.7300   47.3950 C.cat 309  ARG309      0.5346
     90  NH1       19.6650   33.4760   48.2750 N.pl3 309  ARG309      0.1354
     91  NH2       20.8080   32.9220   46.3610 N.pl3 309  ARG309      0.1354
     92  N          7.2680   38.6530   48.5670 N.3   334  THR334     -0.1203
     93  CA         7.7640   37.3060   48.7940 C.3   334  THR334      0.1994
     94  C          8.4380   37.1270   50.1540 C.2   334  THR334      0.2617
     95  O          8.9290   38.0720   50.7780 O.2   334  THR334     -0.2717
     96  CB         8.7820   36.9190   47.7110 C.3   334  THR334      0.1784
     97  OG1        9.8750   37.8490   47.7780 O.3   334  THR334     -0.2211
     98  CG2        8.1330   36.9600   46.3250 C.3   334  THR334      0.0376
     99  N          8.4960   35.8690   50.5720 N.am  335  LYS335     -0.1979
    100  CA         9.1410   35.4580   51.8060 C.3   335  LYS335      0.1596
    101  C          8.5970   36.1970   53.0040 C.2   335  LYS335      0.2287
    102  O          9.3250   36.4610   53.9580 O.2   335  LYS335     -0.2864
    103  CB        10.6550   35.6300   51.7030 C.3   335  LYS335      0.0298
    104  CG        11.2780   34.9510   50.5090 C.3   335  LYS335      0.0038
    105  CD        12.6750   34.4070   50.8420 C.3   335  LYS335      0.0206
    106  CE        13.4640   34.0270   49.6250 C.3   335  LYS335      0.1093
    107  NZ        14.7900   33.4250   49.9700 N.3   335  LYS335     -0.1314
    108  N          6.7810   34.9690   55.1910 N.3   337  ASP337     -0.1225
    109  CA         6.9030   34.0040   56.2790 C.3   337  ASP337      0.1805
    110  C          8.2220   34.0950   57.0280 C.2   337  ASP337      0.2597
    111  O          8.3150   33.6740   58.1770 O.2   337  ASP337     -0.2718
    112  CB         6.7320   32.5790   55.7310 C.3   337  ASP337      0.1424
    113  CG         7.7410   32.2480   54.6390 C.2   337  ASP337      0.3668
    114  OD1        7.7010   32.9190   53.5810 O.co2 337  ASP337     -0.2456
    115  OD2        8.5500   31.3070   54.8310 O.co2 337  ASP337     -0.2456
    116  N          9.2540   34.6510   56.3900 N.am  338  VAL338     -0.1980
    117  CA        10.5730   34.7340   57.0200 C.3   338  VAL338      0.1595
    118  C         10.5310   35.7080   58.1980 C.2   338  VAL338      0.2287
    119  O         11.3620   35.6330   59.0980 O.2   338  VAL338     -0.2864
    120  CB        11.6550   35.1330   55.9840 C.3   338  VAL338      0.0276
    121  CG1       12.9990   35.4770   56.6350 C.3   338  VAL338      0.0022
    122  CG2       11.8280   34.0050   54.9580 C.3   338  VAL338      0.0022
    123  N          4.0150   35.5800   48.8350 N.3   417  GLY417     -0.1225
    124  CA         4.7200   34.3340   49.0550 C.3   417  GLY417      0.1811
    125  C          4.8190   34.0740   50.5420 C.2   417  GLY417      0.2280
    126  O          5.2720   34.9490   51.2900 O.2   417  GLY417     -0.2866
    127  N          5.9610   30.7800   51.6790 N.3   419  GLY419     -0.1210
    128  CA         6.7530   29.5750   51.8340 C.3   419  GLY419      0.1940
    129  C          7.3960   29.1920   50.5150 C.2   419  GLY419      0.2453
    130  O          7.0320   29.7190   49.4680 O.2   419  GLY419     -0.2732
    131  N          8.3610   28.2750   50.5670 N.am  420  PRO420     -0.2728
    132  CA         9.1030   27.8340   49.3810 C.3   420  PRO420      0.1401
    133  C          8.3390   26.8560   48.4990 C.2   420  PRO420      0.2269
    134  O          8.7200   26.6790   47.3410 O.2   420  PRO420     -0.2865
    135  CB        10.3270   27.1530   49.9810 C.3   420  PRO420      0.0296
    136  CG         9.8370   26.6050   51.2650 C.3   420  PRO420      0.0237
    137  CD         8.8510   27.6250   51.7920 C.3   420  PRO420      0.0939
@<TRIPOS>BOND
     1    48    45    1
     2    44    45    1
     3    45    46    1
     4    47    46    2
     5    46    49   am
     6    59    61   ar
     7    59    58   ar
     8    49    50    1
     9    61    62   ar
    10    50    51    1
    11    56    55    2
    12    53    51   am
    13    53    54    1
    14    57    58    1
    15    57    54    1
    16    58    60   ar
    17    51    52    2
    18    62    60   ar
    19    28    29    1
    20    28    27    1
    21    54    55    1
    22    29    30    1
    23    55    63   am
    24    34    33    2
    25    25    24    2
    26    26    27    1
    27    26    23    1
    28    32    33    1
    29    32    31    1
    30    63    64    1
    31    64    65    1
    32    64    67    1
    33    33    35   am
    34    24    31   am
    35    24    23    1
    36    38    37    2
    37    65    66    2
    38    23    22    1
    39    68    67    1
    40    37    36    1
    41    67    69    1
    42    35    36    1
    43    36    39    1
    44    22    20   am
    45    16    15   ar
    46    20    21    2
    47    20    19    1
    48    39    40    1
    49    17    15   ar
    50    15    14    1
    51     1     2    1
    52     8     6   ar
    53    40    41    1
    54    19    18    1
    55    18    11   am
    56     2     3    1
    57     2     5    1
    58    13    14    1
    59    13    10    1
    60     9     3   am
    61     9    10    1
    62     6     7   ar
    63     6     5    1
    64     3     4    2
    65    10    11    1
    66    11    12    2
    67    41    42    1
    68    98    96    1
    69    91    89    1
    70    42    43    1
    71   134   133    2
    72    89    88    2
    73    89    90    1
    74    88    87    1
    75    96    97    1
    76    96    93    1
    77   133   132    1
    78    92    93    1
    79    87    86    1
    80    93    94    1
    81   123   124    1
    82   124   125    1
    83   132   135    1
    84   132   131    1
    85   130   129    2
    86    86    85    1
    87   106   107    1
    88   106   105    1
    89   135   136    1
    90    94    99   am
    91    94    95    2
    92   104   105    1
    93   104   103    1
    94   129   131   am
    95   129   128    1
    96   125   126    2
    97    85    82    1
    98   131   137    1
    99    99   100    1
   100    82    81    1
   101    82    83    1
   102   136   137    1
   103   127   128    1
   104   103   100    1
   105   100   101    1
   106    83    84    2
   107    80    79    2
   108   101   102    2
   109   114   113   ar
   110    79    78    1
   111    78    77    1
   112   113   115   ar
   113   113   112    1
   114   122   120    1
   115   108   109    1
   116   112   109    1
   117   120   121    1
   118   120   117    1
   119    77    72   am
   120    73    72    2
   121   109   110    1
   122   116   117    1
   123   116   110   am
   124    72    71    1
   125   117   118    1
   126   110   111    2
   127   118   119    2
   128    71    70    1
   129    71    74    1
   130    75    74    1
   131    74    76    1
