@<TRIPOS>MOLECULE
tmp/5i34A01.pdb
 180 172 0 0 0
SMALL
GASTEIGER

@<TRIPOS>ATOM
      1  N         17.7520   43.6800   44.6530 N.3    15  TRP15      -0.1227
      2  CA        19.0700   43.2460   44.1700 C.3    15  TRP15       0.1737
      3  C         19.0930   41.7350   43.8850 C.2    15  TRP15       0.2596
      4  O         20.1060   41.0500   44.0780 O.2    15  TRP15      -0.2718
      5  CB        20.1640   43.5980   45.1770 C.3    15  TRP15       0.0564
      6  CG        20.6490   45.0330   45.1960 C.ar   15  TRP15       0.0003
      7  CD1       21.5870   45.5760   44.3760 C.ar   15  TRP15       0.0946
      8  CD2       20.2720   46.0750   46.1170 C.ar   15  TRP15       0.0152
      9  NE1       21.8260   46.8840   44.7220 N.ar   15  TRP15      -0.2442
     10  CE2       21.0150   47.2160   45.7870 C.ar   15  TRP15       0.0810
     11  CE3       19.3790   46.1480   47.1870 C.ar   15  TRP15       0.0012
     12  CZ2       20.8930   48.4150   46.4830 C.ar   15  TRP15       0.0191
     13  CZ3       19.2470   47.3330   47.8670 C.ar   15  TRP15       0.0001
     14  CH2       19.9990   48.4490   47.5200 C.ar   15  TRP15       0.0015
     15  N         17.9850   41.1950   43.4010 N.am   16  GLY16      -0.1942
     16  CA        17.9470   39.7920   43.0400 C.3    16  GLY16       0.2014
     17  C         17.5850   38.8480   44.1660 C.2    16  GLY16       0.2638
     18  O         17.4510   39.2550   45.3280 O.2    16  GLY16      -0.2714
     19  N         17.3880   37.5850   43.8050 N.am   17  ASP17      -0.1971
     20  CA        17.0550   36.5500   44.7780 C.3    17  ASP17       0.1709
     21  C         15.7590   36.8460   45.5120 C.2    17  ASP17       0.2293
     22  O         15.5580   36.3950   46.6400 O.2    17  ASP17      -0.2864
     23  CB        18.2080   36.3820   45.7810 C.3    17  ASP17       0.1436
     24  CG        19.5470   36.1960   45.0860 C.2    17  ASP17       0.3671
     25  OD1       20.4910   36.9580   45.3820 O.co2  17  ASP17      -0.2456
     26  OD2       19.6500   35.2970   44.2150 O.co2  17  ASP17      -0.2456
     27  N         11.4060   35.1230   42.3000 N.3    20  LYS20      -0.1245
     28  CA        10.6120   35.3070   41.0770 C.3    20  LYS20       0.1561
     29  C          9.9820   34.0250   40.5600 C.2    20  LYS20       0.2260
     30  O          8.9560   34.0650   39.8740 O.2    20  LYS20      -0.2867
     31  CB        11.4860   35.8920   39.9430 C.3    20  LYS20       0.0271
     32  CG        12.0280   37.2920   40.2190 C.3    20  LYS20       0.0035
     33  CD        12.9210   37.8810   39.0740 C.3    20  LYS20       0.0206
     34  CE        14.3760   37.4180   39.1620 C.3    20  LYS20       0.1093
     35  NZ        15.0430   37.7060   40.4900 N.3    20  LYS20      -0.1314
     36  N         21.8370   33.2910   34.8100 N.3    42  ASN42      -0.1240
     37  CA        21.6170   33.5550   36.2320 C.3    42  ASN42       0.1653
     38  C         20.1350   33.7000   36.5590 C.2    42  ASN42       0.2266
     39  O         19.7200   34.6330   37.2560 O.2    42  ASN42      -0.2867
     40  CB        22.3710   34.8140   36.6600 C.3    42  ASN42       0.1155
     41  CG        23.8060   34.5270   37.0300 C.2    42  ASN42       0.2627
     42  OD1       24.0950   33.6130   37.8170 O.2    42  ASN42      -0.2716
     43  ND2       24.7200   35.3040   36.4690 N.am   42  ASN42      -0.0877
     44  N         36.2440   36.8990   32.6940 N.3   123  ASP123     -0.1239
     45  CA        35.3640   37.4420   33.7300 C.3   123  ASP123      0.1674
     46  C         36.1000   37.3050   35.0580 C.2   123  ASP123      0.2266
     47  O         36.2670   38.2670   35.8170 O.2   123  ASP123     -0.2867
     48  CB        34.0350   36.6690   33.7260 C.3   123  ASP123      0.1410
     49  CG        32.8990   37.3480   34.4940 C.2   123  ASP123      0.3668
     50  OD1       33.0870   38.4020   35.1420 O.co2 123  ASP123     -0.2456
     51  OD2       31.7800   36.7790   34.4370 O.co2 123  ASP123     -0.2456
     52  N         33.7550   43.3140   41.6550 N.3   135  ILE135     -0.1231
     53  CA        32.3090   43.5190   41.6100 C.3   135  ILE135      0.1692
     54  C         31.5160   42.3910   42.2390 C.2   135  ILE135      0.2593
     55  O         30.3640   42.5700   42.6450 O.2   135  ILE135     -0.2718
     56  CB        31.8450   43.6610   40.1470 C.3   135  ILE135      0.0266
     57  CG1       32.3060   44.9990   39.5990 C.3   135  ILE135      0.0019
     58  CG2       30.3100   43.4900   40.0090 C.3   135  ILE135      0.0020
     59  CD1       31.9380   45.1930   38.1370 C.3   135  ILE135      0.0001
     60  N         32.1190   41.2110   42.2880 N.am  136  GLY136     -0.1942
     61  CA        31.4190   40.0230   42.7260 C.3   136  GLY136      0.2014
     62  C         30.5880   39.3920   41.6280 C.2   136  GLY136      0.2640
     63  O         29.5040   38.8680   41.8930 O.2   136  GLY136     -0.2714
     64  N         31.1010   39.4050   40.3970 N.am  137  THR137     -0.1936
     65  CA        30.3560   38.7650   39.2970 C.3   137  THR137      0.2028
     66  C         30.2330   37.2690   39.5400 C.2   137  THR137      0.2643
     67  O         30.9900   36.6750   40.3310 O.2   137  THR137     -0.2714
     68  CB        31.0020   38.9580   37.9150 C.3   137  THR137      0.1808
     69  OG1       32.1460   38.0970   37.7960 O.3   137  THR137     -0.2208
     70  CG2       31.3820   40.4250   37.6820 C.3   137  THR137      0.0379
     71  N         29.2870   36.6590   38.8320 N.am  138  THR138     -0.1936
     72  CA        29.0520   35.2240   38.9460 C.3   138  THR138      0.2028
     73  C         30.0520   34.3890   38.1400 C.2   138  THR138      0.2642
     74  O         30.0030   33.1370   38.1590 O.2   138  THR138     -0.2714
     75  CB        27.6370   34.8610   38.4910 C.3   138  THR138      0.1808
     76  OG1       27.4530   35.2370   37.1140 O.3   138  THR138     -0.2208
     77  CG2       26.6150   35.5690   39.3660 C.3   138  THR138      0.0379
     78  N         30.9500   35.0910   37.4520 N.am  139  ARG139     -0.1977
     79  CA        32.0300   34.4950   36.6530 C.3   139  ARG139      0.1597
     80  C         31.4820   33.5650   35.5770 C.2   139  ARG139      0.2287
     81  O         32.1200   32.5650   35.2100 O.2   139  ARG139     -0.2864
     82  CB        33.0190   33.7720   37.5530 C.3   139  ARG139      0.0334
     83  CG        33.5980   34.7320   38.5680 C.3   139  ARG139      0.0492
     84  CD        35.0100   34.4320   38.9270 C.3   139  ARG139      0.2205
     85  NE        35.4880   35.3460   39.9540 N.pl3 139  ARG139     -0.0865
     86  CZ        36.6890   35.2670   40.5140 C.cat 139  ARG139      0.5346
     87  NH1       37.5350   34.3130   40.1350 N.pl3 139  ARG139      0.1354
     88  NH2       37.0470   36.1380   41.4490 N.pl3 139  ARG139      0.1354
     89  N         29.1360   36.8450   31.5670 N.3   142  ILE142     -0.1231
     90  CA        28.0600   37.7110   31.1010 C.3   142  ILE142      0.1692
     91  C         28.5640   39.0950   30.7130 C.2   142  ILE142      0.2592
     92  O         28.2270   39.5980   29.6320 O.2   142  ILE142     -0.2718
     93  CB        26.9410   37.8510   32.1680 C.3   142  ILE142      0.0266
     94  CG1       26.3970   36.4670   32.5500 C.3   142  ILE142      0.0019
     95  CG2       25.8340   38.7950   31.6880 C.3   142  ILE142      0.0020
     96  CD1       25.7680   35.7500   31.4750 C.3   142  ILE142      0.0001
     97  N         29.3740   39.7110   31.5670 N.am  143  GLY143     -0.1957
     98  CA        29.9260   41.0180   31.2690 C.3   143  GLY143      0.1869
     99  C         30.7750   41.0120   30.0140 C.2   143  GLY143      0.2309
    100  O         30.5690   41.8440   29.1200 O.2   143  GLY143     -0.2863
    101  N         17.6790   38.6390   37.0000 N.3   228  ASN228     -0.1240
    102  CA        18.2880   39.5530   37.9410 C.3   228  ASN228      0.1653
    103  C         17.2230   40.4940   38.5120 C.2   228  ASN228      0.2266
    104  O         16.1020   40.0600   38.7950 O.2   228  ASN228     -0.2867
    105  CB        19.4310   40.3020   37.2480 C.3   228  ASN228      0.1155
    106  CG        20.2540   39.3960   36.3220 C.2   228  ASN228      0.2627
    107  OD1       20.2090   39.5070   35.0870 O.2   228  ASN228     -0.2716
    108  ND2       20.9820   38.4830   36.9140 N.am  228  ASN228     -0.0877
    109  N         20.2990   45.8560   39.9920 N.3   232  LEU232     -0.1245
    110  CA        21.4170   45.3120   39.2230 C.3   232  LEU232      0.1561
    111  C         21.4020   45.7920   37.7590 C.2   232  LEU232      0.2260
    112  O         22.2180   45.3510   36.9520 O.2   232  LEU232     -0.2867
    113  CB        21.3920   43.7830   39.2540 C.3   232  LEU232      0.0270
    114  CG        21.5260   43.1800   40.6440 C.3   232  LEU232      0.0019
    115  CD1       21.2420   41.6860   40.6080 C.3   232  LEU232      0.0001
    116  CD2       22.9240   43.4600   41.2440 C.3   232  LEU232      0.0001
    117  N         28.4660   47.7800   40.7080 N.3   241  PHE241     -0.1227
    118  CA        27.9720   46.5310   41.2690 C.3   241  PHE241      0.1736
    119  C         26.6000   46.2160   40.6790 C.2   241  PHE241      0.2595
    120  O         25.5610   46.2460   41.3600 O.2   241  PHE241     -0.2718
    121  CB        27.9330   46.6430   42.7880 C.3   241  PHE241      0.0547
    122  CG        29.2500   47.0670   43.3820 C.ar  241  PHE241     -0.0202
    123  CD1       30.2840   46.1560   43.5140 C.ar  241  PHE241     -0.0042
    124  CD2       29.4550   48.3810   43.7910 C.ar  241  PHE241     -0.0042
    125  CE1       31.4960   46.5500   44.0440 C.ar  241  PHE241     -0.0003
    126  CE2       30.6680   48.7790   44.3230 C.ar  241  PHE241     -0.0003
    127  CZ        31.6750   47.8680   44.4590 C.ar  241  PHE241     -0.0000
    128  N         26.6340   45.9080   39.3900 N.am  242  VAL242     -0.1966
    129  CA        25.4610   45.6630   38.5830 C.3   242  VAL242      0.1727
    130  C         25.8270   44.5990   37.5520 C.2   242  VAL242      0.2617
    131  O         27.0200   44.2660   37.3690 O.2   242  VAL242     -0.2715
    132  CB        24.9840   46.9520   37.8520 C.3   242  VAL242      0.0290
    133  CG1       24.5330   48.0280   38.8530 C.3   242  VAL242      0.0023
    134  CG2       26.0980   47.4880   36.9280 C.3   242  VAL242      0.0023
    135  N         24.8120   44.0640   36.8760 N.am  243  THR243     -0.1937
    136  CA        25.0350   43.1910   35.7440 C.3   243  THR243      0.2028
    137  C         25.0580   44.0620   34.4740 C.2   243  THR243      0.2642
    138  O         24.8220   45.2750   34.5410 O.2   243  THR243     -0.2714
    139  CB        23.9680   42.0740   35.6760 C.3   243  THR243      0.1808
    140  OG1       24.3740   41.0720   34.7370 O.3   243  THR243     -0.2208
    141  CG2       22.6370   42.6150   35.2740 C.3   243  THR243      0.0379
    142  N         25.3990   43.4530   33.3400 N.am  244  SER244     -0.1949
    143  CA        25.7200   44.2030   32.1330 C.3   244  SER244      0.1924
    144  C         24.5890   44.2590   31.1140 C.2   244  SER244      0.2314
    145  O         24.8270   44.5730   29.9530 O.2   244  SER244     -0.2863
    146  CB        26.9550   43.6040   31.4920 C.3   244  SER244      0.2116
    147  OG        28.0260   43.7030   32.4090 O.3   244  SER244     -0.2180
    148  N         21.5250   41.4310   49.3360 N.3   276  ARG276     -0.1231
    149  CA        22.4960   41.8180   48.3130 C.3   276  ARG276      0.1694
    150  C         23.6070   40.7960   48.2730 C.2   276  ARG276      0.2592
    151  O         24.0000   40.2520   49.3060 O.2   276  ARG276     -0.2718
    152  CB        23.1270   43.2020   48.5810 C.3   276  ARG276      0.0321
    153  CG        22.1680   44.3860   48.5010 C.3   276  ARG276      0.0489
    154  CD        22.9180   45.6960   48.2440 C.3   276  ARG276      0.2205
    155  NE        23.7460   45.5530   47.0480 N.pl3 276  ARG276     -0.0865
    156  CZ        25.0220   45.8990   46.9320 C.cat 276  ARG276      0.5346
    157  NH1       25.6840   46.4890   47.9220 N.pl3 276  ARG276      0.1354
    158  NH2       25.6410   45.6600   45.7920 N.pl3 276  ARG276      0.1354
    159  N         24.1220   40.5530   47.0780 N.am  277  VAL277     -0.1966
    160  CA        25.3630   39.8190   46.8910 C.3   277  VAL277      0.1727
    161  C         26.3010   40.6840   46.0640 C.2   277  VAL277      0.2616
    162  O         26.0020   40.9970   44.9130 O.2   277  VAL277     -0.2715
    163  CB        25.1320   38.4790   46.1860 C.3   277  VAL277      0.0290
    164  CG1       26.4550   37.7600   45.9620 C.3   277  VAL277      0.0023
    165  CG2       24.1930   37.6200   46.9900 C.3   277  VAL277      0.0023
    166  N         27.4410   41.0460   46.6400 N.am  278  GLY278     -0.1955
    167  CA        28.4040   41.8740   45.9500 C.3   278  GLY278      0.1869
    168  C         28.7860   43.0610   46.8000 C.2   278  GLY278      0.2309
    169  O         28.2540   43.2490   47.8910 O.2   278  GLY278     -0.2863
    170  N         29.2430   33.8060   47.6890 N.3   307  ARG307     -0.1245
    171  CA        28.0000   34.4990   47.3480 C.3   307  ARG307      0.1563
    172  C         26.9160   34.3270   48.4200 C.2   307  ARG307      0.2260
    173  O         25.7220   34.4530   48.1250 O.2   307  ARG307     -0.2867
    174  CB        27.4850   34.0190   45.9880 C.3   307  ARG307      0.0307
    175  CG        28.4490   34.3400   44.8450 C.3   307  ARG307      0.0489
    176  CD        27.8570   34.0670   43.4640 C.3   307  ARG307      0.2205
    177  NE        26.7040   34.9090   43.1530 N.pl3 307  ARG307     -0.0865
    178  CZ        26.7790   36.2080   42.8810 C.cat 307  ARG307      0.5346
    179  NH1       27.9540   36.8250   42.8930 N.pl3 307  ARG307      0.1354
    180  NH2       25.6760   36.8970   42.6080 N.pl3 307  ARG307      0.1354
@<TRIPOS>BOND
     1   100    99    2
     2    92    91    2
     3   145   144    2
     4    99    98    1
     5    91    90    1
     6    91    97   am
     7    90    89    1
     8    90    93    1
     9   144   143    1
    10    98    97    1
    11    96    94    1
    12   146   143    1
    13   146   147    1
    14    95    93    1
    15   143   142    1
    16    93    94    1
    17    44    45    1
    18   142   137   am
    19    48    45    1
    20    48    49    1
    21    45    46    1
    22    51    49   ar
    23   137   138    2
    24   137   136    1
    25    49    50   ar
    26   140   139    1
    27    36    37    1
    28    46    47    2
    29   107   106    2
    30    81    80    2
    31   141   139    1
    32    80    79    1
    33   139   136    1
    34   136   135    1
    35    37    38    1
    36    37    40    1
    37   106   108   am
    38   106   105    1
    39    43    41   am
    40    38    39    2
    41    79    78    1
    42    79    82    1
    43    40    41    1
    44   135   130   am
    45   134   132    1
    46   112   111    2
    47   101   102    1
    48    41    42    2
    49    76    75    1
    50   105   102    1
    51   131   130    2
    52    78    73   am
    53   130   129    1
    54    82    83    1
    55    70    68    1
    56   111   110    1
    57    69    68    1
    58   132   129    1
    59   132   133    1
    60    68    65    1
    61   102   103    1
    62    59    57    1
    63    73    74    2
    64    73    72    1
    65    75    72    1
    66    75    77    1
    67   103   104    2
    68    83    84    1
    69   129   128    1
    70    71    72    1
    71    71    66   am
    72    84    85    1
    73    33    34    1
    74    33    32    1
    75    34    35    1
    76   110   113    1
    77   110   109    1
    78   113   114    1
    79    65    66    1
    80    65    64    1
    81   128   119   am
    82    66    67    2
    83    57    56    1
    84    30    29    2
    85    31    32    1
    86    31    28    1
    87    85    86    2
    88    58    56    1
    89    87    86    1
    90    56    53    1
    91    64    62   am
    92    86    88    1
    93    29    28    1
    94   115   114    1
    95   114   116    1
    96   119   118    1
    97   119   120    2
    98   117   118    1
    99    28    27    1
   100   118   121    1
   101    53    52    1
   102    53    54    1
   103    62    63    2
   104    62    61    1
   105    54    60   am
   106    54    55    2
   107    60    61    1
   108   180   178    1
   109   121   122    1
   110   178   179    1
   111   178   177    2
   112    16    15    1
   113    16    17    1
   114   177   176    1
   115   122   123   ar
   116   122   124   ar
   117    15     3   am
   118   176   175    1
   119   123   125   ar
   120   124   126   ar
   121    19    17   am
   122    19    20    1
   123     3     4    2
   124     3     2    1
   125   125   127   ar
   126    17    18    2
   127     2     1    1
   128     2     5    1
   129    26    24   ar
   130   126   127   ar
   131     7     9   ar
   132     7     6   ar
   133     9    10   ar
   134    20    21    1
   135    20    23    1
   136   175   174    1
   137   162   161    2
   138    24    25   ar
   139    24    23    1
   140     5     6    1
   141     6     8   ar
   142    21    22    2
   143    10     8   ar
   144    10    12   ar
   145   158   156    1
   146   167   166    1
   147   167   168    1
   148   164   163    1
   149   174   171    1
   150   161   166   am
   151   161   160    1
   152     8    11   ar
   153   163   160    1
   154   163   165    1
   155    12    14   ar
   156   168   169    2
   157   160   159    1
   158   156   155    2
   159   156   157    1
   160   155   154    1
   161   159   150   am
   162    11    13   ar
   163   171   170    1
   164   171   172    1
   165    14    13   ar
   166   173   172    2
   167   154   153    1
   168   150   149    1
   169   150   151    2
   170   149   152    1
   171   149   148    1
   172   153   152    1
