@<TRIPOS>MOLECULE
tmp/5i35A00.pdb
 198 187 0 0 0
SMALL
GASTEIGER

@<TRIPOS>ATOM
      1  N         51.3210   39.7390   26.7390 N.3    19  GLN19      -0.1245
      2  CA        50.7770   39.7880   25.3520 C.3    19  GLN19       0.1566
      3  C         49.4520   40.5440   25.3090 C.2    19  GLN19       0.2260
      4  O         49.2210   41.3670   24.4190 O.2    19  GLN19      -0.2867
      5  CB        50.4910   38.4250   24.7560 C.3    19  GLN19       0.0367
      6  CG        51.6810   37.5450   24.4560 C.3    19  GLN19       0.0905
      7  CD        51.1950   36.1900   23.9670 C.2    19  GLN19       0.2608
      8  OE1       50.5190   35.4460   24.7050 O.2    19  GLN19      -0.2717
      9  NE2       51.5080   35.8640   22.7190 N.am   19  GLN19      -0.0878
     10  N         60.4300   37.0670   30.2870 N.3    40  ARG40      -0.1245
     11  CA        60.4150   36.2650   29.0650 C.3    40  ARG40       0.1563
     12  C         61.7460   35.5510   28.8300 C.2    40  ARG40       0.2260
     13  O         61.7690   34.3450   28.5170 O.2    40  ARG40      -0.2867
     14  CB        60.0740   37.1410   27.8500 C.3    40  ARG40       0.0307
     15  CG        59.2870   36.4220   26.7460 C.3    40  ARG40       0.0489
     16  CD        58.6380   37.3690   25.7040 C.3    40  ARG40       0.2205
     17  NE        57.9770   38.5780   26.2620 N.pl3  40  ARG40      -0.0865
     18  CZ        58.5030   39.8190   26.3680 C.cat  40  ARG40       0.5346
     19  NH1       59.7500   40.1300   25.9580 N.pl3  40  ARG40       0.1354
     20  NH2       57.7640   40.7880   26.9130 N.pl3  40  ARG40       0.1354
     21  N         66.3840   23.0340   25.0710 N.3    72  PHE72      -0.1227
     22  CA        67.0290   24.1110   24.2880 C.3    72  PHE72       0.1736
     23  C         66.1950   25.4080   24.1680 C.2    72  PHE72       0.2595
     24  O         66.6060   26.3590   23.5410 O.2    72  PHE72      -0.2718
     25  CB        67.4890   23.6170   22.9190 C.3    72  PHE72       0.0547
     26  CG        66.4460   23.6970   21.8460 C.ar   72  PHE72      -0.0202
     27  CD1       66.4150   24.7730   20.9680 C.ar   72  PHE72      -0.0042
     28  CD2       65.5050   22.6670   21.6940 C.ar   72  PHE72      -0.0042
     29  CE1       65.4520   24.8530   19.9860 C.ar   72  PHE72      -0.0003
     30  CE2       64.5520   22.7280   20.6780 C.ar   72  PHE72      -0.0003
     31  CZ        64.5320   23.8250   19.8230 C.ar   72  PHE72      -0.0000
     32  N         65.0200   25.4140   24.7600 N.am   73  ALA73      -0.1966
     33  CA        64.1770   26.5750   24.7960 C.3    73  ALA73       0.1728
     34  C         63.0330   26.3800   25.7880 C.2    73  ALA73       0.2616
     35  O         62.4760   25.2540   26.0060 O.2    73  ALA73      -0.2715
     36  CB        63.6580   26.8990   23.4070 C.3    73  ALA73       0.0334
     37  N         62.7190   27.5040   26.3960 N.am   74  ALA74      -0.1963
     38  CA        61.6520   27.6260   27.3510 C.3    74  ALA74       0.1728
     39  C         60.4220   27.9450   26.5330 C.2    74  ALA74       0.2616
     40  O         60.5160   28.6070   25.5620 O.2    74  ALA74      -0.2715
     41  CB        61.9580   28.7620   28.3110 C.3    74  ALA74       0.0334
     42  N         59.3050   27.3410   26.8810 N.am   75  ALA75      -0.1963
     43  CA        58.0080   27.7370   26.3990 C.3    75  ALA75       0.1728
     44  C         57.2900   28.3120   27.6380 C.2    75  ALA75       0.2617
     45  O         57.7660   28.2200   28.8050 O.2    75  ALA75      -0.2715
     46  CB        57.2540   26.5370   25.8360 C.3    75  ALA75       0.0334
     47  N         56.1430   28.8970   27.3790 N.am   76  SER76      -0.1936
     48  CA        55.3880   29.6350   28.4090 C.3    76  SER76       0.2055
     49  C         54.9090   28.7450   29.5870 C.2    76  SER76       0.2642
     50  O         54.8360   29.2300   30.7020 O.2    76  SER76      -0.2714
     51  CB        54.2080   30.3890   27.7660 C.3    76  SER76       0.2130
     52  OG        53.3580   29.4720   27.0760 O.3    76  SER76      -0.2179
     53  N         54.6300   27.4560   29.3510 N.am   77  ILE77      -0.1977
     54  CA        54.0780   26.5770   30.3880 C.3    77  ILE77       0.1596
     55  C         54.8410   25.2480   30.4410 C.2    77  ILE77       0.2287
     56  O         54.2380   24.2350   30.6810 O.2    77  ILE77      -0.2864
     57  CB        52.5850   26.2510   30.1070 C.3    77  ILE77       0.0276
     58  CG1       52.3790   25.6940   28.6890 C.3    77  ILE77       0.0022
     59  CG2       51.7070   27.4770   30.2160 C.3    77  ILE77       0.0022
     60  CD1       50.9760   25.1660   28.4660 C.3    77  ILE77       0.0001
     61  N         61.1180   22.7700   25.8140 N.3    80  VAL80      -0.1245
     62  CA        61.2240   22.0340   24.5870 C.3    80  VAL80       0.1561
     63  C         62.5470   21.3000   24.5200 C.2    80  VAL80       0.2260
     64  O         63.6070   21.9120   24.7090 O.2    80  VAL80      -0.2867
     65  CB        61.0830   22.9470   23.3480 C.3    80  VAL80       0.0252
     66  CG1       60.9680   22.0950   22.0850 C.3    80  VAL80       0.0019
     67  CG2       59.8850   23.9230   23.4960 C.3    80  VAL80       0.0019
     68  N         61.4170   18.1660   17.8560 N.3    91  ALA91      -0.1245
     69  CA        61.3280   19.0260   19.0600 C.3    91  ALA91       0.1562
     70  C         60.0890   18.6140   19.9050 C.2    91  ALA91       0.2260
     71  O         58.9720   18.6180   19.3940 O.2    91  ALA91      -0.2867
     72  CB        61.2840   20.4960   18.6810 C.3    91  ALA91       0.0290
     73  N         57.7470   19.4540   22.8690 N.3    92  LYS92      -0.1245
     74  CA        57.3360   20.4870   23.7980 C.3    92  LYS92       0.1561
     75  C         56.5730   19.8690   24.9620 C.2    92  LYS92       0.2260
     76  O         55.5130   19.2970   24.7700 O.2    92  LYS92      -0.2867
     77  CB        56.4600   21.4870   23.0900 C.3    92  LYS92       0.0271
     78  CG        56.4980   22.8020   23.7950 C.3    92  LYS92       0.0035
     79  CD        55.2200   23.5570   23.6390 C.3    92  LYS92       0.0206
     80  CE        55.1980   24.5130   22.5040 C.3    92  LYS92       0.1093
     81  NZ        53.8190   24.7900   21.9630 N.3    92  LYS92      -0.1314
     82  N         45.7460   27.8000   25.8850 N.3   136  GLU136     -0.1245
     83  CA        47.1710   27.5890   25.7200 C.3   136  GLU136      0.1567
     84  C         47.5990   26.1930   26.1970 C.2   136  GLU136      0.2260
     85  O         48.4790   25.6370   25.6240 O.2   136  GLU136     -0.2867
     86  CB        47.9410   28.6340   26.5400 C.3   136  GLU136      0.0388
     87  CG        49.4600   28.4790   26.4980 C.3   136  GLU136      0.1160
     88  CD        50.1610   29.7880   26.6390 C.2   136  GLU136      0.3649
     89  OE1       50.4530   30.4230   25.5980 O.co2 136  GLU136     -0.2457
     90  OE2       50.3560   30.2010   27.8040 O.co2 136  GLU136     -0.2457
     91  N         47.0830   21.0340   24.2120 N.3   139  TYR139     -0.1241
     92  CA        47.9620   20.6100   23.1180 C.3   139  TYR139      0.1605
     93  C         47.2710   19.7580   22.0410 C.2   139  TYR139      0.2264
     94  O         47.7520   19.6930   20.9210 O.2   139  TYR139     -0.2867
     95  CB        49.2450   19.9870   23.7000 C.3   139  TYR139      0.0534
     96  CG        50.2970   20.9520   24.2970 C.ar  139  TYR139     -0.0201
     97  CD1       50.0890   22.3200   24.3430 C.ar  139  TYR139     -0.0009
     98  CD2       51.5340   20.4780   24.8100 C.ar  139  TYR139     -0.0009
     99  CE1       51.0560   23.1980   24.8480 C.ar  139  TYR139      0.0417
    100  CE2       52.5130   21.3620   25.3150 C.ar  139  TYR139      0.0417
    101  CZ        52.2550   22.7280   25.3130 C.ar  139  TYR139      0.1957
    102  OH        53.0830   23.6900   25.8040 O.3   139  TYR139     -0.2866
    103  N         46.0500   22.5290   19.9780 N.3   142  GLU142     -0.1245
    104  CA        47.2170   23.0350   19.2790 C.3   142  GLU142      0.1567
    105  C         47.6690   22.1340   18.0570 C.2   142  GLU142      0.2260
    106  O         47.9920   22.6590   16.9460 O.2   142  GLU142     -0.2867
    107  CB        48.3620   23.3250   20.2100 C.3   142  GLU142      0.0388
    108  CG        49.5060   24.0770   19.5160 C.3   142  GLU142      0.1160
    109  CD        50.5870   24.5150   20.5000 C.2   142  GLU142      0.3649
    110  OE1       50.2830   24.8910   21.6480 O.co2 142  GLU142     -0.2457
    111  OE2       51.7370   24.4790   20.1110 O.co2 142  GLU142     -0.2457
    112  N         56.1270   22.7690   10.1750 N.3   162  PRO162     -0.2116
    113  CA        56.7190   21.4760   10.4480 C.3   162  PRO162      0.1372
    114  C         55.6290   20.4950   10.7590 C.2   162  PRO162      0.2244
    115  O         54.6200   20.8930   11.3350 O.2   162  PRO162     -0.2868
    116  CB        57.5700   21.7320   11.7080 C.3   162  PRO162      0.0268
    117  CG        56.9280   22.8300   12.4070 C.3   162  PRO162      0.0207
    118  CD        56.4990   23.7210   11.2350 C.3   162  PRO162      0.0892
    119  N         56.9060   18.1670   17.1470 N.3   176  THR176     -0.1203
    120  CA        57.0640   18.4850   15.7010 C.3   176  THR176      0.1994
    121  C         58.4440   18.1640   15.1620 C.2   176  THR176      0.2618
    122  O         59.3970   18.1550   15.9050 O.2   176  THR176     -0.2717
    123  CB        56.7560   19.9770   15.3850 C.3   176  THR176      0.1784
    124  OG1       57.5080   20.8300   16.2070 O.3   176  THR176     -0.2211
    125  CG2       55.2870   20.3270   15.6790 C.3   176  THR176      0.0376
    126  N         58.5390   17.8220   13.8850 N.am  177  GLU177     -0.1965
    127  CA        59.8020   17.9540   13.1370 C.3   177  GLU177      0.1733
    128  C         60.6180   19.2120   13.4930 C.2   177  GLU177      0.2616
    129  O         60.1020   20.3390   13.4850 O.2   177  GLU177     -0.2715
    130  CB        59.5280   18.0930   11.6550 C.3   177  GLU177      0.0429
    131  CG        59.2140   16.8150   10.9310 C.3   177  GLU177      0.1163
    132  CD        58.9450   17.0990    9.4420 C.2   177  GLU177      0.3649
    133  OE1       58.3310   18.1630    9.0620 O.co2 177  GLU177     -0.2457
    134  OE2       59.3600   16.2160    8.6620 O.co2 177  GLU177     -0.2457
    135  N         61.8920   19.0110   13.7270 N.am  178  LEU178     -0.1963
    136  CA        62.8320   20.0980   13.9520 C.3   178  LEU178      0.1728
    137  C         62.9230   20.9520   12.6810 C.2   178  LEU178      0.2616
    138  O         62.9160   20.4190   11.5720 O.2   178  LEU178     -0.2715
    139  CB        64.1560   19.4610   14.2880 C.3   178  LEU178      0.0311
    140  CG        65.2010   20.3840   14.8370 C.3   178  LEU178      0.0022
    141  CD1       64.8640   20.7450   16.2740 C.3   178  LEU178      0.0001
    142  CD2       66.5930   19.8180   14.6650 C.3   178  LEU178      0.0001
    143  N         62.9600   22.2720   12.8240 N.am  179  VAL179     -0.1977
    144  CA        63.1850   23.1650   11.6350 C.3   179  VAL179      0.1596
    145  C         64.5750   23.8380   11.6720 C.2   179  VAL179      0.2287
    146  O         65.0780   24.2660   12.7290 O.2   179  VAL179     -0.2864
    147  CB        62.1040   24.2790   11.4350 C.3   179  VAL179      0.0276
    148  CG1       60.6640   23.7450   11.5410 C.3   179  VAL179      0.0022
    149  CG2       62.2800   25.3940   12.4170 C.3   179  VAL179      0.0022
    150  N         54.5570   37.1380   16.1380 N.3   220  ASN220     -0.1240
    151  CA        55.7750   37.4380   16.8650 C.3   220  ASN220      0.1653
    152  C         56.9780   36.9940   16.0640 C.2   220  ASN220      0.2266
    153  O         57.1490   35.8120   15.7410 O.2   220  ASN220     -0.2867
    154  CB        55.7490   36.8380   18.2840 C.3   220  ASN220      0.1155
    155  CG        57.1240   36.9050   19.0070 C.2   220  ASN220      0.2627
    156  OD1       57.9290   37.8470   18.8640 O.2   220  ASN220     -0.2716
    157  ND2       57.3940   35.8680   19.7890 N.am  220  ASN220     -0.0877
    158  N         59.8530   36.2360   16.8510 N.3   222  SER222     -0.1202
    159  CA        60.5070   35.0240   17.3800 C.3   222  SER222      0.2020
    160  C         59.8880   33.7050   16.9320 C.2   222  SER222      0.2618
    161  O         60.5390   32.6580   17.0860 O.2   222  SER222     -0.2717
    162  CB        60.5870   35.0760   18.9160 C.3   222  SER222      0.2103
    163  OG        60.8540   36.4310   19.2900 O.3   222  SER222     -0.2182
    164  N         58.6770   33.7190   16.3600 N.am  223  ASN223     -0.1974
    165  CA        58.0930   32.4360   15.8170 C.3   223  ASN223      0.1688
    166  C         58.1450   32.2110   14.3140 C.2   223  ASN223      0.2292
    167  O         57.4990   31.2880   13.8140 O.2   223  ASN223     -0.2864
    168  CB        56.6930   32.2860   16.3410 C.3   223  ASN223      0.1181
    169  CG        56.6770   32.2330   17.8540 C.2   223  ASN223      0.2629
    170  OD1       55.8180   32.8610   18.4780 O.2   223  ASN223     -0.2716
    171  ND2       57.6800   31.5130   18.4690 N.am  223  ASN223     -0.0877
    172  N         60.9790   31.2300   11.6180 N.3   225  PHE225     -0.1241
    173  CA        62.3780   30.7400   11.3890 C.3   225  PHE225      0.1605
    174  C         62.7860   30.7800    9.9200 C.2   225  PHE225      0.2264
    175  O         62.2620   30.0480    9.1090 O.2   225  PHE225     -0.2867
    176  CB        62.5920   29.3190   11.9410 C.3   225  PHE225      0.0534
    177  CG        62.7850   29.2770   13.4230 C.ar  225  PHE225     -0.0203
    178  CD1       61.9100   29.9430   14.2720 C.ar  225  PHE225     -0.0042
    179  CD2       63.8520   28.5700   13.9800 C.ar  225  PHE225     -0.0042
    180  CE1       62.0900   29.9240   15.6460 C.ar  225  PHE225     -0.0003
    181  CE2       64.0570   28.5520   15.3610 C.ar  225  PHE225     -0.0003
    182  CZ        63.1620   29.2190   16.1920 C.ar  225  PHE225     -0.0000
    183  N         56.0690   28.7220   13.6130 N.3   236  LEU236     -0.1231
    184  CA        55.9060   27.9580   14.8450 C.3   236  LEU236      0.1693
    185  C         54.8130   28.5650   15.6960 C.2   236  LEU236      0.2592
    186  O         54.5710   29.7530   15.6030 O.2   236  LEU236     -0.2718
    187  CB        57.2380   27.8760   15.5780 C.3   236  LEU236      0.0284
    188  CG        58.2800   27.0410   14.8300 C.3   236  LEU236      0.0019
    189  CD1       59.6350   27.1600   15.5440 C.3   236  LEU236      0.0001
    190  CD2       57.8190   25.5770   14.7520 C.3   236  LEU236      0.0001
    191  N         54.1240   27.7110   16.4460 N.am  237  ASP237     -0.1974
    192  CA        53.3120   28.0710   17.5960 C.3   237  ASP237      0.1709
    193  C         51.8720   28.3140   17.1300 C.2   237  ASP237      0.2293
    194  O         51.4450   29.4050   16.8990 O.2   237  ASP237     -0.2864
    195  CB        53.8710   29.2480   18.4520 C.3   237  ASP237      0.1436
    196  CG        52.9870   29.5550   19.7580 C.2   237  ASP237      0.3671
    197  OD1       52.1770   28.6760   20.1860 O.co2 237  ASP237     -0.2456
    198  OD2       53.1190   30.6540   20.3750 O.co2 237  ASP237     -0.2456
@<TRIPOS>BOND
     1   134   132   ar
     2   133   132   ar
     3   175   174    2
     4   132   131    1
     5   174   173    1
     6   112   113    1
     7   112   118    1
     8   113   114    1
     9   113   116    1
    10   114   115    2
    11   131   130    1
    12   118   117    1
    13   173   172    1
    14   173   176    1
    15   147   148    1
    16   147   144    1
    17   147   149    1
    18   138   137    2
    19   144   145    1
    20   144   143    1
    21   130   127    1
    22   145   146    2
    23   116   117    1
    24   176   177    1
    25   137   143   am
    26   137   136    1
    27   127   128    1
    28   127   126    1
    29   177   179   ar
    30   177   178   ar
    31   129   128    2
    32   128   135   am
    33   183   184    1
    34   135   136    1
    35   167   166    2
    36   126   121   am
    37   136   139    1
    38   179   181   ar
    39   178   180   ar
    40   139   140    1
    41   166   165    1
    42   142   140    1
    43   190   188    1
    44   188   189    1
    45   188   187    1
    46   140   141    1
    47   184   187    1
    48   184   185    1
    49   121   120    1
    50   121   122    2
    51   181   182   ar
    52   123   125    1
    53   123   120    1
    54   123   124    1
    55   186   185    2
    56   180   182   ar
    57   185   191   am
    58   120   119    1
    59   153   152    2
    60   165   168    1
    61   165   164    1
    62   152   151    1
    63   150   151    1
    64   168   169    1
    65   164   160   am
    66   191   192    1
    67   158   159    1
    68   151   154    1
    69   194   193    2
    70   160   161    2
    71   160   159    1
    72   106   105    2
    73   193   192    1
    74   159   162    1
    75   192   195    1
    76   169   171   am
    77   169   170    2
    78    68    69    1
    79   105   104    1
    80   154   155    1
    81   195   196    1
    82    72    69    1
    83   156   155    2
    84   162   163    1
    85   155   157   am
    86    69    70    1
    87   104   103    1
    88   104   107    1
    89    71    70    2
    90   108   107    1
    91   108   109    1
    92   196   197   ar
    93   196   198   ar
    94    31    29   ar
    95    31    30   ar
    96    29    27   ar
    97   111   109   ar
    98   109   110   ar
    99    30    28   ar
   100    94    93    2
   101    27    26   ar
   102    28    26   ar
   103    26    25    1
   104    81    80    1
   105    93    92    1
   106    66    65    1
   107    80    79    1
   108     9     7   am
   109    73    74    1
   110    25    22    1
   111    77    78    1
   112    77    74    1
   113    92    95    1
   114    92    91    1
   115    65    67    1
   116    65    62    1
   117    36    33    1
   118    24    23    2
   119    79    78    1
   120    95    96    1
   121    74    75    1
   122     7     6    1
   123     7     8    2
   124    23    22    1
   125    23    32   am
   126    22    21    1
   127    96    97   ar
   128    96    98   ar
   129    97    99   ar
   130     4     3    2
   131     6     5    1
   132    63    62    1
   133    63    64    2
   134    62    61    1
   135     5     2    1
   136    32    33    1
   137    76    75    2
   138    33    34    1
   139    98   100   ar
   140    99   101   ar
   141     3     2    1
   142   101   100   ar
   143   101   102    1
   144     2     1    1
   145    40    39    2
   146    89    88   ar
   147    85    84    2
   148    16    17    1
   149    16    15    1
   150    83    82    1
   151    83    84    1
   152    83    86    1
   153    34    35    2
   154    34    37   am
   155    46    43    1
   156    19    18    1
   157    17    18    2
   158    18    20    1
   159    37    38    1
   160    43    42    1
   161    43    44    1
   162    87    86    1
   163    87    88    1
   164    39    42   am
   165    39    38    1
   166    88    90   ar
   167    15    14    1
   168    52    51    1
   169    38    41    1
   170    47    44   am
   171    47    48    1
   172    44    45    2
   173    51    48    1
   174    14    11    1
   175    48    49    1
   176    60    58    1
   177    13    12    2
   178    58    57    1
   179    12    11    1
   180    11    10    1
   181    53    49   am
   182    53    54    1
   183    49    50    2
   184    57    59    1
   185    57    54    1
   186    54    55    1
   187    55    56    2
