@<TRIPOS>MOLECULE
tmp/5i38A00.pdb
 118 116 0 0 0
SMALL
GASTEIGER

@<TRIPOS>ATOM
      1  N         11.4050   96.4540   30.1050 N.3    38  HIS38      -0.1241
      2  CA        10.5060   97.3450   29.3800 C.3    38  HIS38       0.1621
      3  C         10.1650   98.5800   30.2030 C.2    38  HIS38       0.2264
      4  O         10.0980   99.6930   29.6650 O.2    38  HIS38      -0.2867
      5  CB         9.2370   96.5910   28.9880 C.3    38  HIS38       0.0745
      6  CG         8.2860   97.3930   28.1580 C.ar   38  HIS38       0.0817
      7  ND1        7.1700   98.0050   28.6880 N.ar   38  HIS38      -0.2268
      8  CD2        8.2770   97.6750   26.8340 C.ar   38  HIS38       0.1154
      9  CE1        6.5180   98.6330   27.7270 C.ar   38  HIS38       0.1986
     10  NE2        7.1690   98.4490   26.5920 N.ar   38  HIS38      -0.2212
     11  N         10.3990  103.8330   23.1940 N.3    56  HIS56      -0.1241
     12  CA         9.1850  104.3680   22.5970 C.3    56  HIS56       0.1621
     13  C          9.4030  105.8200   22.2050 C.2    56  HIS56       0.2264
     14  O         10.3770  106.4620   22.6100 O.2    56  HIS56      -0.2867
     15  CB         7.9870  104.2740   23.5510 C.3    56  HIS56       0.0745
     16  CG         7.8020  102.9250   24.1710 C.ar   56  HIS56       0.0817
     17  ND1        8.3370  102.5930   25.3980 N.ar   56  HIS56      -0.2268
     18  CD2        7.1250  101.8310   23.7480 C.ar   56  HIS56       0.1154
     19  CE1        8.0080  101.3500   25.6980 C.ar   56  HIS56       0.1986
     20  NE2        7.2720  100.8650   24.7140 N.ar   56  HIS56      -0.2212
     21  N         -4.8100  107.7590   19.3310 N.3   197  PRO197     -0.2116
     22  CA        -3.9720  106.5670   19.1730 C.3   197  PRO197      0.1372
     23  C         -4.4500  105.6330   18.0620 C.2   197  PRO197      0.2244
     24  O         -5.6360  105.3110   17.9810 O.2   197  PRO197     -0.2868
     25  CB        -4.0860  105.8890   20.5380 C.3   197  PRO197      0.0268
     26  CG        -5.4600  106.2410   20.9950 C.3   197  PRO197      0.0207
     27  CD        -5.7520  107.6230   20.4560 C.3   197  PRO197      0.0892
     28  N         -0.2050  100.4490   16.7470 N.3   200  HIS200     -0.1226
     29  CA         0.4410   99.9490   17.9600 C.3   200  HIS200      0.1752
     30  C         -0.1380  100.5220   19.2490 C.2   200  HIS200      0.2596
     31  O         -0.4790   99.7770   20.1750 O.2   200  HIS200     -0.2718
     32  CB         1.9460  100.2070   17.8890 C.3   200  HIS200      0.0759
     33  CG         2.6460  100.0550   19.2030 C.ar  200  HIS200      0.0818
     34  ND1        2.9550  101.1290   20.0100 N.ar  200  HIS200     -0.2268
     35  CD2        3.0980   98.9560   19.8510 C.ar  200  HIS200      0.1154
     36  CE1        3.5670  100.6970   21.0980 C.ar  200  HIS200      0.1986
     37  NE2        3.6650   99.3820   21.0260 N.ar  200  HIS200     -0.2212
     38  N         -0.2460  101.8500   19.3310 N.am  201  ASN201     -0.1974
     39  CA        -0.7650  102.4690   20.5470 C.3   201  ASN201      0.1688
     40  C         -2.2360  102.1330   20.7590 C.2   201  ASN201      0.2292
     41  O         -2.6740  101.9310   21.8970 O.2   201  ASN201     -0.2864
     42  CB        -0.5590  103.9830   20.4990 C.3   201  ASN201      0.1181
     43  CG         0.8780  104.3820   20.7610 C.2   201  ASN201      0.2629
     44  OD1        1.6720  103.5870   21.2650 O.2   201  ASN201     -0.2716
     45  ND2        1.2210  105.6200   20.4260 N.am  201  ASN201     -0.0877
     46  N         -2.8090   98.6700   22.3530 N.3   204  HIS204     -0.1226
     47  CA        -2.5880   98.6960   23.7950 C.3   204  HIS204      0.1752
     48  C         -3.7810   99.2900   24.5320 C.2   204  HIS204      0.2595
     49  O         -4.1980   98.7690   25.5730 O.2   204  HIS204     -0.2718
     50  CB        -1.3170   99.4830   24.1140 C.3   204  HIS204      0.0759
     51  CG        -0.0620   98.6770   23.9960 C.ar  204  HIS204      0.0818
     52  ND1        0.3580   97.8100   24.9810 N.ar  204  HIS204     -0.2268
     53  CD2        0.8660   98.6050   23.0120 C.ar  204  HIS204      0.1154
     54  CE1        1.4900   97.2390   24.6100 C.ar  204  HIS204      0.1986
     55  NE2        1.8200   97.7040   23.4190 N.ar  204  HIS204     -0.2212
     56  N         -4.3420  100.3830   24.0130 N.am  205  ARG205     -0.1980
     57  CA        -5.4710  101.0100   24.6900 C.3   205  ARG205      0.1597
     58  C         -6.7520  100.2040   24.5140 C.2   205  ARG205      0.2287
     59  O         -7.6410  100.2630   25.3720 O.2   205  ARG205     -0.2864
     60  CB        -5.6450  102.4490   24.2040 C.3   205  ARG205      0.0334
     61  CG        -4.3970  103.2960   24.4150 C.3   205  ARG205      0.0492
     62  CD        -4.3910  103.9450   25.7880 C.3   205  ARG205      0.2205
     63  NE        -5.4620  104.9180   25.9710 N.pl3 205  ARG205     -0.0865
     64  CZ        -5.9380  105.2710   27.1600 C.cat 205  ARG205      0.5346
     65  NH1       -5.4360  104.7220   28.2580 N.pl3 205  ARG205      0.1354
     66  NH2       -6.9120  106.1660   27.2540 N.pl3 205  ARG205      0.1354
     67  N         -2.0920   96.2360   29.8400 N.3   211  MET211     -0.1230
     68  CA        -1.6650   96.5460   28.4800 C.3   211  MET211      0.1702
     69  C         -1.8550   98.0150   28.1200 C.2   211  MET211      0.2593
     70  O         -1.2740   98.4750   27.1320 O.2   211  MET211     -0.2718
     71  CB        -2.4290   95.6720   27.4820 C.3   211  MET211      0.0401
     72  CG        -1.7960   94.3150   27.2100 C.3   211  MET211      0.0596
     73  SD        -0.2440   94.4500   26.3050 S.3   211  MET211     -0.1393
     74  CE        -0.8480   94.4320   24.6200 C.3   211  MET211      0.0692
     75  N         -2.6370   98.7600   28.8940 N.am  212  GLY212     -0.1942
     76  CA        -2.9420  100.1350   28.5670 C.3   212  GLY212      0.2014
     77  C         -1.9550  101.1750   29.0450 C.2   212  GLY212      0.2639
     78  O         -2.1290  102.3570   28.7320 O.2   212  GLY212     -0.2714
     79  N         -0.9200  100.7850   29.7890 N.am  213  VAL213     -0.1963
     80  CA         0.0960  101.7180   30.2620 C.3   213  VAL213      0.1727
     81  C          1.4690  101.0810   30.1020 C.2   213  VAL213      0.2616
     82  O          1.6230   99.8580   30.1750 O.2   213  VAL213     -0.2715
     83  CB        -0.1390  102.1540   31.7270 C.3   213  VAL213      0.0290
     84  CG1       -1.4000  103.0010   31.8430 C.3   213  VAL213      0.0023
     85  CG2       -0.2350  100.9490   32.6330 C.3   213  VAL213      0.0023
     86  N          2.4730  101.9320   29.8740 N.am  214  VAL214     -0.1977
     87  CA         3.8020  101.4370   29.5010 C.3   214  VAL214      0.1596
     88  C          4.4340  100.5590   30.5770 C.2   214  VAL214      0.2287
     89  O          4.8380   99.4280   30.2580 O.2   214  VAL214     -0.2864
     90  CB         4.7050  102.6110   29.0880 C.3   214  VAL214      0.0276
     91  CG1        6.0750  102.1030   28.6690 C.3   214  VAL214      0.0022
     92  CG2        4.0600  103.4060   27.9590 C.3   214  VAL214      0.0022
     93  N          2.6440   96.9520   30.8620 N.3   217  ALA217     -0.1245
     94  CA         2.1510   96.2370   29.6850 C.3   217  ALA217      0.1562
     95  C          2.6720   94.8080   29.5420 C.2   217  ALA217      0.2260
     96  O          1.8590   93.9200   29.2350 O.2   217  ALA217     -0.2867
     97  CB         2.4650   97.0510   28.4210 C.3   217  ALA217      0.0290
     98  N          1.1600   90.8880   25.0510 N.3   223  PHE223     -0.1241
     99  CA         2.1090   91.9300   24.6670 C.3   223  PHE223      0.1605
    100  C          3.1070   91.4180   23.6350 C.2   223  PHE223      0.2264
    101  O          3.4690   92.1360   22.6960 O.2   223  PHE223     -0.2867
    102  CB         2.8370   92.4430   25.9140 C.3   223  PHE223      0.0534
    103  CG         3.8830   93.4880   25.6340 C.ar  223  PHE223     -0.0203
    104  CD1        5.1890   93.1260   25.3340 C.ar  223  PHE223     -0.0042
    105  CD2        3.5660   94.8340   25.6930 C.ar  223  PHE223     -0.0042
    106  CE1        6.1510   94.0850   25.0820 C.ar  223  PHE223     -0.0003
    107  CE2        4.5250   95.7990   25.4440 C.ar  223  PHE223     -0.0003
    108  CZ         5.8190   95.4240   25.1400 C.ar  223  PHE223     -0.0000
    109  N          3.4800   92.6710   19.6790 N.3   227  HIS227     -0.1241
    110  CA         4.6970   93.2080   19.0820 C.3   227  HIS227      0.1621
    111  C          5.2950   92.2830   18.0340 C.2   227  HIS227      0.2264
    112  O          6.0250   92.7570   17.1580 O.2   227  HIS227     -0.2867
    113  CB         5.7240   93.5150   20.1680 C.3   227  HIS227      0.0745
    114  CG         5.5080   94.8380   20.8280 C.ar  227  HIS227      0.0817
    115  ND1        5.9790   96.0180   20.2940 N.ar  227  HIS227     -0.2268
    116  CD2        4.8560   95.1730   21.9660 C.ar  227  HIS227      0.1154
    117  CE1        5.6320   97.0220   21.0790 C.ar  227  HIS227      0.1986
    118  NE2        4.9530   96.5360   22.1020 N.ar  227  HIS227     -0.2212
@<TRIPOS>BOND
     1    28    29    1
     2   112   111    2
     3    32    29    1
     4    32    33    1
     5    29    30    1
     6    24    23    2
     7   111   110    1
     8    23    22    1
     9   110   109    1
    10   110   113    1
    11    22    21    1
    12    22    25    1
    13    33    35   ar
    14    33    34   ar
    15    30    38   am
    16    30    31    2
    17    21    27    1
    18    38    39    1
    19    35    37   ar
    20    34    36   ar
    21   113   114    1
    22   115   114   ar
    23   115   117   ar
    24    45    43   am
    25    27    26    1
    26    42    39    1
    27    42    43    1
    28    25    26    1
    29    39    40    1
    30    40    41    2
    31    43    44    2
    32   114   116   ar
    33    37    36   ar
    34   117   118   ar
    35   116   118   ar
    36    13    12    1
    37    13    14    2
    38    46    47    1
    39    12    11    1
    40    12    15    1
    41   101   100    2
    42    53    55   ar
    43    53    51   ar
    44    55    54   ar
    45    15    16    1
    46   100    99    1
    47    18    16   ar
    48    18    20   ar
    49    47    50    1
    50    47    48    1
    51    51    50    1
    52    51    52   ar
    53    56    48   am
    54    56    57    1
    55    16    17   ar
    56    60    61    1
    57    60    57    1
    58    61    62    1
    59    58    57    1
    60    58    59    2
    61    48    49    2
    62    54    52   ar
    63    74    73    1
    64    99    98    1
    65    99   102    1
    66    20    19   ar
    67   106   108   ar
    68   106   104   ar
    69   108   107   ar
    70   104   103   ar
    71    17    19   ar
    72   107   105   ar
    73   103   105   ar
    74   103   102    1
    75    62    63    1
    76    63    64    2
    77    73    72    1
    78    10     8   ar
    79    10     9   ar
    80     8     6   ar
    81    70    69    2
    82    64    66    1
    83    64    65    1
    84    72    71    1
    85    71    68    1
    86     9     7   ar
    87    92    90    1
    88    69    68    1
    89    69    75   am
    90     6     7   ar
    91     6     5    1
    92    97    94    1
    93    68    67    1
    94    76    75    1
    95    76    77    1
    96    91    90    1
    97    78    77    2
    98     5     2    1
    99    77    79   am
   100    90    87    1
   101    96    95    2
   102     2     1    1
   103     2     3    1
   104    87    86    1
   105    87    88    1
   106    95    94    1
   107     4     3    2
   108    94    93    1
   109    79    80    1
   110    86    81   am
   111    81    82    2
   112    81    80    1
   113    89    88    2
   114    80    83    1
   115    83    84    1
   116    83    85    1
