@<TRIPOS>MOLECULE
tmp/5i3aA00.pdb
 120 117 0 0 0
SMALL
GASTEIGER

@<TRIPOS>ATOM
      1  N         11.6820   95.3950   29.9560 N.3    39  HIS39      -0.1241
      2  CA        10.7360   96.2660   29.2720 C.3    39  HIS39       0.1621
      3  C         10.4370   97.5300   30.0740 C.2    39  HIS39       0.2264
      4  O         10.4750   98.6410   29.5400 O.2    39  HIS39      -0.2867
      5  CB         9.4390   95.5120   28.9920 C.3    39  HIS39       0.0745
      6  CG         8.3770   96.3570   28.3680 C.ar   39  HIS39       0.0817
      7  ND1        8.3630   96.6650   27.0270 N.ar   39  HIS39      -0.2268
      8  CD2        7.2950   96.9720   28.9070 C.ar   39  HIS39       0.1154
      9  CE1        7.3160   97.4250   26.7620 C.ar   39  HIS39       0.1986
     10  NE2        6.6530   97.6260   27.8870 N.ar   39  HIS39      -0.2212
     11  N         10.4800  102.6800   23.1560 N.3    57  HIS57      -0.1241
     12  CA         9.2770  103.2760   22.5740 C.3    57  HIS57       0.1621
     13  C          9.4720  104.7150   22.1210 C.2    57  HIS57       0.2264
     14  O         10.4620  105.3620   22.4690 O.2    57  HIS57      -0.2867
     15  CB         8.1120  103.2470   23.5700 C.3    57  HIS57       0.0745
     16  CG         7.9520  101.9470   24.2910 C.ar   57  HIS57       0.0817
     17  ND1        8.6380  101.6500   25.4490 N.ar   57  HIS57      -0.2268
     18  CD2        7.1710  100.8740   24.0300 C.ar   57  HIS57       0.1154
     19  CE1        8.2930  100.4450   25.8650 C.ar   57  HIS57       0.1986
     20  NE2        7.4040   99.9520   25.0220 N.ar   57  HIS57      -0.2212
     21  N          3.9730  101.9980   15.0920 N.3   192  GLU192     -0.1245
     22  CA         3.9270  102.1100   16.5460 C.3   192  GLU192      0.1567
     23  C          2.5590  102.6280   16.9760 C.2   192  GLU192      0.2260
     24  O          1.9710  102.1200   17.9290 O.2   192  GLU192     -0.2867
     25  CB         5.0410  103.0190   17.0720 C.3   192  GLU192      0.0388
     26  CG         5.2170  102.9440   18.5860 C.3   192  GLU192      0.1160
     27  CD         6.4500  103.6790   19.0800 C.2   192  GLU192      0.3649
     28  OE1        7.2000  104.2230   18.2420 O.co2 192  GLU192     -0.2457
     29  OE2        6.6720  103.7050   20.3100 O.co2 192  GLU192     -0.2457
     30  N         -0.1150   99.2950   16.6400 N.3   201  HIS201     -0.1226
     31  CA         0.5230   98.7370   17.8350 C.3   201  HIS201      0.1752
     32  C         -0.0020   99.3260   19.1450 C.2   201  HIS201      0.2596
     33  O         -0.3470   98.5840   20.0650 O.2   201  HIS201     -0.2718
     34  CB         2.0380   98.9280   17.7640 C.3   201  HIS201      0.0759
     35  CG         2.7130   98.8750   19.0980 C.ar  201  HIS201      0.0818
     36  ND1        2.9920  100.0060   19.8350 N.ar  201  HIS201     -0.2268
     37  CD2        3.1540   97.8280   19.8340 C.ar  201  HIS201      0.1154
     38  CE1        3.5810   99.6590   20.9640 C.ar  201  HIS201      0.1986
     39  NE2        3.6910   98.3430   20.9900 N.ar  201  HIS201     -0.2212
     40  N         -0.0510  100.6520   19.2310 N.am  202  ASN202     -0.1974
     41  CA        -0.5740  101.3150   20.4230 C.3   202  ASN202      0.1688
     42  C         -2.0410  100.9700   20.6580 C.2   202  ASN202      0.2292
     43  O         -2.4830  100.8390   21.7990 O.2   202  ASN202     -0.2864
     44  CB        -0.4150  102.8360   20.3200 C.3   202  ASN202      0.1181
     45  CG         1.0220  103.2920   20.4940 C.2   202  ASN202      0.2629
     46  OD1        1.8710  102.5450   20.9810 O.2   202  ASN202     -0.2716
     47  ND2        1.3010  104.5300   20.0970 N.am  202  ASN202     -0.0877
     48  N         -2.6060   97.4070   22.2800 N.3   205  HIS205     -0.1226
     49  CA        -2.3570   97.5150   23.7160 C.3   205  HIS205      0.1752
     50  C         -3.5720   98.0460   24.4720 C.2   205  HIS205      0.2595
     51  O         -4.0400   97.4250   25.4260 O.2   205  HIS205     -0.2718
     52  CB        -1.1540   98.4200   23.9900 C.3   205  HIS205      0.0759
     53  CG         0.1690   97.7250   23.8870 C.ar  205  HIS205      0.0818
     54  ND1        0.6570   96.9080   24.8850 N.ar  205  HIS205     -0.2268
     55  CD2        1.1150   97.7490   22.9220 C.ar  205  HIS205      0.1154
     56  CE1        1.8420   96.4470   24.5300 C.ar  205  HIS205      0.1986
     57  NE2        2.1450   96.9410   23.3440 N.ar  205  HIS205     -0.2212
     58  N         -4.0620   99.2070   24.0480 N.am  206  ARG206     -0.1980
     59  CA        -5.2160   99.8390   24.6840 C.3   206  ARG206      0.1597
     60  C         -6.4960   99.0190   24.5350 C.2   206  ARG206      0.2287
     61  O         -7.3630   99.0610   25.4060 O.2   206  ARG206     -0.2864
     62  CB        -5.4390  101.2450   24.1160 C.3   206  ARG206      0.0334
     63  CG        -4.2340  102.1660   24.2270 C.3   206  ARG206      0.0492
     64  CD        -3.8850  102.4390   25.6820 C.3   206  ARG206      0.2205
     65  NE        -4.8900  103.2650   26.3490 N.pl3 206  ARG206     -0.0865
     66  CZ        -5.1210  103.2470   27.6580 C.cat 206  ARG206      0.5346
     67  NH1       -4.4260  102.4340   28.4440 N.pl3 206  ARG206      0.1354
     68  NH2       -6.0520  104.0320   28.1820 N.pl3 206  ARG206      0.1354
     69  N         -1.8520   95.1700   29.9140 N.3   212  MET212     -0.1230
     70  CA        -1.4110   95.3330   28.5370 C.3   212  MET212      0.1702
     71  C         -1.5870   96.7700   28.0420 C.2   212  MET212      0.2593
     72  O         -0.9240   97.1970   27.0950 O.2   212  MET212     -0.2718
     73  CB        -2.1860   94.3650   27.6410 C.3   212  MET212      0.0401
     74  CG        -1.7180   94.2970   26.2020 C.3   212  MET212      0.0596
     75  SD        -0.1930   93.3640   25.9900 S.3   212  MET212     -0.1393
     76  CE        -0.0480   93.4270   24.2060 C.3   212  MET212      0.0692
     77  N         -2.4690   97.5180   28.6990 N.am  213  GLY213     -0.1942
     78  CA        -2.7340   98.8960   28.3220 C.3   213  GLY213      0.2014
     79  C         -1.7880   99.8800   28.9810 C.2   213  GLY213      0.2639
     80  O         -1.8380  101.0810   28.7130 O.2   213  GLY213     -0.2714
     81  N         -0.8790   99.3850   29.7910 N.am  214  VAL214     -0.1963
     82  CA         0.0380  100.1880   30.5760 C.3   214  VAL214      0.1727
     83  C          1.4960   99.7820   30.3150 C.2   214  VAL214      0.2616
     84  O          1.8680   98.6550   30.4900 O.2   214  VAL214     -0.2715
     85  CB        -0.3050  100.0570   32.0900 C.3   214  VAL214      0.0290
     86  CG1        0.7340  100.6890   32.9770 C.3   214  VAL214      0.0023
     87  CG2       -1.6580  100.6340   32.3990 C.3   214  VAL214      0.0023
     88  N          2.3130  100.7160   29.8740 N.am  215  VAL215     -0.1977
     89  CA         3.6960  100.4380   29.5330 C.3   215  VAL215      0.1596
     90  C          4.4630   99.6320   30.5930 C.2   215  VAL215      0.2287
     91  O          5.0110   98.6040   30.3110 O.2   215  VAL215     -0.2864
     92  CB         4.4500  101.7330   29.1720 C.3   215  VAL215      0.0276
     93  CG1        5.9590  101.5520   29.1220 C.3   215  VAL215      0.0022
     94  CG2        3.9670  102.2990   27.8640 C.3   215  VAL215      0.0022
     95  N          2.8080   95.9340   30.8570 N.3   218  ALA218     -0.1245
     96  CA         2.3360   95.2080   29.6690 C.3   218  ALA218      0.1562
     97  C          2.8230   93.7530   29.5060 C.2   218  ALA218      0.2260
     98  O          2.0200   92.8810   29.1740 O.2   218  ALA218     -0.2867
     99  CB         2.6820   96.0090   28.4130 C.3   218  ALA218      0.0290
    100  N          1.4200   89.7830   25.0290 N.3   224  PHE224     -0.1241
    101  CA         2.3680   90.8410   24.6760 C.3   224  PHE224      0.1605
    102  C          3.3250   90.3780   23.5860 C.2   224  PHE224      0.2264
    103  O          3.5410   91.0730   22.5930 O.2   224  PHE224     -0.2867
    104  CB         3.1540   91.2890   25.9160 C.3   224  PHE224      0.0534
    105  CG         4.1630   92.3770   25.6490 C.ar  224  PHE224     -0.0203
    106  CD1        5.4540   92.0690   25.2430 C.ar  224  PHE224     -0.0042
    107  CD2        3.8190   93.7090   25.8120 C.ar  224  PHE224     -0.0042
    108  CE1        6.3780   93.0690   24.9980 C.ar  224  PHE224     -0.0003
    109  CE2        4.7400   94.7150   25.5690 C.ar  224  PHE224     -0.0003
    110  CZ         6.0210   94.3940   25.1620 C.ar  224  PHE224     -0.0000
    111  N          3.5700   91.5480   19.6810 N.3   228  HIS228     -0.1241
    112  CA         4.7760   92.1150   19.0950 C.3   228  HIS228      0.1621
    113  C          5.4160   91.2050   18.0540 C.2   228  HIS228      0.2264
    114  O          6.1930   91.6700   17.2230 O.2   228  HIS228     -0.2867
    115  CB         5.7850   92.4570   20.1880 C.3   228  HIS228      0.0745
    116  CG         5.5820   93.8170   20.7750 C.ar  228  HIS228      0.0817
    117  ND1        6.0620   94.9610   20.1760 N.ar  228  HIS228     -0.2268
    118  CD2        4.9370   94.2190   21.8950 C.ar  228  HIS228      0.1154
    119  CE1        5.7270   96.0100   20.9060 C.ar  228  HIS228      0.1986
    120  NE2        5.0450   95.5870   21.9540 N.ar  228  HIS228     -0.2212
@<TRIPOS>BOND
     1    21    22    1
     2    22    23    1
     3    22    25    1
     4    30    31    1
     5    23    24    2
     6    25    26    1
     7   114   113    2
     8    34    31    1
     9    34    35    1
    10    31    32    1
    11   113   112    1
    12    28    27   ar
    13    26    27    1
    14    27    29   ar
    15   112   111    1
    16   112   115    1
    17    35    37   ar
    18    35    36   ar
    19    32    40   am
    20    32    33    2
    21    40    41    1
    22    37    39   ar
    23    36    38   ar
    24    47    45   am
    25   117   116   ar
    26   117   119   ar
    27   115   116    1
    28    44    41    1
    29    44    45    1
    30    41    42    1
    31    45    46    2
    32    42    43    2
    33   116   118   ar
    34   119   120   ar
    35    38    39   ar
    36   118   120   ar
    37    13    14    2
    38    13    12    1
    39    48    49    1
    40    12    11    1
    41    12    15    1
    42   103   102    2
    43    55    57   ar
    44    55    53   ar
    45    57    56   ar
    46    15    16    1
    47   102   101    1
    48    49    52    1
    49    49    50    1
    50    53    52    1
    51    53    54   ar
    52    18    16   ar
    53    18    20   ar
    54    58    50   am
    55    58    59    1
    56    62    63    1
    57    62    59    1
    58    76    75    1
    59    63    64    1
    60    16    17   ar
    61    50    51    2
    62    56    54   ar
    63    60    59    1
    64    60    61    2
    65   101   100    1
    66   101   104    1
    67   108   110   ar
    68   108   106   ar
    69    20    19   ar
    70   110   109   ar
    71   106   105   ar
    72    17    19   ar
    73   109   107   ar
    74   105   107   ar
    75   105   104    1
    76    64    65    1
    77    75    74    1
    78    74    73    1
    79    65    66    2
    80     9     7   ar
    81     9    10   ar
    82     7     6   ar
    83    72    71    2
    84    73    70    1
    85    66    68    1
    86    66    67    1
    87    94    92    1
    88    10     8   ar
    89    71    70    1
    90    71    77   am
    91    78    77    1
    92    78    79    1
    93     6     8   ar
    94     6     5    1
    95    99    96    1
    96    70    69    1
    97    80    79    2
    98    79    81   am
    99     5     2    1
   100    93    92    1
   101    92    89    1
   102    98    97    2
   103     2     1    1
   104     2     3    1
   105    97    96    1
   106    89    88    1
   107    89    90    1
   108     4     3    2
   109    96    95    1
   110    81    82    1
   111    88    83   am
   112    91    90    2
   113    83    84    2
   114    83    82    1
   115    82    85    1
   116    85    87    1
   117    85    86    1
