@<TRIPOS>MOLECULE
tmp/5i3cA00.pdb
 125 118 0 0 0
SMALL
GASTEIGER

@<TRIPOS>ATOM
      1  N         61.4910  -50.6650   40.1590 N.3    64  MET64      -0.1245
      2  CA        60.2310  -49.9750   40.0500 C.3    64  MET64       0.1570
      3  C         59.8430  -49.8220   38.5730 C.2    64  MET64       0.2261
      4  O         60.6560  -49.4130   37.7480 O.2    64  MET64      -0.2867
      5  CB        60.3130  -48.6280   40.7410 C.3    64  MET64       0.0387
      6  CG        60.6440  -48.7380   42.2260 C.3    64  MET64       0.0595
      7  SD        60.4760  -47.1430   43.0300 S.3    64  MET64      -0.1393
      8  CE        61.9230  -46.3320   42.3390 C.3    64  MET64       0.0692
      9  N         54.7490  -61.4490   42.3180 N.3    87  ARG87      -0.1245
     10  CA        55.0910  -60.1420   42.8030 C.3    87  ARG87       0.1563
     11  C         54.5160  -59.9680   44.2030 C.2    87  ARG87       0.2260
     12  O         53.3530  -60.2710   44.4440 O.2    87  ARG87      -0.2867
     13  CB        54.5460  -59.0450   41.8980 C.3    87  ARG87       0.0307
     14  CG        54.7040  -57.6620   42.5140 C.3    87  ARG87       0.0489
     15  CD        54.5140  -56.5450   41.5220 C.3    87  ARG87       0.2205
     16  NE        54.0130  -55.3530   42.1940 N.pl3  87  ARG87      -0.0865
     17  CZ        54.7010  -54.5870   43.0380 C.cat  87  ARG87       0.5346
     18  NH1       55.9700  -54.8350   43.3460 N.pl3  87  ARG87       0.1354
     19  NH2       54.1080  -53.5440   43.5860 N.pl3  87  ARG87       0.1354
     20  N         53.9740  -53.2430   47.5100 N.3    90  SER90      -0.1202
     21  CA        53.0980  -52.2990   48.1660 C.3    90  SER90       0.2020
     22  C         52.2110  -51.6460   47.1180 C.2    90  SER90       0.2619
     23  O         52.5250  -51.6670   45.9250 O.2    90  SER90      -0.2717
     24  CB        53.8980  -51.2110   48.8930 C.3    90  SER90       0.2103
     25  OG        54.8690  -50.6210   48.0340 O.3    90  SER90      -0.2182
     26  N         51.1110  -51.0620   47.5770 N.am   91  CYS91      -0.1955
     27  CA        50.2450  -50.2810   46.7290 C.3    91  CYS91       0.1843
     28  C         49.4940  -49.2240   47.5260 C.2    91  CYS91       0.2626
     29  O         49.3920  -49.3110   48.7530 O.2    91  CYS91      -0.2714
     30  CB        49.2470  -51.2060   46.0200 C.3    91  CYS91       0.0997
     31  SG        48.0630  -51.9670   47.1580 S.3    91  CYS91      -0.0797
     32  N         48.9630  -48.2380   46.8000 N.am   92  GLY92      -0.1954
     33  CA        48.1520  -47.1610   47.3580 C.3    92  GLY92       0.1869
     34  C         46.6870  -47.4110   47.0840 C.2    92  GLY92       0.2309
     35  O         46.3350  -47.8850   46.0210 O.2    92  GLY92      -0.2863
     36  N         50.5690  -48.0580   37.3220 N.3   156  ALA156     -0.1245
     37  CA        50.8550  -46.7290   36.8330 C.3   156  ALA156      0.1562
     38  C         52.2910  -46.6150   36.3280 C.2   156  ALA156      0.2260
     39  O         53.2180  -47.1990   36.9030 O.2   156  ALA156     -0.2867
     40  CB        50.6030  -45.7280   37.9350 C.3   156  ALA156      0.0290
     41  N         53.4560  -43.3810   36.0070 N.3   158  LEU158     -0.1231
     42  CA        53.9000  -42.1900   36.7410 C.3   158  LEU158      0.1693
     43  C         53.4380  -42.2370   38.1970 C.2   158  LEU158      0.2592
     44  O         52.2570  -42.0190   38.4890 O.2   158  LEU158     -0.2718
     45  CB        53.4190  -40.9040   36.0420 C.3   158  LEU158      0.0284
     46  CG        53.9970  -40.6880   34.6370 C.3   158  LEU158      0.0019
     47  CD1       53.3350  -39.5150   33.9350 C.3   158  LEU158      0.0001
     48  CD2       55.5130  -40.5070   34.6880 C.3   158  LEU158      0.0001
     49  N         54.3800  -42.5460   39.0900 N.am  159  PHE159     -0.1976
     50  CA        54.1860  -42.4310   40.5440 C.3   159  PHE159      0.1639
     51  C         53.6830  -41.0390   40.9170 C.2   159  PHE159      0.2290
     52  O         52.7480  -40.9230   41.7010 O.2   159  PHE159     -0.2864
     53  CB        55.5020  -42.7100   41.2840 C.3   159  PHE159      0.0560
     54  CG        55.3620  -42.7450   42.7830 C.ar  159  PHE159     -0.0200
     55  CD1       55.0310  -43.9340   43.4420 C.ar  159  PHE159     -0.0042
     56  CD2       55.5670  -41.5950   43.5420 C.ar  159  PHE159     -0.0042
     57  CE1       54.8890  -43.9680   44.8420 C.ar  159  PHE159     -0.0003
     58  CE2       55.4220  -41.6150   44.9370 C.ar  159  PHE159     -0.0003
     59  CZ        55.0840  -42.8060   45.5880 C.ar  159  PHE159     -0.0000
     60  N         42.6940  -40.8160   39.7980 N.3   167  PHE167     -0.1241
     61  CA        42.3810  -41.5400   41.0360 C.3   167  PHE167      0.1605
     62  C         40.8700  -41.6540   41.2930 C.2   167  PHE167      0.2264
     63  O         40.4000  -42.7050   41.7400 O.2   167  PHE167     -0.2867
     64  CB        43.1260  -40.9440   42.2430 C.3   167  PHE167      0.0534
     65  CG        44.6410  -40.9440   42.0860 C.ar  167  PHE167     -0.0203
     66  CD1       45.3590  -42.1460   42.0580 C.ar  167  PHE167     -0.0042
     67  CD2       45.3480  -39.7410   41.9330 C.ar  167  PHE167     -0.0042
     68  CE1       46.7440  -42.1490   41.9110 C.ar  167  PHE167     -0.0003
     69  CE2       46.7390  -39.7410   41.7800 C.ar  167  PHE167     -0.0003
     70  CZ        47.4360  -40.9520   41.7710 C.ar  167  PHE167     -0.0000
     71  N         46.8830  -49.2020   43.7160 N.3   178  VAL178     -0.1231
     72  CA        47.6950  -48.6080   42.6910 C.3   178  VAL178      0.1692
     73  C         49.1520  -48.9810   42.9720 C.2   178  VAL178      0.2592
     74  O         49.6700  -48.7110   44.0440 O.2   178  VAL178     -0.2718
     75  CB        47.5450  -47.0820   42.6850 C.3   178  VAL178      0.0266
     76  CG1       48.2750  -46.4870   41.4830 C.3   178  VAL178      0.0020
     77  CG2       46.0730  -46.6990   42.6440 C.3   178  VAL178      0.0020
     78  N         49.7910  -49.6160   41.9910 N.am  179  GLU179     -0.1966
     79  CA        51.2020  -49.9600   42.0540 C.3   179  GLU179      0.1733
     80  C         51.7910  -49.7020   40.6730 C.2   179  GLU179      0.2616
     81  O         51.2410  -48.8700   39.9510 O.2   179  GLU179     -0.2715
     82  CB        51.3830  -51.3820   42.5890 C.3   179  GLU179      0.0429
     83  CG        50.4610  -52.4500   42.0260 C.3   179  GLU179      0.1163
     84  CD        50.9130  -52.9490   40.6730 C.2   179  GLU179      0.3649
     85  OE1       51.8490  -53.7760   40.6170 O.co2 179  GLU179     -0.2457
     86  OE2       50.3450  -52.4920   39.6540 O.co2 179  GLU179     -0.2457
     87  N         52.9010  -50.3420   40.2920 N.am  180  MET180     -0.1963
     88  CA        53.6120  -49.9560   39.0580 C.3   180  MET180      0.1736
     89  C         54.1110  -51.1020   38.1850 C.2   180  MET180      0.2616
     90  O         54.9850  -50.8920   37.3610 O.2   180  MET180     -0.2715
     91  CB        54.7930  -49.0610   39.4320 C.3   180  MET180      0.0427
     92  CG        54.3930  -47.7920   40.1560 C.3   180  MET180      0.0599
     93  SD        55.7740  -46.6620   40.4070 S.3   180  MET180     -0.1393
     94  CE        56.2430  -46.1990   38.7550 C.3   180  MET180      0.0692
     95  N         53.5620  -52.3030   38.3440 N.am  181  GLU181     -0.1977
     96  CA        54.1610  -53.5040   37.7360 C.3   181  GLU181      0.1602
     97  C         53.2200  -54.5790   37.2030 C.2   181  GLU181      0.2287
     98  O         53.4880  -55.1430   36.1490 O.2   181  GLU181     -0.2864
     99  CB        55.1170  -54.1610   38.7380 C.3   181  GLU181      0.0415
    100  CG        56.3420  -53.3320   39.0670 C.3   181  GLU181      0.1163
    101  CD        56.1930  -52.3600   40.2320 C.2   181  GLU181      0.3649
    102  OE1       57.1360  -51.5570   40.4090 O.co2 181  GLU181     -0.2457
    103  OE2       55.1740  -52.3700   40.9570 O.co2 181  GLU181     -0.2457
    104  N         50.0120  -49.5840   51.4790 N.3   203  SER203     -0.1202
    105  CA        50.9930  -48.7790   52.2150 C.3   203  SER203      0.2020
    106  C         50.5220  -47.3610   52.4480 C.2   203  SER203      0.2618
    107  O         51.1220  -46.6280   53.2120 O.2   203  SER203     -0.2717
    108  CB        52.3230  -48.7480   51.4680 C.3   203  SER203      0.2103
    109  OG        53.0400  -49.9320   51.7470 O.3   203  SER203     -0.2182
    110  N         49.4500  -46.9760   51.7850 N.am  204  ASP204     -0.1973
    111  CA        49.1050  -45.5800   51.6640 C.3   204  ASP204      0.1709
    112  C         47.6450  -45.5260   51.2340 C.2   204  ASP204      0.2293
    113  O         47.1360  -46.4530   50.5890 O.2   204  ASP204     -0.2864
    114  CB        50.0250  -44.9140   50.6150 C.3   204  ASP204      0.1436
    115  CG        50.2420  -43.4280   50.8600 C.2   204  ASP204      0.3671
    116  OD1       50.6800  -43.0490   51.9790 O.co2 204  ASP204     -0.2456
    117  OD2       50.0050  -42.6460   49.9040 O.co2 204  ASP204     -0.2456
    118  N         45.7080  -42.8000   49.1740 N.3   206  ILE206     -0.1245
    119  CA        45.9270  -41.5830   48.3890 C.3   206  ILE206      0.1561
    120  C         44.7100  -40.6780   48.6490 C.2   206  ILE206      0.2260
    121  O         44.8530  -39.4620   48.8040 O.2   206  ILE206     -0.2867
    122  CB        46.1450  -41.8720   46.8730 C.3   206  ILE206      0.0252
    123  CG1       47.2030  -42.9710   46.6410 C.3   206  ILE206      0.0019
    124  CG2       46.5810  -40.5980   46.1440 C.3   206  ILE206      0.0019
    125  CD1       47.3580  -43.3700   45.1890 C.3   206  ILE206      0.0001
@<TRIPOS>BOND
     1    47    46    1
     2    46    48    1
     3    46    45    1
     4    41    42    1
     5    45    42    1
     6    98    97    2
     7    38    37    1
     8    38    39    2
     9    42    43    1
    10    37    36    1
    11    37    40    1
    12    97    96    1
    13    90    89    2
    14    96    95    1
    15    96    99    1
    16     4     3    2
    17    89    95   am
    18    89    88    1
    19    43    44    2
    20    43    49   am
    21     3     2    1
    22    99   100    1
    23    94    93    1
    24    88    91    1
    25    88    87    1
    26   100   101    1
    27    49    50    1
    28    91    92    1
    29    86    84   ar
    30    60    61    1
    31    81    80    2
    32     2     1    1
    33     2     5    1
    34    92    93    1
    35   101   102   ar
    36   101   103   ar
    37    87    80   am
    38    50    51    1
    39    50    53    1
    40    85    84   ar
    41    80    79    1
    42    84    83    1
    43     5     6    1
    44    51    52    2
    45    61    62    1
    46    61    64    1
    47    53    54    1
    48    62    63    2
    49    76    75    1
    50    15    16    1
    51    15    14    1
    52    70    69   ar
    53    70    68   ar
    54    69    67   ar
    55    13    14    1
    56    13    10    1
    57    68    66   ar
    58    67    65   ar
    59    78    79    1
    60    78    73   am
    61    83    82    1
    62    79    82    1
    63    66    65   ar
    64    65    64    1
    65    16    17    2
    66     6     7    1
    67     9    10    1
    68     8     7    1
    69    77    75    1
    70    75    72    1
    71    72    73    1
    72    72    71    1
    73    54    55   ar
    74    54    56   ar
    75    10    11    1
    76    73    74    2
    77    17    18    1
    78    17    19    1
    79    55    57   ar
    80    56    58   ar
    81    11    12    2
    82    57    59   ar
    83    58    59   ar
    84   125   123    1
    85    23    22    2
    86    30    27    1
    87    30    31    1
    88    35    34    2
    89   124   122    1
    90   123   122    1
    91    27    28    1
    92    27    26    1
    93    32    33    1
    94    32    28   am
    95   122   119    1
    96    34    33    1
    97    22    26   am
    98    22    21    1
    99    20    21    1
   100    28    29    2
   101    25    24    1
   102    21    24    1
   103   119   120    1
   104   119   118    1
   105   120   121    2
   106   117   115   ar
   107   113   112    2
   108   114   115    1
   109   114   111    1
   110   115   116   ar
   111   112   111    1
   112   108   109    1
   113   108   105    1
   114   104   105    1
   115   111   110    1
   116   110   106   am
   117   105   106    1
   118   106   107    2
