@<TRIPOS>MOLECULE
tmp/5i3mD00.pdb
 160 159 0 0 0
SMALL
GASTEIGER

@<TRIPOS>ATOM
      1  N        -19.2200   20.8880   42.1990 N.3    69  ASP69      -0.1239
      2  CA       -18.2440   21.6880   42.9730 C.3    69  ASP69       0.1674
      3  C        -18.6170   22.0050   44.4230 C.2    69  ASP69       0.2266
      4  O        -18.0880   22.9940   45.0200 O.2    69  ASP69      -0.2867
      5  CB       -18.0080   23.0270   42.2600 C.3    69  ASP69       0.1410
      6  CG       -19.2120   23.9110   42.2820 C.2    69  ASP69       0.3668
      7  OD1      -20.3230   23.4400   42.6880 O.co2  69  ASP69      -0.2456
      8  OD2      -19.0710   25.0930   41.8780 O.co2  69  ASP69      -0.2456
      9  N        -21.2900   27.9930   43.6870 N.3    73  GLY73      -0.1210
     10  CA       -20.5540   27.9900   42.4620 C.3    73  GLY73       0.1956
     11  C        -21.4470   27.5130   41.2990 C.2    73  GLY73       0.2612
     12  O        -22.4620   28.1640   40.9190 O.2    73  GLY73      -0.2717
     13  N        -21.1030   26.3330   40.7680 N.am   74  ILE74      -0.1965
     14  CA       -21.8530   25.7100   39.6620 C.3    74  ILE74       0.1727
     15  C        -23.0890   25.0080   40.1910 C.2    74  ILE74       0.2616
     16  O        -22.9630   23.9670   40.8900 O.2    74  ILE74      -0.2715
     17  CB       -21.0640   24.5920   38.9290 C.3    74  ILE74       0.0290
     18  CG1      -19.6860   25.0960   38.4760 C.3    74  ILE74       0.0022
     19  CG2      -21.9500   24.0300   37.8170 C.3    74  ILE74       0.0023
     20  CD1      -19.7310   26.4760   37.8530 C.3    74  ILE74       0.0001
     21  N        -24.2470   25.4920   39.7450 N.am   75  LEU75      -0.1963
     22  CA       -25.5080   24.8930   40.1500 C.3    75  LEU75       0.1728
     23  C        -25.9500   23.6350   39.3870 C.2    75  LEU75       0.2616
     24  O        -26.7330   22.8660   39.9300 O.2    75  LEU75      -0.2715
     25  CB       -26.6060   25.9330   40.0070 C.3    75  LEU75       0.0311
     26  CG       -26.4480   27.2590   40.6800 C.3    75  LEU75       0.0022
     27  CD1      -27.7290   28.0030   40.3850 C.3    75  LEU75       0.0001
     28  CD2      -26.2090   27.0460   42.1620 C.3    75  LEU75       0.0001
     29  N        -25.5490   23.5390   38.1080 N.am   76  ALA76      -0.1963
     30  CA       -26.1300   22.6370   37.1500 C.3    76  ALA76       0.1728
     31  C        -25.4450   22.8240   35.8490 C.2    76  ALA76       0.2616
     32  O        -24.9020   23.9050   35.5830 O.2    76  ALA76      -0.2715
     33  CB       -27.6180   22.9060   36.9110 C.3    76  ALA76       0.0334
     34  N        -25.5930   21.8280   34.9740 N.am   77  HIS77      -0.1959
     35  CA       -25.1710   22.0300   33.6080 C.3    77  HIS77       0.1787
     36  C        -25.8290   21.0960   32.6320 C.2    77  HIS77       0.2620
     37  O        -26.5200   20.1630   33.0330 O.2    77  HIS77      -0.2715
     38  CB       -23.6330   21.9020   33.5980 C.3    77  HIS77       0.0785
     39  CG       -23.0940   20.6080   34.0820 C.ar   77  HIS77       0.0821
     40  ND1      -23.8000   19.4340   34.0150 N.ar   77  HIS77      -0.2267
     41  CD2      -21.8640   20.2810   34.4910 C.ar   77  HIS77       0.1154
     42  CE1      -23.0230   18.4350   34.3640 C.ar   77  HIS77       0.1986
     43  NE2      -21.8310   18.9200   34.6330 N.ar   77  HIS77      -0.2212
     44  N        -25.6520   21.3640   31.3440 N.am   78  ALA78      -0.1977
     45  CA       -26.4520   20.7410   30.2980 C.3    78  ALA78       0.1597
     46  C        -25.6440   20.6340   29.0420 C.2    78  ALA78       0.2287
     47  O        -24.8350   21.5340   28.7220 O.2    78  ALA78      -0.2864
     48  CB       -27.7300   21.5460   30.0280 C.3    78  ALA78       0.0319
     49  N        -36.6770   27.5660   37.5340 N.3   108  LEU108     -0.1231
     50  CA       -35.8400   28.5790   36.8500 C.3   108  LEU108      0.1693
     51  C        -34.4890   28.0540   36.3100 C.2   108  LEU108      0.2592
     52  O        -34.0920   28.3310   35.1730 O.2   108  LEU108     -0.2718
     53  CB       -35.6060   29.7760   37.7760 C.3   108  LEU108      0.0284
     54  CG       -36.8020   30.6940   38.1400 C.3   108  LEU108      0.0019
     55  CD1      -36.3170   31.8670   38.9760 C.3   108  LEU108      0.0001
     56  CD2      -37.5610   31.2140   36.9360 C.3   108  LEU108      0.0001
     57  N        -33.8230   27.2410   37.1040 N.am  109  THR109     -0.1953
     58  CA       -32.6110   26.6100   36.6660 C.3   109  THR109      0.1897
     59  C        -32.8720   25.6380   35.5480 C.2   109  THR109      0.2313
     60  O        -32.1470   25.6190   34.6020 O.2   109  THR109     -0.2863
     61  CB       -31.9930   25.8740   37.8090 C.3   109  THR109      0.1794
     62  OG1      -31.8350   26.8020   38.8690 O.3   109  THR109     -0.2208
     63  CG2      -30.6610   25.2100   37.4110 C.3   109  THR109      0.0378
     64  N        -33.5410   27.3730   32.1020 N.3   112  HIS112     -0.1226
     65  CA       -32.1700   27.7180   31.5770 C.3   112  HIS112      0.1752
     66  C        -31.3840   26.5490   30.9980 C.2   112  HIS112      0.2595
     67  O        -30.8330   26.6430   29.8740 O.2   112  HIS112     -0.2718
     68  CB       -31.4030   28.3050   32.7210 C.3   112  HIS112      0.0759
     69  CG       -30.0390   28.7920   32.3850 C.ar  112  HIS112      0.0818
     70  ND1      -29.7840   30.0960   32.0370 N.ar  112  HIS112     -0.2268
     71  CD2      -28.8400   28.1810   32.4520 C.ar  112  HIS112      0.1154
     72  CE1      -28.4980   30.2510   31.8230 C.ar  112  HIS112      0.1986
     73  NE2      -27.9020   29.1070   32.0800 N.ar  112  HIS112     -0.2212
     74  N        -31.3140   25.4510   31.7660 N.am  113  GLN113     -0.1979
     75  CA       -30.6120   24.2290   31.3280 C.3   113  GLN113      0.1601
     76  C        -31.2270   23.5800   30.0630 C.2   113  GLN113      0.2287
     77  O        -30.5190   23.1650   29.1440 O.2   113  GLN113     -0.2864
     78  CB       -30.5600   23.2060   32.4370 C.3   113  GLN113      0.0394
     79  CG       -29.6970   23.5670   33.6170 C.3   113  GLN113      0.0908
     80  CD       -28.2930   23.9270   33.2090 C.2   113  GLN113      0.2608
     81  OE1      -27.6560   23.1810   32.4780 O.2   113  GLN113     -0.2717
     82  NE2      -27.8300   25.1140   33.6100 N.am  113  GLN113     -0.0878
     83  N        -29.9650   25.3310   26.9530 N.3   116  HIS116     -0.1241
     84  CA       -28.7400   24.6850   26.5160 C.3   116  HIS116      0.1621
     85  C        -28.9450   23.2600   25.9500 C.2   116  HIS116      0.2264
     86  O        -28.3150   22.9220   24.9470 O.2   116  HIS116     -0.2867
     87  CB       -27.7550   24.6110   27.6690 C.3   116  HIS116      0.0745
     88  CG       -27.2280   25.9330   28.1090 C.ar  116  HIS116      0.0817
     89  ND1      -26.9200   26.9480   27.2300 N.ar  116  HIS116     -0.2268
     90  CD2      -26.8480   26.3660   29.3230 C.ar  116  HIS116      0.1154
     91  CE1      -26.4300   27.9710   27.9020 C.ar  116  HIS116      0.1986
     92  NE2      -26.3890   27.6460   29.1670 N.ar  116  HIS116     -0.2212
     93  N        -25.7030   31.7160   25.6890 N.3   122  HIS122     -0.1241
     94  CA       -26.1470   32.7070   26.6680 C.3   122  HIS122      0.1621
     95  C        -26.5500   34.0180   26.0280 C.2   122  HIS122      0.2264
     96  O        -26.0920   34.3570   24.9480 O.2   122  HIS122     -0.2867
     97  CB       -25.0460   32.9950   27.6710 C.3   122  HIS122      0.0745
     98  CG       -24.8070   31.8950   28.6540 C.ar  122  HIS122      0.0817
     99  ND1      -23.5390   31.5210   29.0430 N.ar  122  HIS122     -0.2268
    100  CD2      -25.6610   31.0790   29.3200 C.ar  122  HIS122      0.1154
    101  CE1      -23.6190   30.5530   29.9300 C.ar  122  HIS122      0.1986
    102  NE2      -24.8920   30.2660   30.1120 N.ar  122  HIS122     -0.2212
    103  N        -33.2450   37.9850   30.5470 N.3   128  ALA128     -0.1231
    104  CA       -33.3390   36.6890   29.8780 C.3   128  ALA128      0.1694
    105  C        -33.1500   35.4950   30.8110 C.2   128  ALA128      0.2591
    106  O        -32.3230   35.5120   31.7220 O.2   128  ALA128     -0.2718
    107  CB       -32.3650   36.6030   28.7090 C.3   128  ALA128      0.0304
    108  N        -33.9040   34.4330   30.5490 N.am  129  VAL129     -0.1980
    109  CA       -33.7230   33.1880   31.3100 C.3   129  VAL129      0.1595
    110  C        -32.3650   32.5920   30.9250 C.2   129  VAL129      0.2287
    111  O        -31.7150   31.9800   31.7880 O.2   129  VAL129     -0.2864
    112  CB       -34.8950   32.1810   31.1760 C.3   129  VAL129      0.0276
    113  CG1      -34.8420   31.4310   29.8560 C.3   129  VAL129      0.0022
    114  CG2      -34.8580   31.1900   32.3350 C.3   129  VAL129      0.0022
    115  N        -29.5950   34.4610   30.3750 N.3   131  PHE131     -0.1228
    116  CA       -28.5450   35.0960   31.1650 C.3   131  PHE131      0.1721
    117  C        -27.6780   34.0760   31.8940 C.2   131  PHE131      0.2437
    118  O        -28.2090   33.0770   32.3690 O.2   131  PHE131     -0.2733
    119  CB       -29.1290   36.0510   32.2220 C.3   131  PHE131      0.0547
    120  CG       -28.2540   37.2480   32.5000 C.ar  131  PHE131     -0.0202
    121  CD1      -27.8600   38.0840   31.4600 C.ar  131  PHE131     -0.0042
    122  CD2      -27.8570   37.5470   33.7860 C.ar  131  PHE131     -0.0042
    123  CE1      -27.0870   39.2090   31.7170 C.ar  131  PHE131     -0.0003
    124  CE2      -27.0830   38.6710   34.0540 C.ar  131  PHE131     -0.0003
    125  CZ       -26.6800   39.4900   33.0200 C.ar  131  PHE131     -0.0000
    126  N        -26.3500   34.3120   31.9710 N.am  132  PRO132     -0.2718
    127  CA       -25.4620   33.3400   32.6100 C.3   132  PRO132      0.1535
    128  C        -25.4210   33.3260   34.1650 C.2   132  PRO132      0.2599
    129  O        -24.7360   32.4930   34.7330 O.2   132  PRO132     -0.2715
    130  CB       -24.0800   33.7120   32.0440 C.3   132  PRO132      0.0310
    131  CG       -24.3000   34.7880   31.0290 C.3   132  PRO132      0.0237
    132  CD       -25.5690   35.4370   31.4250 C.3   132  PRO132      0.0939
    133  N        -26.1800   34.1830   34.8440 N.am  133  THR133     -0.1937
    134  CA       -26.1110   34.3150   36.3180 C.3   133  THR133      0.2028
    135  C        -27.4750   33.9350   36.9060 C.2   133  THR133      0.2642
    136  O        -28.4890   34.3730   36.4140 O.2   133  THR133     -0.2714
    137  CB       -25.6860   35.7730   36.6880 C.3   133  THR133      0.1808
    138  OG1      -24.3120   35.9790   36.3060 O.3   133  THR133     -0.2208
    139  CG2      -25.8790   36.1030   38.2020 C.3   133  THR133      0.0379
    140  N        -27.4880   33.1060   37.9410 N.am  134  TYR134     -0.1959
    141  CA       -28.7410   32.7560   38.6260 C.3   134  TYR134      0.1771
    142  C        -29.1660   33.9360   39.5240 C.2   134  TYR134      0.2619
    143  O        -28.3430   34.5100   40.1770 O.2   134  TYR134     -0.2715
    144  CB       -28.6340   31.4560   39.4690 C.3   134  TYR134      0.0574
    145  CG       -29.8610   31.2690   40.3010 C.ar  134  TYR134     -0.0198
    146  CD1      -31.0750   30.8950   39.7050 C.ar  134  TYR134     -0.0009
    147  CD2      -29.8690   31.6060   41.6450 C.ar  134  TYR134     -0.0009
    148  CE1      -32.2410   30.8140   40.4190 C.ar  134  TYR134      0.0417
    149  CE2      -31.0410   31.4990   42.3790 C.ar  134  TYR134      0.0417
    150  CZ       -32.2090   31.0660   41.7600 C.ar  134  TYR134      0.1957
    151  OH       -33.3540   30.9250   42.5020 O.3   134  TYR134     -0.2866
    152  N        -30.4570   34.2510   39.5040 N.am  135  LYS135     -0.1977
    153  CA       -31.1050   35.3200   40.2600 C.3   135  LYS135      0.1596
    154  C        -32.5370   34.8530   40.4670 C.2   135  LYS135      0.2287
    155  O        -33.1960   34.4910   39.5150 O.2   135  LYS135     -0.2864
    156  CB       -31.0310   36.6350   39.4260 C.3   135  LYS135      0.0298
    157  CG       -32.1080   37.7180   39.6020 C.3   135  LYS135      0.0038
    158  CD       -31.7930   38.7240   40.7010 C.3   135  LYS135      0.0206
    159  CE       -33.0000   39.6100   41.0010 C.3   135  LYS135      0.1093
    160  NZ       -34.1190   38.9360   41.7350 N.3   135  LYS135     -0.1314
@<TRIPOS>BOND
     1    86    85    2
     2    96    95    2
     3    93    94    1
     4    85    84    1
     5    95    94    1
     6    84    83    1
     7    84    87    1
     8    94    97    1
     9    89    91   ar
    10    89    88   ar
    11    87    88    1
    12    97    98    1
    13    91    92   ar
    14    88    90   ar
    15    98    99   ar
    16    98   100   ar
    17   107   104    1
    18    47    46    2
    19    46    45    1
    20    99   101   ar
    21    77    76    2
    22    92    90   ar
    23   100   102   ar
    24   113   112    1
    25    67    66    2
    26   104   103    1
    27   104   105    1
    28   101   102   ar
    29    48    45    1
    30    76    75    1
    31    45    44    1
    32   115   116    1
    33   108   105   am
    34   108   109    1
    35   105   106    2
    36   110   109    1
    37   110   111    2
    38    66    65    1
    39    66    74   am
    40   131   132    1
    41   131   130    1
    42   116   117    1
    43   116   119    1
    44   112   109    1
    45   112   114    1
    46    75    74    1
    47    75    78    1
    48    44    36   am
    49   132   126    1
    50   121   123   ar
    51   121   120   ar
    52    65    64    1
    53    65    68    1
    54   123   125   ar
    55    72    70   ar
    56    72    73   ar
    57   117   126   am
    58   117   118    2
    59   126   127    1
    60    70    69   ar
    61   130   127    1
    62    73    71   ar
    63   119   120    1
    64    69    71   ar
    65    69    68    1
    66    78    79    1
    67    81    80    2
    68   120   122   ar
    69   127   128    1
    70    36    37    2
    71    36    35    1
    72   125   124   ar
    73    80    82   am
    74    80    79    1
    75    38    35    1
    76    38    39    1
    77    35    34    1
    78   122   124   ar
    79    40    39   ar
    80    40    42   ar
    81    39    41   ar
    82   128   129    2
    83   128   133   am
    84    42    43   ar
    85    41    43   ar
    86    60    59    2
    87   133   134    1
    88    34    31   am
    89    52    51    2
    90    59    58    1
    91    32    31    2
    92    31    30    1
    93   138   137    1
    94    51    50    1
    95    51    57   am
    96   134   137    1
    97   134   135    1
    98   136   135    2
    99    58    57    1
   100    58    61    1
   101   137   139    1
   102    50    49    1
   103    50    53    1
   104   135   140   am
   105    33    30    1
   106    56    54    1
   107    30    29    1
   108    63    61    1
   109    53    54    1
   110    61    62    1
   111    19    17    1
   112    20    18    1
   113   140   141    1
   114    29    23   am
   115    54    55    1
   116    18    17    1
   117   141   144    1
   118   141   142    1
   119    17    14    1
   120    23    24    2
   121    23    22    1
   122   156   157    1
   123   156   153    1
   124   144   145    1
   125   152   142   am
   126   152   153    1
   127   155   154    2
   128   142   143    2
   129   157   158    1
   130    14    15    1
   131    14    13    1
   132   146   145   ar
   133   146   148   ar
   134    21    22    1
   135    21    15   am
   136    25    22    1
   137    25    26    1
   138    15    16    2
   139   153   154    1
   140   145   147   ar
   141    27    26    1
   142   148   150   ar
   143    26    28    1
   144   158   159    1
   145    13    11   am
   146    12    11    2
   147   159   160    1
   148    11    10    1
   149   147   149   ar
   150   150   149   ar
   151   150   151    1
   152     8     6   ar
   153     1     2    1
   154     5     6    1
   155     5     2    1
   156     6     7   ar
   157    10     9    1
   158     2     3    1
   159     3     4    2
