@<TRIPOS>MOLECULE
tmp/5i3pA00.pdb
 188 186 0 0 0
SMALL
GASTEIGER

@<TRIPOS>ATOM
      1  N         19.2220   55.4620    6.0040 N.3   213  LEU213     -0.1231
      2  CA        17.7900   55.5880    6.2540 C.3   213  LEU213      0.1693
      3  C         16.9020   54.8090    5.2830 C.2   213  LEU213      0.2592
      4  O         16.0340   54.0580    5.7450 O.2   213  LEU213     -0.2718
      5  CB        17.3590   57.0520    6.3160 C.3   213  LEU213      0.0284
      6  CG        15.9080   57.3100    6.6760 C.3   213  LEU213      0.0019
      7  CD1       15.5600   56.7390    8.0680 C.3   213  LEU213      0.0001
      8  CD2       15.5670   58.7600    6.5270 C.3   213  LEU213      0.0001
      9  N         17.1470   54.9350    3.9620 N.am  214  HIS214     -0.1976
     10  CA        16.3430   54.2750    2.9240 C.3   214  HIS214      0.1656
     11  C         16.3260   52.7430    3.0190 C.2   214  HIS214      0.2291
     12  O         15.4510   52.1300    2.4290 O.2   214  HIS214     -0.2864
     13  CB        16.7700   54.7400    1.5140 C.3   214  HIS214      0.0771
     14  CG        18.1990   54.4520    1.1900 C.ar  214  HIS214      0.0820
     15  ND1       19.2340   55.1170    1.8360 N.ar  214  HIS214     -0.2267
     16  CD2       18.7240   53.5560    0.3280 C.ar  214  HIS214      0.1154
     17  CE1       20.3530   54.6020    1.3510 C.ar  214  HIS214      0.1986
     18  NE2       20.0970   53.6530    0.4460 N.ar  214  HIS214     -0.2212
     19  N         16.7260   51.0910    6.3320 N.3   216  LEU216     -0.1245
     20  CA        16.2960   50.6530    7.6810 C.3   216  LEU216      0.1561
     21  C         14.8980   50.0380    7.6750 C.2   216  LEU216      0.2260
     22  O         14.6790   49.0270    8.3410 O.2   216  LEU216     -0.2867
     23  CB        16.4360   51.7460    8.7830 C.3   216  LEU216      0.0270
     24  CG        17.8020   52.5050    8.8960 C.3   216  LEU216      0.0019
     25  CD1       17.7420   53.5970    9.9390 C.3   216  LEU216      0.0001
     26  CD2       18.9700   51.5850    9.1430 C.3   216  LEU216      0.0001
     27  N         19.3400   52.9870   20.0120 N.3   366  ASP366     -0.1239
     28  CA        18.1300   52.6340   19.2700 C.3   366  ASP366      0.1674
     29  C         18.1030   51.1370   18.9960 C.2   366  ASP366      0.2266
     30  O         19.0790   50.5930   18.5010 O.2   366  ASP366     -0.2867
     31  CB        18.0450   53.4200   17.9670 C.3   366  ASP366      0.1410
     32  CG        17.2440   54.6950   18.0440 C.2   366  ASP366      0.3668
     33  OD1       15.9810   54.6080   18.0760 O.co2 366  ASP366     -0.2456
     34  OD2       17.8560   55.7780   17.9400 O.co2 366  ASP366     -0.2456
     35  N         15.0610   55.0050   15.0320 N.3   411  CYS411     -0.1221
     36  CA        15.9010   56.1360   14.6180 C.3   411  CYS411      0.1808
     37  C         15.0870   57.3960   14.2550 C.2   411  CYS411      0.2602
     38  O         15.4020   58.0890   13.2720 O.2   411  CYS411     -0.2717
     39  CB        16.8600   55.7400   13.4980 C.3   411  CYS411      0.0970
     40  SG        17.9470   54.3490   13.8890 S.3   411  CYS411     -0.0800
     41  N         14.0430   57.6930   15.0730 N.am  412  SER412     -0.1938
     42  CA        13.1830   58.8730   14.9460 C.3   412  SER412      0.2055
     43  C         12.2820   58.7870   13.7330 C.2   412  SER412      0.2643
     44  O         11.7290   59.8040   13.3160 O.2   412  SER412     -0.2714
     45  CB        14.0190   60.1640   14.9330 C.3   412  SER412      0.2130
     46  OG        14.7790   60.3550   16.1180 O.3   412  SER412     -0.2179
     47  N         12.1220   57.5740   13.1620 N.am  413  HIS413     -0.1973
     48  CA        11.2790   57.3440   12.0050 C.3   413  HIS413      0.1656
     49  C         10.4060   56.1090   12.2070 C.2   413  HIS413      0.2291
     50  O         10.6600   55.2810   13.0850 O.2   413  HIS413     -0.2864
     51  CB        12.1680   57.1120   10.7430 C.3   413  HIS413      0.0771
     52  CG        12.8840   58.3260   10.2470 C.ar  413  HIS413      0.0820
     53  ND1       14.0210   58.8060   10.8770 N.ar  413  HIS413     -0.2267
     54  CD2       12.6020   59.1250    9.1970 C.ar  413  HIS413      0.1154
     55  CE1       14.3930   59.8770   10.1960 C.ar  413  HIS413      0.1986
     56  NE2       13.5570   60.1220    9.1930 N.ar  413  HIS413     -0.2212
     57  N          8.6610   60.4720    9.2490 N.3   431  ARG431     -0.1245
     58  CA         8.6880   61.0970   10.5620 C.3   431  ARG431      0.1563
     59  C          7.6630   62.2790   10.5870 C.2   431  ARG431      0.2260
     60  O          7.2710   62.7200    9.4970 O.2   431  ARG431     -0.2867
     61  CB        10.1240   61.4920   10.9720 C.3   431  ARG431      0.0307
     62  CG        10.6310   62.8260   10.4720 C.3   431  ARG431      0.0489
     63  CD        12.0900   62.9790   10.8380 C.3   431  ARG431      0.2205
     64  NE        12.2880   63.3570   12.2380 N.pl3 431  ARG431     -0.0865
     65  CZ        13.4710   63.6230   12.7840 C.cat 431  ARG431      0.5346
     66  NH1       14.5800   63.5640   12.0520 N.pl3 431  ARG431      0.1354
     67  NH2       13.5560   63.9530   14.0600 N.pl3 431  ARG431      0.1354
     68  N         13.1860   71.5460   11.1580 N.3   439  ARG439     -0.1245
     69  CA        14.6270   71.3860   10.9350 C.3   439  ARG439      0.1563
     70  C         15.1500   72.1920    9.7270 C.2   439  ARG439      0.2260
     71  O         16.1680   72.8660    9.8620 O.2   439  ARG439     -0.2867
     72  CB        15.0170   69.8920   10.8370 C.3   439  ARG439      0.0307
     73  CG        16.5340   69.6040   10.7320 C.3   439  ARG439      0.0489
     74  CD        17.3610   70.2720   11.8210 C.3   439  ARG439      0.2205
     75  NE        16.9840   69.7850   13.1520 N.pl3 439  ARG439     -0.0865
     76  CZ        17.2360   70.4220   14.2910 C.cat 439  ARG439      0.5346
     77  NH1       17.8490   71.6010   14.2800 N.pl3 439  ARG439      0.1354
     78  NH2       16.8740   69.8880   15.4520 N.pl3 439  ARG439      0.1354
     79  N         17.1330   66.7060   -0.0740 N.3   463  MET463     -0.1245
     80  CA        17.0340   65.5720    0.8600 C.3   463  MET463      0.1570
     81  C         15.5890   65.0360    0.8620 C.2   463  MET463      0.2261
     82  O         15.3800   63.8240    0.9000 O.2   463  MET463     -0.2867
     83  CB        17.3990   66.0050    2.2730 C.3   463  MET463      0.0387
     84  CG        17.3530   64.8610    3.2690 C.3   463  MET463      0.0595
     85  SD        17.7800   65.3480    4.9380 S.3   463  MET463     -0.1393
     86  CE        16.3500   66.4460    5.3240 C.3   463  MET463      0.0692
     87  N         14.3860   61.3670    0.1070 N.3   467  MET467     -0.1230
     88  CA        13.8750   60.5260    1.2000 C.3   467  MET467      0.1702
     89  C         12.4200   60.6890    1.5570 C.2   467  MET467      0.2592
     90  O         11.8210   59.7060    1.9800 O.2   467  MET467     -0.2718
     91  CB        14.7290   60.7250    2.4600 C.3   467  MET467      0.0401
     92  CG        16.1800   60.2960    2.2840 C.3   467  MET467      0.0596
     93  SD        16.2970   58.5150    2.1340 S.3   467  MET467     -0.1393
     94  CE        17.2180   58.4150    0.7340 C.3   467  MET467      0.0692
     95  N         11.8540   61.9130    1.4110 N.am  468  TYR468     -0.1976
     96  CA        10.4930   62.2430    1.8270 C.3   468  TYR468      0.1639
     97  C          9.5490   62.7600    0.6940 C.2   468  TYR468      0.2290
     98  O          8.6090   63.5180    0.9640 O.2   468  TYR468     -0.2864
     99  CB        10.5400   63.2470    2.9910 C.3   468  TYR468      0.0560
    100  CG        11.4800   62.8740    4.1200 C.ar  468  TYR468     -0.0198
    101  CD1       11.2040   61.7930    4.9610 C.ar  468  TYR468     -0.0009
    102  CD2       12.6310   63.6190    4.3680 C.ar  468  TYR468     -0.0009
    103  CE1       12.0710   61.4430    5.9960 C.ar  468  TYR468      0.0417
    104  CE2       13.5240   63.2510    5.3720 C.ar  468  TYR468      0.0417
    105  CZ        13.2200   62.1850    6.2050 C.ar  468  TYR468      0.1957
    106  OH        14.1010   61.8410    7.1860 O.3   468  TYR468     -0.2866
    107  N         22.5300   68.7650    6.0370 N.3   495  THR495     -0.1203
    108  CA        21.1330   68.7930    6.4600 C.3   495  THR495      0.1994
    109  C         20.9820   68.0410    7.7700 C.2   495  THR495      0.2619
    110  O         20.0110   68.2580    8.5100 O.2   495  THR495     -0.2717
    111  CB        20.2270   68.1760    5.4000 C.3   495  THR495      0.1784
    112  OG1       20.5340   66.7930    5.2570 O.3   495  THR495     -0.2211
    113  CG2       20.2990   68.8870    4.0860 C.3   495  THR495      0.0376
    114  N         21.9420   67.1330    8.0320 N.am  496  THR496     -0.1938
    115  CA        21.9540   66.2290    9.1800 C.3   496  THR496      0.2028
    116  C         23.3640   65.7410    9.5250 C.2   496  THR496      0.2642
    117  O         24.2610   65.7670    8.6880 O.2   496  THR496     -0.2714
    118  CB        20.9690   65.0560    8.9180 C.3   496  THR496      0.1808
    119  OG1       21.0280   64.1300    9.9920 O.3   496  THR496     -0.2208
    120  CG2       21.2570   64.3220    7.6120 C.3   496  THR496      0.0379
    121  N         23.5370   65.2720   10.7600 N.am  497  TRP497     -0.1959
    122  CA        24.7870   64.6890   11.2390 C.3   497  TRP497      0.1771
    123  C         24.6180   63.1820   11.4280 C.2   497  TRP497      0.2620
    124  O         25.5570   62.5110   11.8330 O.2   497  TRP497     -0.2715
    125  CB        25.2110   65.3490   12.5510 C.3   497  TRP497      0.0590
    126  CG        25.8150   66.6990   12.3570 C.ar  497  TRP497      0.0006
    127  CD1       25.1600   67.8960   12.3250 C.ar  497  TRP497      0.0946
    128  CD2       27.1990   66.9910   12.1230 C.ar  497  TRP497      0.0152
    129  NE1       26.0550   68.9220   12.1070 N.ar  497  TRP497     -0.2442
    130  CE2       27.3180   68.3960   11.9980 C.ar  497  TRP497      0.0810
    131  CE3       28.3640   66.2020   12.0440 C.ar  497  TRP497      0.0012
    132  CZ2       28.5530   69.0310   11.7890 C.ar  497  TRP497      0.0191
    133  CZ3       29.5860   66.8290   11.8090 C.ar  497  TRP497      0.0001
    134  CH2       29.6710   68.2270   11.6800 C.ar  497  TRP497      0.0015
    135  N         23.4260   62.6500   11.1320 N.am  498  SER498     -0.1950
    136  CA        23.1010   61.2320   11.2980 C.3   498  SER498      0.1924
    137  C         24.0600   60.2870   10.5760 C.2   498  SER498      0.2314
    138  O         24.4070   60.5330    9.4260 O.2   498  SER498     -0.2863
    139  CB        21.6600   60.9580   10.8720 C.3   498  SER498      0.2116
    140  OG        21.3960   59.5710   10.7520 O.3   498  SER498     -0.2180
    141  N         23.2270   57.5650    9.4740 N.3   500  HIS500     -0.1226
    142  CA        22.3870   56.9580    8.4540 C.3   500  HIS500      0.1752
    143  C         22.2180   57.8500    7.1990 C.2   500  HIS500      0.2596
    144  O         21.5840   57.4350    6.2310 O.2   500  HIS500     -0.2718
    145  CB        21.0370   56.5550    9.0540 C.3   500  HIS500      0.0759
    146  CG        21.1850   55.6790   10.2640 C.ar  500  HIS500      0.0818
    147  ND1       21.7410   54.3950   10.1770 N.ar  500  HIS500     -0.2268
    148  CD2       20.8970   55.9430   11.5610 C.ar  500  HIS500      0.1154
    149  CE1       21.7450   53.9350   11.4160 C.ar  500  HIS500      0.1986
    150  NE2       21.2520   54.8330   12.2770 N.ar  500  HIS500     -0.2212
    151  N         22.7930   59.0570    7.2170 N.am  501  ALA501     -0.1966
    152  CA        22.7300   59.9880    6.1030 C.3   501  ALA501      0.1728
    153  C         23.9150   59.7360    5.1590 C.2   501  ALA501      0.2616
    154  O         25.0710   59.7050    5.6060 O.2   501  ALA501     -0.2715
    155  CB        22.7680   61.4180    6.6260 C.3   501  ALA501      0.0334
    156  N         23.6420   59.5620    3.8500 N.am  502  HIS502     -0.1973
    157  CA        24.7250   59.3420    2.8930 C.3   502  HIS502      0.1656
    158  C         24.9150   60.5420    1.9850 C.2   502  HIS502      0.2291
    159  O         25.8420   60.5690    1.1860 O.2   502  HIS502     -0.2864
    160  CB        24.5530   58.0190    2.1430 C.3   502  HIS502      0.0771
    161  CG        24.7070   56.8270    3.0400 C.ar  502  HIS502      0.0820
    162  ND1       24.3530   55.5570    2.6170 N.ar  502  HIS502     -0.2267
    163  CD2       25.1610   56.7510    4.3200 C.ar  502  HIS502      0.1154
    164  CE1       24.6030   54.7560    3.6480 C.ar  502  HIS502      0.1986
    165  NE2       25.0870   55.4330    4.6950 N.ar  502  HIS502     -0.2212
    166  N         23.3010   62.0050   -0.6760 N.3   504  GLN504     -0.1231
    167  CA        23.1980   61.9310   -2.1450 C.3   504  GLN504      0.1698
    168  C         22.4720   63.1620   -2.7630 C.2   504  GLN504      0.2592
    169  O         22.4590   63.3360   -3.9800 O.2   504  GLN504     -0.2718
    170  CB        22.4850   60.6430   -2.5420 C.3   504  GLN504      0.0381
    171  CG        23.1010   59.3890   -1.9230 C.3   504  GLN504      0.0905
    172  CD        22.2850   58.8070   -0.7940 C.2   504  GLN504      0.2608
    173  OE1       22.0180   57.6100   -0.7830 O.2   504  GLN504     -0.2717
    174  NE2       21.8560   59.6190    0.1790 N.am  504  GLN504     -0.0878
    175  N         21.8630   64.0010   -1.9200 N.am  505  TRP505     -0.1976
    176  CA        21.1650   65.2290   -2.2840 C.3   505  TRP505      0.1640
    177  C         22.1370   66.4050   -2.4040 C.2   505  TRP505      0.2290
    178  O         21.7450   67.5090   -2.7910 O.2   505  TRP505     -0.2864
    179  CB        20.1090   65.5380   -1.2120 C.3   505  TRP505      0.0576
    180  CG        20.6140   65.5160    0.2000 C.ar  505  TRP505      0.0006
    181  CD1       21.1210   66.5600    0.9130 C.ar  505  TRP505      0.0946
    182  CD2       20.5520   64.4030    1.1020 C.ar  505  TRP505      0.0152
    183  NE1       21.3910   66.1630    2.2060 N.ar  505  TRP505     -0.2442
    184  CE2       21.0830   64.8330    2.3370 C.ar  505  TRP505      0.0810
    185  CE3       20.0800   63.0800    0.9880 C.ar  505  TRP505      0.0012
    186  CZ2       21.2000   63.9780    3.4360 C.ar  505  TRP505      0.0191
    187  CZ3       20.1980   62.2330    2.0780 C.ar  505  TRP505      0.0001
    188  CH2       20.7800   62.6720    3.2740 C.ar  505  TRP505      0.0015
@<TRIPOS>BOND
     1   169   168    2
     2   178   177    2
     3   168   167    1
     4   168   175   am
     5   170   167    1
     6   170   171    1
     7   177   176    1
     8   176   175    1
     9   176   179    1
    10   167   166    1
    11   171   172    1
    12   179   180    1
    13   172   173    2
    14   172   174   am
    15    79    80    1
    16    87    88    1
    17   180   181   ar
    18   180   182   ar
    19    16    18   ar
    20    16    14   ar
    21    18    17   ar
    22    97    98    2
    23    97    96    1
    24    94    93    1
    25    80    81    1
    26    80    83    1
    27    81    82    2
    28   181   183   ar
    29   185   182   ar
    30   185   187   ar
    31   182   184   ar
    32   159   158    2
    33    14    13    1
    34    14    15   ar
    35    88    89    1
    36    88    91    1
    37    17    15   ar
    38    95    89   am
    39    95    96    1
    40    13    10    1
    41    89    90    2
    42    96    99    1
    43   158   157    1
    44   187   188   ar
    45    93    92    1
    46   160   157    1
    47   160   161    1
    48   183   184   ar
    49    83    84    1
    50    92    91    1
    51   184   186   ar
    52    12    11    2
    53   162   161   ar
    54   162   164   ar
    55   157   156    1
    56    10    11    1
    57    10     9    1
    58    99   100    1
    59   161   163   ar
    60    84    85    1
    61   188   186   ar
    62   164   165   ar
    63   156   153   am
    64     9     3   am
    65   113   111    1
    66   100   102   ar
    67   100   101   ar
    68   163   165   ar
    69   102   104   ar
    70    85    86    1
    71   101   103   ar
    72   153   154    2
    73   153   152    1
    74   112   111    1
    75     3     4    2
    76     3     2    1
    77   104   105   ar
    78   111   108    1
    79   103   105   ar
    80     1     2    1
    81   107   108    1
    82   152   155    1
    83   152   151    1
    84   105   106    1
    85   144   143    2
    86     2     5    1
    87     5     6    1
    88    19    20    1
    89   108   109    1
    90     8     6    1
    91     6     7    1
    92   143   151   am
    93   143   142    1
    94   120   118    1
    95    21    20    1
    96    21    22    2
    97    20    23    1
    98   109   114   am
    99   109   110    2
   100   114   115    1
   101   142   145    1
   102   142   141    1
   103   117   116    2
   104    23    24    1
   105    24    26    1
   106    24    25    1
   107   118   115    1
   108   118   119    1
   109   145   146    1
   110   115   116    1
   111    56    54   ar
   112    56    55   ar
   113    54    52   ar
   114    57    58    1
   115   138   137    2
   116    60    59    2
   117   116   121   am
   118    70    71    2
   119    70    69    1
   120   147   146   ar
   121   147   149   ar
   122    55    53   ar
   123    52    51    1
   124    52    53   ar
   125   146   148   ar
   126    62    63    1
   127    62    61    1
   128    58    59    1
   129    58    61    1
   130   137   136    1
   131    73    72    1
   132    73    74    1
   133    51    48    1
   134   140   139    1
   135   121   122    1
   136    72    69    1
   137    63    64    1
   138   139   136    1
   139    69    68    1
   140   135   136    1
   141   135   123   am
   142   122   123    1
   143   122   125    1
   144   149   150   ar
   145   123   124    2
   146   148   150   ar
   147   134   132   ar
   148   134   133   ar
   149   132   130   ar
   150   133   131   ar
   151    74    75    1
   152   130   129   ar
   153   130   128   ar
   154    48    49    1
   155    48    47    1
   156   131   128   ar
   157    66    65    1
   158   129   127   ar
   159   128   126   ar
   160    49    50    2
   161    64    65    2
   162   127   126   ar
   163   126   125    1
   164    65    67    1
   165    75    76    2
   166    47    43   am
   167    38    37    2
   168    44    43    2
   169    39    40    1
   170    39    36    1
   171    43    42    1
   172    37    36    1
   173    37    41   am
   174    77    76    1
   175    76    78    1
   176    36    35    1
   177    45    42    1
   178    45    46    1
   179    42    41    1
   180    34    32   ar
   181    31    32    1
   182    31    28    1
   183    32    33   ar
   184    30    29    2
   185    29    28    1
   186    28    27    1
