@<TRIPOS>MOLECULE
tmp/5i40A00.pdb
 91 89 0 0 0
SMALL
GASTEIGER

@<TRIPOS>ATOM
      1  N        -16.5900    6.6750    2.3550 N.3    23  PHE23      -0.1227
      2  CA       -16.9360    6.4540    3.7560 C.3    23  PHE23       0.1736
      3  C        -17.3400    5.0050    4.0170 C.2    23  PHE23       0.2595
      4  O        -17.2100    4.5220    5.1500 O.2    23  PHE23      -0.2718
      5  CB       -18.0820    7.3720    4.1770 C.3    23  PHE23       0.0547
      6  CG       -17.7510    8.8420    4.1320 C.ar   23  PHE23      -0.0202
      7  CD1      -16.5240    9.3250    4.5700 C.ar   23  PHE23      -0.0042
      8  CD2      -18.6890    9.7460    3.6640 C.ar   23  PHE23      -0.0042
      9  CE1      -16.2450   10.6880    4.5320 C.ar   23  PHE23      -0.0003
     10  CE2      -18.4150   11.1030    3.6300 C.ar   23  PHE23      -0.0003
     11  CZ       -17.1920   11.5720    4.0610 C.ar   23  PHE23      -0.0000
     12  N        -17.8580    4.3150    3.0000 N.am   24  PHE24      -0.1976
     13  CA       -18.3340    2.9410    3.1050 C.3    24  PHE24       0.1639
     14  C        -17.4000    1.9550    2.4150 C.2    24  PHE24       0.2290
     15  O        -17.7540    0.7820    2.2490 O.2    24  PHE24      -0.2864
     16  CB       -19.7630    2.8390    2.5570 C.3    24  PHE24       0.0560
     17  CG       -20.7630    3.5970    3.3810 C.ar   24  PHE24      -0.0200
     18  CD1      -21.2190    3.0690    4.5780 C.ar   24  PHE24      -0.0042
     19  CD2      -21.2290    4.8400    2.9840 C.ar   24  PHE24      -0.0042
     20  CE1      -22.1240    3.7570    5.3580 C.ar   24  PHE24      -0.0003
     21  CE2      -22.1420    5.5320    3.7630 C.ar   24  PHE24      -0.0003
     22  CZ       -22.5870    4.9900    4.9520 C.ar   24  PHE24      -0.0000
     23  N        -15.4960   -0.1910    9.1370 N.3    28  VAL28      -0.1245
     24  CA       -15.3330    0.8670   10.1340 C.3    28  VAL28       0.1561
     25  C        -14.4490    0.3590   11.2660 C.2    28  VAL28       0.2260
     26  O        -14.7220   -0.6880   11.8670 O.2    28  VAL28      -0.2867
     27  CB       -16.6940    1.3110   10.6940 C.3    28  VAL28       0.0252
     28  CG1      -16.5010    2.4600   11.6690 C.3    28  VAL28       0.0019
     29  CG2      -17.6460    1.7120    9.5790 C.3    28  VAL28       0.0019
     30  N        -11.5750    5.0570   14.3450 N.3    32  ILE32      -0.1231
     31  CA       -12.2880    6.2020   13.7870 C.3    32  ILE32       0.1692
     32  C        -13.7070    6.3360   14.3270 C.2    32  ILE32       0.2591
     33  O        -14.2860    7.4290   14.2480 O.2    32  ILE32      -0.2718
     34  CB       -12.2690    6.2230   12.2500 C.3    32  ILE32       0.0266
     35  CG1      -13.2200    5.1700   11.7010 C.3    32  ILE32       0.0019
     36  CG2      -10.8530    6.0080   11.7290 C.3    32  ILE32       0.0020
     37  CD1      -13.4000    5.2670   10.2250 C.3    32  ILE32       0.0001
     38  N        -14.2800    5.2620   14.8690 N.am   33  ALA33      -0.1980
     39  CA       -15.6400    5.2590   15.4060 C.3    33  ALA33       0.1597
     40  C        -15.6030    4.5660   16.7600 C.2    33  ALA33       0.2287
     41  O        -15.8200    3.3500   16.8490 O.2    33  ALA33      -0.2864
     42  CB       -16.6010    4.5460   14.4580 C.3    33  ALA33       0.0319
     43  N        -17.3150    1.0770   18.0900 N.3    36  TYR36      -0.1241
     44  CA       -18.1500    0.5850   16.9970 C.3    36  TYR36       0.1605
     45  C        -18.3940   -0.9160   17.1040 C.2    36  TYR36       0.2264
     46  O        -19.5380   -1.3770   17.0110 O.2    36  TYR36      -0.2867
     47  CB       -17.5080    0.9310   15.6520 C.3    36  TYR36       0.0534
     48  CG       -18.4510    0.7510   14.4830 C.ar   36  TYR36      -0.0201
     49  CD1      -19.2840    1.7860   14.0730 C.ar   36  TYR36      -0.0009
     50  CD2      -18.5200   -0.4550   13.7970 C.ar   36  TYR36      -0.0009
     51  CE1      -20.1490    1.6300   13.0150 C.ar   36  TYR36       0.0417
     52  CE2      -19.3840   -0.6170   12.7320 C.ar   36  TYR36       0.0417
     53  CZ       -20.1990    0.4260   12.3490 C.ar   36  TYR36       0.1957
     54  OH       -21.0610    0.2570   11.2920 O.3    36  TYR36      -0.2866
     55  N        -24.9990    2.1970    9.8040 N.3    75  ALA75      -0.1245
     56  CA       -24.6370    3.6050    9.8970 C.3    75  ALA75       0.1562
     57  C        -25.7540    4.4310   10.5160 C.2    75  ALA75       0.2260
     58  O        -25.4790    5.4090   11.2230 O.2    75  ALA75      -0.2867
     59  CB       -24.2690    4.1440    8.5170 C.3    75  ALA75       0.0290
     60  N        -25.5010    3.3950   14.5310 N.3    78  TYR78      -0.1227
     61  CA       -24.3590    3.8460   15.3170 C.3    78  TYR78       0.1736
     62  C        -24.2810    5.3680   15.3800 C.2    78  TYR78       0.2595
     63  O        -23.9410    5.9330   16.4270 O.2    78  TYR78      -0.2718
     64  CB       -23.0630    3.2670   14.7480 C.3    78  TYR78       0.0548
     65  CG       -21.8350    3.8260   15.4270 C.ar   78  TYR78      -0.0200
     66  CD1      -21.3670    3.2830   16.6160 C.ar   78  TYR78      -0.0009
     67  CD2      -21.1580    4.9120   14.8920 C.ar   78  TYR78      -0.0009
     68  CE1      -20.2500    3.8020   17.2520 C.ar   78  TYR78       0.0417
     69  CE2      -20.0440    5.4400   15.5190 C.ar   78  TYR78       0.0417
     70  CZ       -19.5910    4.8800   16.6970 C.ar   78  TYR78       0.1957
     71  OH       -18.4810    5.4090   17.3160 O.3    78  TYR78      -0.2866
     72  N        -24.5670    6.0450   14.2700 N.am   79  ASN79      -0.1974
     73  CA       -24.4000    7.4870   14.1570 C.3    79  ASN79       0.1688
     74  C        -25.7060    8.2110   14.4590 C.2    79  ASN79       0.2292
     75  O        -26.7960    7.7090   14.1760 O.2    79  ASN79      -0.2864
     76  CB       -23.9490    7.8740   12.7460 C.3    79  ASN79       0.1181
     77  CG       -22.6550    7.1990   12.3410 C.2    79  ASN79       0.2629
     78  OD1      -21.5770    7.5610   12.8140 O.2    79  ASN79      -0.2716
     79  ND2      -22.7530    6.2160   11.4560 N.am   79  ASN79      -0.0877
     80  N        -22.4030   10.5890    8.0520 N.3    85  TYR85      -0.1241
     81  CA       -22.5470    9.1580    7.7960 C.3    85  TYR85       0.1605
     82  C        -24.0060    8.7290    7.7990 C.2    85  TYR85       0.2264
     83  O        -24.4260    7.9430    6.9430 O.2    85  TYR85      -0.2867
     84  CB       -21.7630    8.3640    8.8380 C.3    85  TYR85       0.0534
     85  CG       -20.3230    8.7830    8.9170 C.ar   85  TYR85      -0.0201
     86  CD1      -19.4540    8.5150    7.8730 C.ar   85  TYR85      -0.0009
     87  CD2      -19.8330    9.4450   10.0340 C.ar   85  TYR85      -0.0009
     88  CE1      -18.1380    8.8980    7.9310 C.ar   85  TYR85       0.0417
     89  CE2      -18.5140    9.8310   10.1060 C.ar   85  TYR85       0.0417
     90  CZ       -17.6710    9.5530    9.0510 C.ar   85  TYR85       0.1957
     91  OH       -16.3570    9.9340    9.1120 O.3    85  TYR85      -0.2866
@<TRIPOS>BOND
     1    15    14    2
     2     1     2    1
     3    14    13    1
     4    16    13    1
     5    16    17    1
     6    19    17   ar
     7    19    21   ar
     8    12    13    1
     9    12     3   am
    10    17    18   ar
    11    10     8   ar
    12    10    11   ar
    13     8     6   ar
    14     2     3    1
    15     2     5    1
    16    21    22   ar
    17     3     4    2
    18    11     9   ar
    19     6     5    1
    20     6     7   ar
    21     9     7   ar
    22    18    20   ar
    23    22    20   ar
    24    83    82    2
    25    81    82    1
    26    81    80    1
    27    81    84    1
    28    86    88   ar
    29    86    85   ar
    30    88    90   ar
    31    59    56    1
    32    84    85    1
    33    85    87   ar
    34    90    91    1
    35    90    89   ar
    36    23    24    1
    37    29    27    1
    38    55    56    1
    39    56    57    1
    40    87    89   ar
    41    24    27    1
    42    24    25    1
    43    37    35    1
    44    57    58    2
    45    27    28    1
    46    25    26    2
    47    54    53    1
    48    79    77   am
    49    35    34    1
    50    36    34    1
    51    34    31    1
    52    77    76    1
    53    77    78    2
    54    53    52   ar
    55    53    51   ar
    56    52    50   ar
    57    76    73    1
    58    51    49   ar
    59    31    32    1
    60    31    30    1
    61    50    48   ar
    62    49    48   ar
    63    73    72    1
    64    73    74    1
    65    75    74    2
    66    33    32    2
    67    72    62   am
    68    32    38   am
    69    42    39    1
    70    48    47    1
    71    60    61    1
    72    64    61    1
    73    64    65    1
    74    38    39    1
    75    67    65   ar
    76    67    69   ar
    77    61    62    1
    78    62    63    2
    79    39    40    1
    80    65    66   ar
    81    69    70   ar
    82    47    44    1
    83    66    68   ar
    84    70    68   ar
    85    70    71    1
    86    40    41    2
    87    44    45    1
    88    44    43    1
    89    46    45    2
