@<TRIPOS>MOLECULE
tmp/5i43D00.pdb
 173 172 0 0 0
SMALL
GASTEIGER

@<TRIPOS>ATOM
      1  N          3.8940  -15.9840   80.9460 N.3    70  ASP70      -0.1239
      2  CA         4.7750  -15.2270   81.8100 C.3    70  ASP70       0.1674
      3  C          4.2360  -14.9550   83.2380 C.2    70  ASP70       0.2266
      4  O          4.6430  -13.9840   83.8470 O.2    70  ASP70      -0.2867
      5  CB         5.0950  -13.9210   81.0840 C.3    70  ASP70       0.1410
      6  CG         3.9180  -12.9370   80.9710 C.2    70  ASP70       0.3668
      7  OD1        2.7680  -13.3400   81.2500 O.co2  70  ASP70      -0.2456
      8  OD2        4.1680  -11.7520   80.5620 O.co2  70  ASP70      -0.2456
      9  N          1.0890  -13.9660   86.1840 N.3    72  LYS72      -0.1231
     10  CA         0.1680  -12.8590   86.3660 C.3    72  LYS72       0.1693
     11  C          0.7530  -11.5580   85.7630 C.2    72  LYS72       0.2593
     12  O          1.9140  -11.2710   85.9160 O.2    72  LYS72      -0.2718
     13  CB        -0.1840  -12.6790   87.8510 C.3    72  LYS72       0.0285
     14  CG        -1.5260  -11.9980   88.0370 C.3    72  LYS72       0.0035
     15  CD        -2.2310  -12.4370   89.3170 C.3    72  LYS72       0.0206
     16  CE        -3.5670  -11.7150   89.4440 C.3    72  LYS72       0.1093
     17  NZ        -4.3220  -12.0040   90.7080 N.3    72  LYS72      -0.1314
     18  N         -0.0490  -10.8430   84.9950 N.am   73  GLY73      -0.1942
     19  CA         0.3980   -9.6780   84.3060 C.3    73  GLY73       0.2014
     20  C          1.0630   -9.9700   82.9950 C.2    73  GLY73       0.2639
     21  O          1.1600  -11.0980   82.5460 O.2    73  GLY73      -0.2714
     22  N          1.5490   -8.9080   82.3920 N.am   74  GLY74      -0.1939
     23  CA         2.2280   -8.9460   81.1750 C.3    74  GLY74       0.2014
     24  C          1.3580   -9.4490   80.0600 C.2    74  GLY74       0.2639
     25  O          0.2860   -8.9140   79.7720 O.2    74  GLY74      -0.2714
     26  N          1.8490  -10.5010   79.4250 N.am   75  ILE75      -0.1963
     27  CA         1.1600  -11.0760   78.3110 C.3    75  ILE75       0.1727
     28  C         -0.1010  -11.6990   78.9080 C.2    75  ILE75       0.2616
     29  O          0.0010  -12.5470   79.8210 O.2    75  ILE75      -0.2715
     30  CB         2.0140  -12.1380   77.5750 C.3    75  ILE75       0.0290
     31  CG1        3.2110  -11.4560   76.9050 C.3    75  ILE75       0.0022
     32  CG2        1.1700  -13.0340   76.5950 C.3    75  ILE75       0.0023
     33  CD1        4.1320  -12.4910   76.3150 C.3    75  ILE75       0.0001
     34  N         -1.2520  -11.3050   78.3500 N.am   76  LEU76      -0.1963
     35  CA        -2.5840  -11.9030   78.7180 C.3    76  LEU76       0.1728
     36  C         -3.0200  -13.1410   77.9530 C.2    76  LEU76       0.2616
     37  O         -3.7560  -14.0140   78.4840 O.2    76  LEU76      -0.2715
     38  CB        -3.7150  -10.8720   78.5460 C.3    76  LEU76       0.0311
     39  CG        -3.3890   -9.5580   79.2370 C.3    76  LEU76       0.0022
     40  CD1       -4.5390   -8.6090   78.9130 C.3    76  LEU76       0.0001
     41  CD2       -3.1250   -9.7140   80.7600 C.3    76  LEU76       0.0001
     42  N         -2.6550  -13.1610   76.6710 N.am   77  ALA77      -0.1963
     43  CA        -3.1650  -14.1450   75.8150 C.3    77  ALA77       0.1728
     44  C         -2.4610  -13.9670   74.5280 C.2    77  ALA77       0.2616
     45  O         -1.9230  -12.9080   74.3180 O.2    77  ALA77      -0.2715
     46  CB        -4.6660  -13.9130   75.6120 C.3    77  ALA77       0.0334
     47  N         -2.4950  -14.9800   73.6620 N.am   78  HIS78      -0.1959
     48  CA        -2.1010  -14.7830   72.2480 C.3    78  HIS78       0.1787
     49  C         -2.8570  -15.6630   71.2920 C.2    78  HIS78       0.2620
     50  O         -3.5730  -16.6060   71.6730 O.2    78  HIS78      -0.2715
     51  CB        -0.6030  -14.9910   72.1030 C.3    78  HIS78       0.0785
     52  CG        -0.1460  -16.3560   72.5200 C.ar   78  HIS78       0.0821
     53  ND1        0.9030  -16.5130   73.3480 N.ar   78  HIS78      -0.2267
     54  CD2       -0.5800  -17.6160   72.2270 C.ar   78  HIS78       0.1154
     55  CE1        1.1400  -17.7930   73.5490 C.ar   78  HIS78       0.1986
     56  NE2        0.2430  -18.4810   72.8840 N.ar   78  HIS78      -0.2212
     57  N         -2.7480  -15.3580   70.0150 N.am   79  ALA79      -0.1977
     58  CA        -3.4170  -16.1320   69.0080 C.3    79  ALA79       0.1597
     59  C         -2.5860  -16.2060   67.7430 C.2    79  ALA79       0.2287
     60  O         -1.8780  -15.2280   67.4130 O.2    79  ALA79      -0.2864
     61  CB        -4.7440  -15.5280   68.6850 C.3    79  ALA79       0.0319
     62  N        -13.5260   -9.2340   76.3460 N.3   109  LEU109     -0.1231
     63  CA       -12.7940   -8.1640   75.5410 C.3   109  LEU109      0.1693
     64  C        -11.5230   -8.7580   74.9530 C.2   109  LEU109      0.2592
     65  O        -11.1940   -8.5930   73.7530 O.2   109  LEU109     -0.2718
     66  CB       -12.4530   -6.9390   76.4600 C.3   109  LEU109      0.0284
     67  CG       -13.6480   -6.0980   76.9210 C.3   109  LEU109      0.0019
     68  CD1      -13.3210   -5.0910   78.0090 C.3   109  LEU109      0.0001
     69  CD2      -14.3650   -5.4220   75.7910 C.3   109  LEU109      0.0001
     70  N        -10.9260   -9.6080   75.7730 N.am  110  THR110     -0.1953
     71  CA        -9.6740  -10.2990   75.4200 C.3   110  THR110      0.1897
     72  C         -9.9950  -11.2280   74.3090 C.2   110  THR110      0.2313
     73  O         -9.2690  -11.2260   73.3020 O.2   110  THR110     -0.2863
     74  CB        -9.0080  -11.0340   76.6200 C.3   110  THR110      0.1794
     75  OG1       -8.7800  -10.0870   77.7030 O.3   110  THR110     -0.2208
     76  CG2       -7.6370  -11.5070   76.2330 C.3   110  THR110      0.0378
     77  N        -10.4530   -9.3470   70.8270 N.3   113  HIS113     -0.1226
     78  CA        -9.0710   -8.9560   70.2810 C.3   113  HIS113      0.1752
     79  C         -8.3600  -10.1200   69.7350 C.2   113  HIS113      0.2595
     80  O         -7.9460  -10.0450   68.6160 O.2   113  HIS113     -0.2718
     81  CB        -8.2410   -8.4010   71.4030 C.3   113  HIS113      0.0759
     82  CG        -6.9010   -7.8730   71.0260 C.ar  113  HIS113      0.0818
     83  ND1       -6.6920   -6.5320   70.8310 N.ar  113  HIS113     -0.2268
     84  CD2       -5.6900   -8.4710   70.8810 C.ar  113  HIS113      0.1154
     85  CE1       -5.4180   -6.3260   70.5290 C.ar  113  HIS113      0.1986
     86  NE2       -4.7850   -7.4740   70.6200 N.ar  113  HIS113     -0.2212
     87  N         -8.2080  -11.2070   70.5420 N.am  114  GLN114     -0.1979
     88  CA        -7.5560  -12.4830   70.0750 C.3   114  GLN114      0.1601
     89  C         -8.1690  -13.1440   68.8620 C.2   114  GLN114      0.2287
     90  O         -7.4560  -13.5340   67.9430 O.2   114  GLN114     -0.2864
     91  CB        -7.4820  -13.5710   71.1260 C.3   114  GLN114      0.0394
     92  CG        -6.6090  -13.2530   72.3190 C.3   114  GLN114      0.0908
     93  CD        -5.2530  -12.7580   71.9060 C.2   114  GLN114      0.2608
     94  OE1       -4.6520  -13.3380   71.0330 O.2   114  GLN114     -0.2717
     95  NE2       -4.8200  -11.6390   72.4360 N.am  114  GLN114     -0.0878
     96  N         -7.0470  -11.4400   65.8300 N.3   117  HIS117     -0.1241
     97  CA        -5.8020  -12.0000   65.4060 C.3   117  HIS117      0.1621
     98  C         -6.0650  -13.4000   64.7710 C.2   117  HIS117      0.2264
     99  O         -5.4340  -13.6710   63.7620 O.2   117  HIS117     -0.2867
    100  CB        -4.7840  -12.1570   66.5190 C.3   117  HIS117      0.0745
    101  CG        -4.2130  -10.8800   67.0260 C.ar  117  HIS117      0.0817
    102  ND1       -3.8260   -9.8740   66.1830 N.ar  117  HIS117     -0.2268
    103  CD2       -3.8680  -10.4850   68.2650 C.ar  117  HIS117      0.1154
    104  CE1       -3.3200   -8.8830   66.8970 C.ar  117  HIS117      0.1986
    105  NE2       -3.2550   -9.2670   68.1480 N.ar  117  HIS117     -0.2212
    106  N         -2.7520   -4.8590   64.5070 N.3   123  HIS123     -0.1241
    107  CA        -3.0940   -3.9210   65.5350 C.3   123  HIS123      0.1621
    108  C         -3.5080   -2.6000   64.8820 C.2   123  HIS123      0.2264
    109  O         -3.1430   -2.3140   63.7260 O.2   123  HIS123     -0.2867
    110  CB        -1.9270   -3.7620   66.4570 C.3   123  HIS123      0.0745
    111  CG        -1.7930   -4.8620   67.4590 C.ar  123  HIS123      0.0817
    112  ND1       -0.5800   -5.1660   68.0510 N.ar  123  HIS123     -0.2268
    113  CD2       -2.7200   -5.6410   68.0870 C.ar  123  HIS123      0.1154
    114  CE1       -0.7490   -6.1330   68.9270 C.ar  123  HIS123      0.1986
    115  NE2       -2.0400   -6.4310   68.9700 N.ar  123  HIS123     -0.2212
    116  N        -10.3200    1.3330   69.2840 N.3   129  ALA129     -0.1231
    117  CA       -10.4060    0.0670   68.6100 C.3   129  ALA129      0.1694
    118  C        -10.1600   -1.1180   69.5310 C.2   129  ALA129      0.2591
    119  O         -9.3020   -1.0990   70.4280 O.2   129  ALA129     -0.2718
    120  CB        -9.4260    0.0020   67.4500 C.3   129  ALA129      0.0304
    121  N        -10.8980   -2.1860   69.2590 N.am  130  VAL130     -0.1980
    122  CA       -10.6890   -3.3870   70.0180 C.3   130  VAL130      0.1595
    123  C         -9.3080   -4.0340   69.6690 C.2   130  VAL130      0.2287
    124  O         -8.7510   -4.7830   70.4850 O.2   130  VAL130     -0.2864
    125  CB       -11.8240   -4.3890   69.8770 C.3   130  VAL130      0.0276
    126  CG1      -11.7830   -5.0150   68.4870 C.3   130  VAL130      0.0022
    127  CG2      -11.6440   -5.4680   70.9400 C.3   130  VAL130      0.0022
    128  N         -6.5670   -2.2470   69.2150 N.3   132  PHE132     -0.1228
    129  CA        -5.5070   -1.5770   69.9440 C.3   132  PHE132      0.1721
    130  C         -4.6450   -2.5380   70.7640 C.2   132  PHE132      0.2437
    131  O         -5.1360   -3.4710   71.3190 O.2   132  PHE132     -0.2733
    132  CB        -6.0960   -0.4680   70.8530 C.3   132  PHE132      0.0547
    133  CG        -5.0910    0.5660   71.2790 C.ar  132  PHE132     -0.0202
    134  CD1       -4.5580    1.3860   70.3950 C.ar  132  PHE132     -0.0042
    135  CD2       -4.8100    0.7540   72.5870 C.ar  132  PHE132     -0.0042
    136  CE1       -3.6580    2.3850   70.7570 C.ar  132  PHE132     -0.0003
    137  CE2       -3.9360    1.7270   73.0050 C.ar  132  PHE132     -0.0003
    138  CZ        -3.3560    2.5590   72.0950 C.ar  132  PHE132     -0.0000
    139  N         -3.3150   -2.3090   70.8440 N.am  133  PRO133     -0.2718
    140  CA        -2.4250   -3.2720   71.4860 C.3   133  PRO133      0.1535
    141  C         -2.4690   -3.3220   72.9780 C.2   133  PRO133      0.2599
    142  O         -1.8710   -4.1950   73.5360 O.2   133  PRO133     -0.2715
    143  CB        -0.9960   -2.8470   71.0490 C.3   133  PRO133      0.0310
    144  CG        -1.2100   -2.0680   69.8300 C.3   133  PRO133      0.0237
    145  CD        -2.5500   -1.3350   70.0460 C.3   133  PRO133      0.0939
    146  N         -3.1860   -2.4310   73.6340 N.am  134  THR134     -0.1937
    147  CA        -3.1570   -2.3600   75.0920 C.3   134  THR134      0.2028
    148  C         -4.5620   -2.6150   75.6430 C.2   134  THR134      0.2642
    149  O         -5.5350   -2.0120   75.1980 O.2   134  THR134     -0.2714
    150  CB        -2.6980   -0.9900   75.5600 C.3   134  THR134      0.1808
    151  OG1       -1.4540   -0.6560   74.9420 O.3   134  THR134     -0.2208
    152  CG2       -2.5200   -0.9670   77.0810 C.3   134  THR134      0.0379
    153  N         -4.6130   -3.4960   76.6290 N.am  135  TYR135     -0.1959
    154  CA        -5.8390   -3.8890   77.2890 C.3   135  TYR135      0.1771
    155  C         -6.2980   -2.7810   78.2240 C.2   135  TYR135      0.2619
    156  O         -5.5070   -2.2480   78.9980 O.2   135  TYR135     -0.2715
    157  CB        -5.6720   -5.1870   78.1360 C.3   135  TYR135      0.0574
    158  CG        -6.9100   -5.5230   78.9640 C.ar  135  TYR135     -0.0198
    159  CD1       -7.9830   -6.2320   78.4300 C.ar  135  TYR135     -0.0009
    160  CD2       -7.0040   -5.1110   80.2660 C.ar  135  TYR135     -0.0009
    161  CE1       -9.1180   -6.5650   79.1840 C.ar  135  TYR135      0.0417
    162  CE2       -8.1080   -5.4230   81.0560 C.ar  135  TYR135      0.0417
    163  CZ        -9.1810   -6.1450   80.5040 C.ar  135  TYR135      0.1957
    164  OH       -10.2800   -6.3740   81.3160 O.3   135  TYR135     -0.2866
    165  N         -7.5790   -2.4640   78.1520 N.am  136  LYS136     -0.1977
    166  CA        -8.2200   -1.6700   79.1770 C.3   136  LYS136      0.1596
    167  C         -9.6410   -2.1450   79.2020 C.2   136  LYS136      0.2287
    168  O        -10.1290   -2.6730   78.2290 O.2   136  LYS136     -0.2864
    169  CB        -8.1540   -0.1580   78.8890 C.3   136  LYS136      0.0298
    170  CG        -8.6090    0.2620   77.5040 C.3   136  LYS136      0.0038
    171  CD        -8.7890    1.7580   77.4210 C.3   136  LYS136      0.0206
    172  CE        -9.1740    2.1990   76.0080 C.3   136  LYS136      0.1093
    173  NZ        -8.1940    1.7850   74.9770 N.3   136  LYS136     -0.1314
@<TRIPOS>BOND
     1   109   108    2
     2    99    98    2
     3   106   107    1
     4    98    97    1
     5   108   107    1
     6    97    96    1
     7    97   100    1
     8   107   110    1
     9   102   104   ar
    10   102   101   ar
    11   110   111    1
    12   100   101    1
    13   104   105   ar
    14   101   103   ar
    15    60    59    2
    16   120   117    1
    17   111   112   ar
    18   111   113   ar
    19    59    58    1
    20    90    89    2
    21   112   114   ar
    22   113   115   ar
    23   105   103   ar
    24   126   125    1
    25   117   116    1
    26   117   118    1
    27    80    79    2
    28    61    58    1
    29    89    88    1
    30   114   115   ar
    31    58    57    1
    32   128   129    1
    33   121   118   am
    34   121   122    1
    35   118   119    2
    36   123   122    1
    37   123   124    2
    38    79    78    1
    39    79    87   am
    40   144   145    1
    41   144   143    1
    42   125   122    1
    43   125   127    1
    44   129   130    1
    45   129   132    1
    46    57    49   am
    47   145   139    1
    48    88    87    1
    49    88    91    1
    50    78    77    1
    51    78    81    1
    52   134   136   ar
    53   134   133   ar
    54    85    86   ar
    55    85    83   ar
    56    86    84   ar
    57   136   138   ar
    58   130   139   am
    59   130   131    2
    60    83    82   ar
    61   139   140    1
    62   132   133    1
    63    84    82   ar
    64    82    81    1
    65    94    93    2
    66   143   140    1
    67    91    92    1
    68   133   135   ar
    69    49    50    2
    70    49    48    1
    71   140   141    1
    72    93    92    1
    73    93    95   am
    74   138   137   ar
    75    51    48    1
    76    51    52    1
    77    54    52   ar
    78    54    56   ar
    79    48    47    1
    80    52    53   ar
    81   135   137   ar
    82    56    55   ar
    83   141   142    2
    84   141   146   am
    85    73    72    2
    86    53    55   ar
    87   146   147    1
    88    47    44   am
    89    65    64    2
    90    72    71    1
    91    45    44    2
    92    44    43    1
    93   151   150    1
    94    64    63    1
    95    64    70   am
    96   173   172    1
    97   147   150    1
    98   147   148    1
    99   149   148    2
   100    71    70    1
   101    71    74    1
   102    63    62    1
   103    63    66    1
   104   150   152    1
   105    46    43    1
   106   148   153   am
   107    69    67    1
   108    43    42    1
   109   172   171    1
   110    76    74    1
   111    33    31    1
   112    66    67    1
   113    32    30    1
   114    74    75    1
   115   153   154    1
   116    42    36   am
   117    31    30    1
   118    67    68    1
   119   154   157    1
   120   154   155    1
   121   171   170    1
   122   170   169    1
   123    30    27    1
   124    36    37    2
   125    36    35    1
   126   157   158    1
   127   165   155   am
   128   165   166    1
   129   155   156    2
   130   168   167    2
   131    27    28    1
   132    27    26    1
   133    34    35    1
   134    34    28   am
   135   159   158   ar
   136   159   161   ar
   137    38    35    1
   138    38    39    1
   139   169   166    1
   140    28    29    2
   141    40    39    1
   142   158   160   ar
   143   166   167    1
   144   161   163   ar
   145    39    41    1
   146    26    24   am
   147    25    24    2
   148    24    23    1
   149   160   162   ar
   150   163   162   ar
   151   163   164    1
   152     8     6   ar
   153     1     2    1
   154     6     5    1
   155     6     7   ar
   156     5     2    1
   157    23    22    1
   158     2     3    1
   159    22    20   am
   160    21    20    2
   161    20    19    1
   162     3     4    2
   163    19    18    1
   164    18    11   am
   165    11    12    2
   166    11    10    1
   167     9    10    1
   168    10    13    1
   169    13    14    1
   170    14    15    1
   171    15    16    1
   172    16    17    1
