@<TRIPOS>MOLECULE
tmp/5i46A01.pdb
 83 78 0 0 0
SMALL
GASTEIGER

@<TRIPOS>ATOM
      1  N         17.6490   43.0210   16.4260 N.3    24  GLN24      -0.1231
      2  CA        17.3880   41.7390   17.0800 C.3    24  GLN24       0.1698
      3  C         15.8760   41.4980   17.1960 C.2    24  GLN24       0.2592
      4  O         15.1730   42.2730   17.8400 O.2    24  GLN24      -0.2718
      5  CB        18.0190   41.7920   18.4940 C.3    24  GLN24       0.0381
      6  CG        17.8950   40.5240   19.2850 C.3    24  GLN24       0.0905
      7  CD        18.7490   40.5590   20.5200 C.2    24  GLN24       0.2608
      8  OE1       19.7660   41.2540   20.5860 O.2    24  GLN24      -0.2717
      9  NE2       18.3770   39.7670   21.5040 N.am   24  GLN24      -0.0878
     10  N         15.3900   40.4040   16.6290 N.am   25  LEU25      -0.1966
     11  CA        13.9570   40.0950   16.6980 C.3    25  LEU25       0.1728
     12  C         13.6650   38.9250   17.6310 C.2    25  LEU25       0.2616
     13  O         12.8580   39.0380   18.5500 O.2    25  LEU25      -0.2715
     14  CB        13.3950   39.7700   15.2870 C.3    25  LEU25       0.0311
     15  CG        11.9160   39.2690   15.2650 C.3    25  LEU25       0.0022
     16  CD1       10.9350   40.4020   15.5550 C.3    25  LEU25       0.0001
     17  CD2       11.5770   38.5970   13.9590 C.3    25  LEU25       0.0001
     18  N         14.3220   37.7900   17.3650 N.am   26  CYS26      -0.1968
     19  CA        14.0400   36.4950   17.9800 C.3    26  CYS26       0.1712
     20  C         15.1870   35.5280   17.7750 C.2    26  CYS26       0.2296
     21  O         16.1090   35.8140   17.0350 O.2    26  CYS26      -0.2864
     22  CB        12.7720   35.9260   17.3380 C.3    26  CYS26       0.0983
     23  SG        11.2390   36.3050   18.2190 S.3    26  CYS26      -0.0798
     24  N          4.7290   33.8710   17.4390 N.3    41  HIS41      -0.1226
     25  CA         4.5270   35.2170   18.0020 C.3    41  HIS41       0.1752
     26  C          5.6030   36.2450   17.5790 C.2    41  HIS41       0.2596
     27  O          5.3230   37.4430   17.6110 O.2    41  HIS41      -0.2718
     28  CB         4.3300   35.1830   19.5350 C.3    41  HIS41       0.0759
     29  CG         5.5810   35.1030   20.3380 C.ar   41  HIS41       0.0818
     30  ND1        6.0730   33.8930   20.7800 N.ar   41  HIS41      -0.2268
     31  CD2        6.4010   36.0880   20.7560 C.ar   41  HIS41       0.1154
     32  CE1        7.1630   34.1820   21.4700 C.ar   41  HIS41       0.1986
     33  NE2        7.4010   35.4910   21.4710 N.ar   41  HIS41      -0.2212
     34  N          6.8000   35.7680   17.1640 N.am   42  CYS42      -0.1970
     35  CA         7.9470   36.5670   16.6900 C.3    42  CYS42       0.1712
     36  C          7.5330   37.4420   15.5210 C.2    42  CYS42       0.2296
     37  O          8.1740   38.4560   15.2610 O.2    42  CYS42      -0.2864
     38  CB         9.0980   35.6560   16.2490 C.3    42  CYS42       0.0983
     39  SG         9.9970   34.8310   17.5880 S.3    42  CYS42      -0.0798
     40  N          4.1160   41.4240   14.4970 N.3    45  LYS45      -0.1245
     41  CA         4.2340   42.8220   14.0810 C.3    45  LYS45       0.1561
     42  C          5.0890   43.0700   12.8220 C.2    45  LYS45       0.2260
     43  O          5.4240   44.2200   12.5650 O.2    45  LYS45      -0.2867
     44  CB         4.7650   43.6620   15.2560 C.3    45  LYS45       0.0271
     45  CG         3.9840   43.4930   16.5490 C.3    45  LYS45       0.0035
     46  CD         4.6840   44.2160   17.6920 C.3    45  LYS45       0.0206
     47  CE         4.0040   44.0100   19.0260 C.3    45  LYS45       0.1093
     48  NZ         4.8300   44.5360   20.1460 N.3    45  LYS45      -0.1314
     49  N         17.2790   39.0330   27.3720 N.3   134  GLN134     -0.1245
     50  CA        17.5070   39.8120   28.5820 C.3   134  GLN134      0.1566
     51  C         18.2760   38.9820   29.5930 C.2   134  GLN134      0.2260
     52  O         17.9910   37.7880   29.7930 O.2   134  GLN134     -0.2867
     53  CB        16.1640   40.3150   29.1720 C.3   134  GLN134      0.0367
     54  CG        15.3980   41.3260   28.2840 C.3   134  GLN134      0.0905
     55  CD        14.7430   40.7320   27.0420 C.2   134  GLN134      0.2608
     56  OE1       14.5850   39.5160   26.9020 O.2   134  GLN134     -0.2717
     57  NE2       14.3170   41.5740   26.1080 N.am  134  GLN134     -0.0878
     58  N         19.8610   43.1950   27.0000 N.3   141  THR141     -0.1218
     59  CA        19.9990   41.9030   26.3110 C.3   141  THR141      0.1862
     60  C         21.4820   41.5270   26.2480 C.2   141  THR141      0.2287
     61  O         22.3390   42.4020   26.3640 O.2   141  THR141     -0.2866
     62  CB        19.3650   41.9720   24.9250 C.3   141  THR141      0.1770
     63  OG1       20.0300   42.9760   24.1880 O.3   141  THR141     -0.2211
     64  CG2       17.9000   42.2720   24.9690 C.3   141  THR141      0.0375
     65  N         11.7860   37.0550   26.8880 N.3   189  LYS189     -0.1231
     66  CA        11.1620   37.4580   25.6360 C.3   189  LYS189      0.1693
     67  C         12.1450   37.5670   24.4540 C.2   189  LYS189      0.2592
     68  O         11.7840   37.1660   23.3550 O.2   189  LYS189     -0.2718
     69  CB        10.3330   38.7320   25.8130 C.3   189  LYS189      0.0285
     70  CG        11.1260   40.0280   25.9350 C.3   189  LYS189      0.0035
     71  CD        10.1390   41.1840   25.9150 C.3   189  LYS189      0.0206
     72  CE        10.7620   42.5230   26.1750 C.3   189  LYS189      0.1093
     73  NZ         9.7260   43.4700   26.6520 N.3   189  LYS189     -0.1314
     74  N         13.3650   38.0750   24.6820 N.am  190  GLY190     -0.1957
     75  CA        14.3820   38.1920   23.6290 C.3   190  GLY190      0.1869
     76  C         14.9680   36.8400   23.2170 C.2   190  GLY190      0.2309
     77  O         15.6700   36.7470   22.2060 O.2   190  GLY190     -0.2863
     78  N         12.8350   34.2890   22.7480 N.3   192  SER192     -0.1217
     79  CA        11.6730   33.7290   22.0200 C.3   192  SER192      0.1889
     80  C         12.1030   33.0860   20.7430 C.2   192  SER192      0.2288
     81  O         12.9280   33.6410   20.0000 O.2   192  SER192     -0.2866
     82  CB        10.6760   34.8210   21.6530 C.3   192  SER192      0.2089
     83  OG         9.9390   35.2740   22.7720 O.3   192  SER192     -0.2183
@<TRIPOS>BOND
     1    43    42    2
     2    42    41    1
     3    17    15    1
     4    41    40    1
     5    41    44    1
     6    44    45    1
     7    37    36    2
     8    15    14    1
     9    15    16    1
    10    14    11    1
    11    36    35    1
    12    38    35    1
    13    38    39    1
    14     1     2    1
    15    45    46    1
    16    10    11    1
    17    10     3   am
    18    35    34    1
    19    11    12    1
    20    21    20    2
    21     2     3    1
    22     2     5    1
    23    34    26   am
    24     3     4    2
    25    22    19    1
    26    22    23    1
    27    18    12   am
    28    18    19    1
    29    24    25    1
    30    26    27    2
    31    26    25    1
    32    39    23    1
    33    12    13    2
    34    46    47    1
    35    20    19    1
    36    25    28    1
    37     5     6    1
    38    47    48    1
    39     6     7    1
    40    28    29    1
    41    81    80    2
    42    29    31   ar
    43    29    30   ar
    44     7     8    2
    45     7     9   am
    46    80    79    1
    47    31    33   ar
    48    30    32   ar
    49    32    33   ar
    50    82    79    1
    51    82    83    1
    52    79    78    1
    53    77    76    2
    54    76    75    1
    55    68    67    2
    56    75    74    1
    57    63    62    1
    58    67    74   am
    59    67    66    1
    60    62    64    1
    61    62    59    1
    62    66    69    1
    63    66    65    1
    64    69    70    1
    65    71    70    1
    66    71    72    1
    67    57    55   am
    68    72    73    1
    69    60    59    1
    70    60    61    2
    71    59    58    1
    72    56    55    2
    73    55    54    1
    74    49    50    1
    75    54    53    1
    76    50    53    1
    77    50    51    1
    78    51    52    2
