@<TRIPOS>MOLECULE
tmp/5i46A00.pdb
 185 183 0 0 0
SMALL
GASTEIGER

@<TRIPOS>ATOM
      1  N          4.7290   33.8710   17.4390 N.3    41  HIS41      -0.1226
      2  CA         4.5270   35.2170   18.0020 C.3    41  HIS41       0.1752
      3  C          5.6030   36.2450   17.5790 C.2    41  HIS41       0.2596
      4  O          5.3230   37.4430   17.6110 O.2    41  HIS41      -0.2718
      5  CB         4.3300   35.1830   19.5350 C.3    41  HIS41       0.0759
      6  CG         5.5810   35.1030   20.3380 C.ar   41  HIS41       0.0818
      7  ND1        6.0730   33.8930   20.7800 N.ar   41  HIS41      -0.2268
      8  CD2        6.4010   36.0880   20.7560 C.ar   41  HIS41       0.1154
      9  CE1        7.1630   34.1820   21.4700 C.ar   41  HIS41       0.1986
     10  NE2        7.4010   35.4910   21.4710 N.ar   41  HIS41      -0.2212
     11  N          6.8000   35.7680   17.1640 N.am   42  CYS42      -0.1970
     12  CA         7.9470   36.5670   16.6900 C.3    42  CYS42       0.1712
     13  C          7.5330   37.4420   15.5210 C.2    42  CYS42       0.2296
     14  O          8.1740   38.4560   15.2610 O.2    42  CYS42      -0.2864
     15  CB         9.0980   35.6560   16.2490 C.3    42  CYS42       0.0983
     16  SG         9.9970   34.8310   17.5880 S.3    42  CYS42      -0.0798
     17  N          4.2460   38.5740   14.7380 N.3    44  ASP44      -0.1225
     18  CA         2.9710   39.2780   14.9110 C.3    44  ASP44       0.1805
     19  C          2.9810   40.7140   14.3630 C.2    44  ASP44       0.2597
     20  O          1.9930   41.1470   13.7790 O.2    44  ASP44      -0.2718
     21  CB         2.5960   39.3020   16.3940 C.3    44  ASP44       0.1424
     22  CG         1.8960   38.0580   16.9080 C.2    44  ASP44       0.3668
     23  OD1        1.8780   37.0420   16.1860 O.co2  44  ASP44      -0.2456
     24  OD2        1.3630   38.1040   18.0160 O.co2  44  ASP44      -0.2456
     25  N          4.1160   41.4240   14.4970 N.am   45  LYS45      -0.1979
     26  CA         4.2340   42.8220   14.0810 C.3    45  LYS45       0.1596
     27  C          5.0890   43.0700   12.8220 C.2    45  LYS45       0.2287
     28  O          5.4240   44.2200   12.5650 O.2    45  LYS45      -0.2864
     29  CB         4.7650   43.6620   15.2560 C.3    45  LYS45       0.0298
     30  CG         3.9840   43.4930   16.5490 C.3    45  LYS45       0.0038
     31  CD         4.6840   44.2160   17.6920 C.3    45  LYS45       0.0206
     32  CE         4.0040   44.0100   19.0260 C.3    45  LYS45       0.1093
     33  NZ         4.8300   44.5360   20.1460 N.3    45  LYS45      -0.1314
     34  N         -1.1680   37.3830   19.1870 N.3    85  GLY85      -0.1210
     35  CA        -1.3930   37.9620   20.5100 C.3    85  GLY85       0.1956
     36  C         -1.7850   36.9530   21.5640 C.2    85  GLY85       0.2613
     37  O         -2.0170   37.3210   22.7230 O.2    85  GLY85      -0.2717
     38  N         -1.8630   35.6590   21.1760 N.am   86  THR86      -0.1938
     39  CA        -2.2170   34.5960   22.1120 C.3    86  THR86       0.2028
     40  C         -1.0260   33.6140   22.2650 C.2    86  THR86       0.2642
     41  O          0.0580   33.8530   21.7170 O.2    86  THR86      -0.2714
     42  CB        -3.5730   33.9300   21.7550 C.3    86  THR86       0.1808
     43  OG1       -3.4090   33.2360   20.5310 O.3    86  THR86      -0.2208
     44  CG2       -4.7410   34.9390   21.6220 C.3    86  THR86       0.0379
     45  N         -1.2340   32.5360   23.0340 N.am   87  THR87      -0.1950
     46  CA        -0.2030   31.5560   23.3910 C.3    87  THR87       0.1897
     47  C         -0.1820   30.2360   22.6050 C.2    87  THR87       0.2313
     48  O          0.8900   29.6930   22.4260 O.2    87  THR87      -0.2863
     49  CB        -0.3140   31.2200   24.8820 C.3    87  THR87       0.1794
     50  OG1       -1.6350   30.7750   25.1380 O.3    87  THR87      -0.2208
     51  CG2       -0.0300   32.4020   25.7760 C.3    87  THR87       0.0378
     52  N          2.3790   27.9860   19.1860 N.3    90  ASP90      -0.1239
     53  CA         3.3990   29.0160   18.9610 C.3    90  ASP90       0.1674
     54  C          4.6380   28.4560   18.2660 C.2    90  ASP90       0.2266
     55  O          5.6790   28.2290   18.8780 O.2    90  ASP90      -0.2867
     56  CB         3.7210   29.7330   20.2920 C.3    90  ASP90       0.1410
     57  CG         4.5180   31.0080   20.1270 C.2    90  ASP90       0.3668
     58  OD1        4.5650   31.5490   18.9830 O.co2  90  ASP90      -0.2456
     59  OD2        5.0470   31.4980   21.1360 O.co2  90  ASP90      -0.2456
     60  N         -3.0830   32.6460   31.1520 N.3   169  PRO169     -0.2116
     61  CA        -3.4290   31.6570   30.1170 C.3   169  PRO169      0.1372
     62  C         -3.1350   30.2290   30.5800 C.2   169  PRO169      0.2244
     63  O         -2.2070   30.0020   31.3660 O.2   169  PRO169     -0.2868
     64  CB        -2.5380   32.0500   28.9280 C.3   169  PRO169      0.0268
     65  CG        -2.0140   33.4070   29.2460 C.3   169  PRO169      0.0207
     66  CD        -1.9300   33.4640   30.7300 C.3   169  PRO169      0.0892
     67  N         15.6630   31.5300   34.0040 N.3   186  ASP186     -0.1225
     68  CA        14.5770   31.4200   33.0170 C.3   186  ASP186      0.1805
     69  C         15.0720   31.9100   31.6700 C.2   186  ASP186      0.2598
     70  O         16.1430   32.5190   31.5790 O.2   186  ASP186     -0.2718
     71  CB        13.3900   32.3140   33.4630 C.3   186  ASP186      0.1424
     72  CG        12.0130   32.0020   32.9020 C.2   186  ASP186      0.3668
     73  OD1       11.8920   31.0290   32.0900 O.co2 186  ASP186     -0.2456
     74  OD2       11.0590   32.7680   33.2150 O.co2 186  ASP186     -0.2456
     75  N         14.3080   31.6170   30.6110 N.am  187  SER187     -0.1938
     76  CA        14.5530   32.1930   29.2980 C.3   187  SER187      0.2055
     77  C         13.6550   33.4400   29.3360 C.2   187  SER187      0.2643
     78  O         12.7670   33.5080   30.2140 O.2   187  SER187     -0.2714
     79  CB        14.1680   31.2310   28.1800 C.3   187  SER187      0.2130
     80  OG        12.8560   30.7330   28.3390 O.3   187  SER187     -0.2179
     81  N         13.8970   34.4230   28.4300 N.am  188  CYS188     -0.1953
     82  CA        13.1770   35.7040   28.3870 C.3   188  CYS188      0.1843
     83  C         12.5730   35.9690   27.0140 C.2   188  CYS188      0.2625
     84  O         12.8730   35.2640   26.0690 O.2   188  CYS188     -0.2714
     85  CB        14.1120   36.8450   28.7920 C.3   188  CYS188      0.0997
     86  SG        15.0920   36.5200   30.2770 S.3   188  CYS188     -0.0797
     87  N         11.7860   37.0550   26.8880 N.am  189  LYS189     -0.1977
     88  CA        11.1620   37.4580   25.6360 C.3   189  LYS189      0.1596
     89  C         12.1450   37.5670   24.4540 C.2   189  LYS189      0.2287
     90  O         11.7840   37.1660   23.3550 O.2   189  LYS189     -0.2864
     91  CB        10.3330   38.7320   25.8130 C.3   189  LYS189      0.0298
     92  CG        11.1260   40.0280   25.9350 C.3   189  LYS189      0.0038
     93  CD        10.1390   41.1840   25.9150 C.3   189  LYS189      0.0206
     94  CE        10.7620   42.5230   26.1750 C.3   189  LYS189      0.1093
     95  NZ         9.7260   43.4700   26.6520 N.3   189  LYS189     -0.1314
     96  N         12.8350   34.2890   22.7480 N.3   192  SER192     -0.1217
     97  CA        11.6730   33.7290   22.0200 C.3   192  SER192      0.1889
     98  C         12.1030   33.0860   20.7430 C.2   192  SER192      0.2288
     99  O         12.9280   33.6410   20.0000 O.2   192  SER192     -0.2866
    100  CB        10.6760   34.8210   21.6530 C.3   192  SER192      0.2089
    101  OG         9.9390   35.2740   22.7720 O.3   192  SER192     -0.2183
    102  N         11.2340   28.4340   22.8620 N.3   210  VAL210     -0.1231
    103  CA        11.0140   29.5160   23.8660 C.3   210  VAL210      0.1692
    104  C          9.7540   30.2720   23.4320 C.2   210  VAL210      0.2593
    105  O          9.7120   30.8220   22.3320 O.2   210  VAL210     -0.2718
    106  CB        12.2030   30.4800   23.9740 C.3   210  VAL210      0.0266
    107  CG1       11.8910   31.5850   24.9820 C.3   210  VAL210      0.0020
    108  CG2       13.4880   29.7330   24.3380 C.3   210  VAL210      0.0020
    109  N          8.7190   30.2140   24.2510 N.am  211  SER211     -0.1938
    110  CA         7.4170   30.7130   23.8650 C.3   211  SER211      0.2055
    111  C          6.8970   31.8640   24.7270 C.2   211  SER211      0.2643
    112  O          6.8030   32.9790   24.2440 O.2   211  SER211     -0.2714
    113  CB         6.4250   29.5430   23.8250 C.3   211  SER211      0.2130
    114  OG         5.1480   29.9360   23.3430 O.3   211  SER211     -0.2179
    115  N          6.5080   31.5940   25.9640 N.am  212  TRP212     -0.1959
    116  CA         5.9480   32.6410   26.8080 C.3   212  TRP212      0.1771
    117  C          6.1590   32.3690   28.2740 C.2   212  TRP212      0.2620
    118  O          6.7620   31.3700   28.6490 O.2   212  TRP212     -0.2715
    119  CB         4.4550   32.8780   26.5040 C.3   212  TRP212      0.0590
    120  CG         3.5520   31.7100   26.7700 C.ar  212  TRP212      0.0006
    121  CD1        3.3300   30.6470   25.9460 C.ar  212  TRP212      0.0946
    122  CD2        2.6970   31.5200   27.9170 C.ar  212  TRP212      0.0152
    123  NE1        2.4170   29.7910   26.5120 N.ar  212  TRP212     -0.2442
    124  CE2        2.0120   30.3020   27.7290 C.ar  212  TRP212      0.0810
    125  CE3        2.4640   32.2570   29.1000 C.ar  212  TRP212      0.0012
    126  CZ2        1.0560   29.8270   28.6460 C.ar  212  TRP212      0.0191
    127  CZ3        1.5680   31.7570   30.0400 C.ar  212  TRP212      0.0001
    128  CH2        0.8580   30.5650   29.8020 C.ar  212  TRP212      0.0015
    129  N          5.6750   33.3000   29.0760 N.am  213  GLY213     -0.1940
    130  CA         5.7080   33.2560   30.5330 C.3   213  GLY213      0.2014
    131  C          5.2120   34.6030   31.0190 C.2   213  GLY213      0.2639
    132  O          4.6680   35.3830   30.2230 O.2   213  GLY213     -0.2714
    133  N          5.3870   34.9010   32.3090 N.am  214  GLN214     -0.1963
    134  CA         4.9710   36.2200   32.8200 C.3   214  GLN214      0.1733
    135  C          6.1770   36.8750   33.4250 C.2   214  GLN214      0.2617
    136  O          6.6610   36.3590   34.4270 O.2   214  GLN214     -0.2715
    137  CB         3.8330   36.1360   33.8500 C.3   214  GLN214      0.0408
    138  CG         3.4440   34.7410   34.3130 C.3   214  GLN214      0.0908
    139  CD         1.9480   34.5840   34.2950 C.2   214  GLN214      0.2608
    140  OE1        1.2230   35.1950   35.0890 O.2   214  GLN214     -0.2717
    141  NE2        1.4490   33.7780   33.3720 N.am  214  GLN214     -0.0878
    142  N          6.6610   37.9720   32.8240 N.am  215  GLY215     -0.1940
    143  CA         7.8580   38.6940   33.2630 C.3   215  GLY215      0.2014
    144  C          8.9860   37.6960   33.4380 C.2   215  GLY215      0.2639
    145  O          8.7620   36.6440   34.0620 O.2   215  GLY215     -0.2714
    146  N         10.1920   37.9570   32.8970 N.am  216  CYS216     -0.1967
    147  CA        11.3030   37.0250   33.0070 C.3   216  CYS216      0.1712
    148  C         11.6740   36.6920   34.4360 C.2   216  CYS216      0.2296
    149  O         11.7940   37.6180   35.2390 O.2   216  CYS216     -0.2864
    150  CB        12.5100   37.5310   32.2260 C.3   216  CYS216      0.0983
    151  SG        13.4020   36.2230   31.3600 S.3   216  CYS216     -0.0798
    152  N          7.0740   29.6200   35.8940 N.3   222  PHE222     -0.1227
    153  CA         8.0020   28.8570   35.0810 C.3   222  PHE222      0.1736
    154  C          7.9140   29.3580   33.6410 C.2   222  PHE222      0.2596
    155  O          6.9180   29.9860   33.2550 O.2   222  PHE222     -0.2718
    156  CB         7.6260   27.3660   35.1440 C.3   222  PHE222      0.0547
    157  CG         7.7300   26.7090   36.5010 C.ar  222  PHE222     -0.0202
    158  CD1        6.6470   26.6950   37.3700 C.ar  222  PHE222     -0.0042
    159  CD2        8.8980   26.0750   36.8940 C.ar  222  PHE222     -0.0042
    160  CE1        6.7420   26.0720   38.6220 C.ar  222  PHE222     -0.0003
    161  CE2        8.9970   25.4560   38.1460 C.ar  222  PHE222     -0.0003
    162  CZ         7.9170   25.4510   39.0000 C.ar  222  PHE222     -0.0000
    163  N          8.9290   29.0480   32.8450 N.am  223  GLY223     -0.1942
    164  CA         8.8830   29.3760   31.4220 C.3   223  GLY223      0.2014
    165  C          7.9430   28.4040   30.7430 C.2   223  GLY223      0.2639
    166  O          7.7500   27.3020   31.2480 O.2   223  GLY223     -0.2714
    167  N          7.3070   28.8140   29.6270 N.am  224  VAL224     -0.1963
    168  CA         6.3910   27.9650   28.8780 C.3   224  VAL224      0.1727
    169  C          6.9750   27.8190   27.4800 C.2   224  VAL224      0.2616
    170  O          7.4200   28.8130   26.8780 O.2   224  VAL224     -0.2715
    171  CB         4.9160   28.4530   28.8690 C.3   224  VAL224      0.0290
    172  CG1        4.0200   27.4380   28.1580 C.3   224  VAL224      0.0023
    173  CG2        4.4070   28.6950   30.2980 C.3   224  VAL224      0.0023
    174  N          7.0320   26.5600   27.0000 N.am  225  TYR225     -0.1974
    175  CA         7.6590   26.1910   25.7300 C.3   225  TYR225      0.1639
    176  C          6.6780   25.4950   24.7980 C.2   225  TYR225      0.2290
    177  O          5.8040   24.7640   25.2630 O.2   225  TYR225     -0.2864
    178  CB         8.8540   25.2540   26.0230 C.3   225  TYR225      0.0560
    179  CG         9.9160   25.9340   26.8670 C.ar  225  TYR225     -0.0198
    180  CD1        9.8260   25.9530   28.2600 C.ar  225  TYR225     -0.0009
    181  CD2       10.9710   26.6150   26.2740 C.ar  225  TYR225     -0.0009
    182  CE1       10.7440   26.6650   29.0340 C.ar  225  TYR225      0.0417
    183  CE2       11.9260   27.2790   27.0420 C.ar  225  TYR225      0.0417
    184  CZ        11.7890   27.3340   28.4190 C.ar  225  TYR225      0.1957
    185  OH        12.7300   28.0170   29.1610 O.3   225  TYR225     -0.2866
@<TRIPOS>BOND
     1    28    27    2
     2    27    26    1
     3    20    19    2
     4    26    25    1
     5    26    29    1
     6    19    25   am
     7    19    18    1
     8    17    18    1
     9    18    21    1
    10    29    30    1
    11    14    13    2
    12    13    12    1
    13    23    22   ar
    14    15    12    1
    15    15    16    1
    16    21    22    1
    17    30    31    1
    18    12    11    1
    19    22    24   ar
    20    11     3   am
    21     1     2    1
    22     3     4    2
    23     3     2    1
    24    31    32    1
    25     2     5    1
    26    54    55    2
    27    54    53    1
    28    53    52    1
    29    53    56    1
    30    58    57   ar
    31    32    33    1
    32    34    35    1
    33     5     6    1
    34    99    98    2
    35    57    56    1
    36    57    59   ar
    37     6     8   ar
    38     6     7   ar
    39    35    36    1
    40    43    42    1
    41    98    97    1
    42     8    10   ar
    43     7     9   ar
    44    38    36   am
    45    38    39    1
    46     9    10   ar
    47    36    37    2
    48    44    42    1
    49   100    97    1
    50   100   101    1
    51    41    40    2
    52    42    39    1
    53    97    96    1
    54    39    40    1
    55    40    45   am
    56   105   104    2
    57    48    47    2
    58    47    46    1
    59   102   103    1
    60    45    46    1
    61   114   113    1
    62    90    89    2
    63    46    49    1
    64   104   103    1
    65   104   109   am
    66   113   110    1
    67   110   109    1
    68   110   111    1
    69   103   106    1
    70   106   108    1
    71   106   107    1
    72   112   111    2
    73    89    88    1
    74   111   115   am
    75   176   177    2
    76   176   175    1
    77    49    50    1
    78    49    51    1
    79    88    91    1
    80    88    87    1
    81   175   178    1
    82   175   174    1
    83    91    92    1
    84    93    92    1
    85    93    94    1
    86   121   123   ar
    87   121   120   ar
    88   115   116    1
    89   178   179    1
    90    84    83    2
    91    94    95    1
    92   181   179   ar
    93   181   183   ar
    94   119   120    1
    95   119   116    1
    96   123   124   ar
    97   120   122   ar
    98   116   117    1
    99   179   180   ar
   100   170   169    2
   101    87    83   am
   102   174   169   am
   103    83    82    1
   104   183   184   ar
   105   169   168    1
   106   124   122   ar
   107   124   126   ar
   108   122   125   ar
   109   172   171    1
   110    79    80    1
   111    79    76    1
   112   180   182   ar
   113   117   118    2
   114   117   129   am
   115    82    81    1
   116    82    85    1
   117   184   182   ar
   118   184   185    1
   119    81    77   am
   120   126   128   ar
   121    85    86    1
   122   171   168    1
   123   171   173    1
   124   168   167    1
   125    64    65    1
   126    64    61    1
   127   129   130    1
   128   125   127   ar
   129    65    66    1
   130    76    77    1
   131    76    75    1
   132    77    78    2
   133   167   165   am
   134   128   127   ar
   135    61    62    1
   136    61    60    1
   137   132   131    2
   138    86   151    1
   139   130   131    1
   140    62    63    2
   141    75    69   am
   142    66    60    1
   143   165   166    2
   144   165   164    1
   145   131   133   am
   146   151   150    1
   147   164   163    1
   148    70    69    2
   149    69    68    1
   150    73    72   ar
   151   150   147    1
   152   133   134    1
   153   134   135    1
   154   134   137    1
   155   142   143    1
   156   142   135   am
   157   163   154   am
   158   146   147    1
   159   146   144   am
   160    72    74   ar
   161    72    71    1
   162   147   148    1
   163    68    71    1
   164    68    67    1
   165   155   154    2
   166   143   144    1
   167   141   139   am
   168   135   136    2
   169   144   145    2
   170   154   153    1
   171   137   138    1
   172   139   138    1
   173   139   140    2
   174   148   149    2
   175   153   156    1
   176   153   152    1
   177   156   157    1
   178   157   159   ar
   179   157   158   ar
   180   159   161   ar
   181   158   160   ar
   182   161   162   ar
   183   160   162   ar
