@<TRIPOS>MOLECULE
tmp/5i49A00.pdb
 166 154 0 0 0
SMALL
GASTEIGER

@<TRIPOS>ATOM
      1  N         34.7600 -110.2920   76.7920 N.3   107  PHE107     -0.1227
      2  CA        35.9790 -110.4790   77.5910 C.3   107  PHE107      0.1736
      3  C         35.6290 -110.5280   79.0770 C.2   107  PHE107      0.2596
      4  O         34.4480 -110.5370   79.4350 O.2   107  PHE107     -0.2718
      5  CB        37.0820 -109.4340   77.2770 C.3   107  PHE107      0.0547
      6  CG        36.7290 -108.0040   77.6550 C.ar  107  PHE107     -0.0202
      7  CD1       35.9310 -107.2270   76.8130 C.ar  107  PHE107     -0.0042
      8  CD2       37.2260 -107.4330   78.8230 C.ar  107  PHE107     -0.0042
      9  CE1       35.6170 -105.9080   77.1400 C.ar  107  PHE107     -0.0003
     10  CE2       36.9150 -106.1130   79.1700 C.ar  107  PHE107     -0.0003
     11  CZ        36.1040 -105.3470   78.3210 C.ar  107  PHE107     -0.0000
     12  N         36.6390 -110.5800   79.9360 N.am  108  GLY108     -0.1942
     13  CA        36.3700 -110.5840   81.3610 C.3   108  GLY108      0.2014
     14  C         36.2170 -111.9920   81.9050 C.2   108  GLY108      0.2639
     15  O         36.8240 -112.9280   81.3740 O.2   108  GLY108     -0.2714
     16  N         35.3930 -112.1510   82.9400 N.am  109  SER109     -0.1949
     17  CA        35.3600 -113.4020   83.6990 C.3   109  SER109      0.1924
     18  C         34.9300 -114.6620   82.9400 C.2   109  SER109      0.2314
     19  O         35.4550 -115.7350   83.2170 O.2   109  SER109     -0.2863
     20  CB        34.5330 -113.2460   84.9850 C.3   109  SER109      0.2116
     21  OG        33.1470 -113.2480   84.6990 O.3   109  SER109     -0.2180
     22  N         27.9720 -109.6540   85.5080 N.3   121  ASP121     -0.1239
     23  CA        27.8070 -108.8870   84.2680 C.3   121  ASP121      0.1674
     24  C         28.8130 -109.3240   83.2030 C.2   121  ASP121      0.2266
     25  O         29.8630 -109.8950   83.5100 O.2   121  ASP121     -0.2867
     26  CB        27.7460 -107.3620   84.4630 C.3   121  ASP121      0.1410
     27  CG        28.8620 -106.8240   85.3080 C.2   121  ASP121      0.3668
     28  OD1       29.9700 -107.3930   85.2730 O.co2 121  ASP121     -0.2456
     29  OD2       28.6260 -105.8070   86.0000 O.co2 121  ASP121     -0.2456
     30  N         31.2210 -108.4480   79.8730 N.3   123  ASP123     -0.1239
     31  CA        31.9290 -107.3450   79.2080 C.3   123  ASP123      0.1674
     32  C         31.9350 -107.5610   77.7000 C.2   123  ASP123      0.2266
     33  O         32.3780 -108.6050   77.2250 O.2   123  ASP123     -0.2867
     34  CB        33.3830 -107.2600   79.7090 C.3   123  ASP123      0.1410
     35  CG        33.4970 -106.6280   81.0880 C.2   123  ASP123      0.3668
     36  OD1       32.9740 -105.5140   81.2700 O.co2 123  ASP123     -0.2456
     37  OD2       34.1250 -107.2370   81.9840 O.co2 123  ASP123     -0.2456
     38  N         41.5430 -103.6480   74.8210 N.3   280  PHE280     -0.1227
     39  CA        42.5400 -103.9150   75.8680 C.3   280  PHE280      0.1736
     40  C         42.2380 -105.1830   76.6920 C.2   280  PHE280      0.2596
     41  O         43.1260 -106.0090   76.9480 O.2   280  PHE280     -0.2718
     42  CB        42.7070 -102.6860   76.7800 C.3   280  PHE280      0.0547
     43  CG        41.6070 -102.5240   77.7950 C.ar  280  PHE280     -0.0202
     44  CD1       41.8480 -102.7630   79.1430 C.ar  280  PHE280     -0.0042
     45  CD2       40.3250 -102.1590   77.4030 C.ar  280  PHE280     -0.0042
     46  CE1       40.8340 -102.6320   80.0800 C.ar  280  PHE280     -0.0003
     47  CE2       39.3050 -102.0280   78.3360 C.ar  280  PHE280     -0.0003
     48  CZ        39.5610 -102.2670   79.6780 C.ar  280  PHE280     -0.0000
     49  N         40.9750 -105.3540   77.0640 N.am  281  GLY281     -0.1957
     50  CA        40.5980 -106.4350   77.9730 C.3   281  GLY281      0.1869
     51  C         40.6290 -107.8040   77.3320 C.2   281  GLY281      0.2309
     52  O         40.6080 -108.8270   78.0260 O.2   281  GLY281     -0.2863
     53  N         44.2710 -109.3840   77.8030 N.3   284  ASN284     -0.1225
     54  CA        44.2370 -109.6120   79.2670 C.3   284  ASN284      0.1785
     55  C         43.5360 -110.9100   79.6430 C.2   284  ASN284      0.2597
     56  O         44.0940 -111.8100   80.3170 O.2   284  ASN284     -0.2718
     57  CB        43.4400 -108.4710   79.9550 C.3   284  ASN284      0.1169
     58  CG        44.2760 -107.2400   80.2040 C.2   284  ASN284      0.2627
     59  OD1       45.4830 -107.3250   80.3570 O.2   284  ASN284     -0.2716
     60  ND2       43.6350 -106.0900   80.2500 N.am  284  ASN284     -0.0877
     61  N         42.2750 -110.9710   79.2430 N.am  285  SER285     -0.1952
     62  CA        41.4100 -112.0790   79.6190 C.3   285  SER285      0.1924
     63  C         41.9260 -113.3870   79.0390 C.2   285  SER285      0.2314
     64  O         41.7870 -114.4360   79.6650 O.2   285  SER285     -0.2863
     65  CB        39.9820 -111.8060   79.1510 C.3   285  SER285      0.2116
     66  OG        39.4720 -110.6250   79.7450 O.3   285  SER285     -0.2180
     67  N         44.8520 -114.5820   81.1520 N.3   288  LEU288     -0.1245
     68  CA        44.3600 -115.1630   82.4100 C.3   288  LEU288      0.1561
     69  C         43.7600 -116.5390   82.1630 C.2   288  LEU288      0.2260
     70  O         43.9610 -117.4580   82.9630 O.2   288  LEU288     -0.2867
     71  CB        43.3130 -114.2710   83.0920 C.3   288  LEU288      0.0270
     72  CG        43.6740 -112.8780   83.6100 C.3   288  LEU288      0.0019
     73  CD1       42.4430 -112.2420   84.2260 C.3   288  LEU288      0.0001
     74  CD2       44.8000 -112.9150   84.6120 C.3   288  LEU288      0.0001
     75  N         38.7030 -113.9960   94.8390 N.3   306  LYS306     -0.1245
     76  CA        37.9220 -112.8390   94.4150 C.3   306  LYS306      0.1561
     77  C         36.9130 -112.4960   95.5120 C.2   306  LYS306      0.2260
     78  O         36.8270 -111.3440   95.9330 O.2   306  LYS306     -0.2867
     79  CB        37.1950 -113.1240   93.0990 C.3   306  LYS306      0.0271
     80  CG        36.2750 -112.0030   92.6070 C.3   306  LYS306      0.0035
     81  CD        35.6650 -112.4090   91.2610 C.3   306  LYS306      0.0206
     82  CE        34.7480 -111.3460   90.6870 C.3   306  LYS306      0.1093
     83  NZ        34.2350 -111.7570   89.3380 N.3   306  LYS306     -0.1314
     84  N         37.0530 -109.2020   98.2120 N.3   310  LYS310     -0.1245
     85  CA        35.9810 -108.2160   98.2820 C.3   310  LYS310      0.1561
     86  C         35.4890 -108.0630   99.7150 C.2   310  LYS310      0.2260
     87  O         35.3660 -106.9440  100.2150 O.2   310  LYS310     -0.2867
     88  CB        34.8250 -108.5910   97.3580 C.3   310  LYS310      0.0271
     89  CG        35.1460 -108.3980   95.8730 C.3   310  LYS310      0.0035
     90  CD        33.9040 -108.6230   95.0080 C.3   310  LYS310      0.0206
     91  CE        34.2500 -108.5580   93.5330 C.3   310  LYS310      0.1093
     92  NZ        35.1290 -107.3910   93.2420 N.3   310  LYS310     -0.1314
     93  N         39.9990 -105.7920   97.7900 N.3   315  ASN315     -0.1240
     94  CA        39.5000 -105.6240   96.4280 C.3   315  ASN315      0.1653
     95  C         38.3880 -104.5870   96.4780 C.2   315  ASN315      0.2266
     96  O         37.2610 -104.8760   96.9040 O.2   315  ASN315     -0.2867
     97  CB        38.9930 -106.9690   95.9000 C.3   315  ASN315      0.1155
     98  CG        38.4140 -106.9020   94.4950 C.2   315  ASN315      0.2627
     99  OD1       38.0760 -105.8350   93.9710 O.2   315  ASN315     -0.2716
    100  ND2       38.2630 -108.0750   93.8860 N.am  315  ASN315     -0.0877
    101  N         41.8790 -104.4040   92.1270 N.3   323  THR323     -0.1203
    102  CA        40.7460 -104.8870   91.3530 C.3   323  THR323      0.1994
    103  C         40.7570 -106.4080   91.4090 C.2   323  THR323      0.2619
    104  O         41.7370 -107.0100   91.8560 O.2   323  THR323     -0.2717
    105  CB        40.8880 -104.4920   89.8830 C.3   323  THR323      0.1784
    106  OG1       42.1850 -104.9010   89.4240 O.3   323  THR323     -0.2211
    107  CG2       40.7620 -102.9810   89.7100 C.3   323  THR323      0.0376
    108  N         39.6780 -107.0220   90.9410 N.am  324  SER324     -0.1937
    109  CA        39.6100 -108.4690   90.8380 C.3   324  SER324      0.2055
    110  C         40.6980 -108.9540   89.8900 C.2   324  SER324      0.2643
    111  O         41.3000 -109.9980   90.0970 O.2   324  SER324     -0.2714
    112  CB        38.2370 -108.8760   90.3170 C.3   324  SER324      0.2130
    113  OG        37.2490 -108.6120   91.2970 O.3   324  SER324     -0.2179
    114  N         40.9650 -108.1660   88.8620 N.am  325  TYR325     -0.1973
    115  CA        42.0190 -108.4840   87.9070 C.3   325  TYR325      0.1639
    116  C         43.3880 -108.5830   88.5930 C.2   325  TYR325      0.2290
    117  O         44.1480 -109.5470   88.3700 O.2   325  TYR325     -0.2864
    118  CB        42.0000 -107.4170   86.8120 C.3   325  TYR325      0.0560
    119  CG        43.1310 -107.4360   85.8220 C.ar  325  TYR325     -0.0198
    120  CD1       43.2510 -108.4530   84.8820 C.ar  325  TYR325     -0.0009
    121  CD2       44.0470 -106.3950   85.7860 C.ar  325  TYR325     -0.0009
    122  CE1       44.2780 -108.4450   83.9610 C.ar  325  TYR325      0.0417
    123  CE2       45.0630 -106.3710   84.8650 C.ar  325  TYR325      0.0417
    124  CZ        45.1750 -107.3940   83.9580 C.ar  325  TYR325      0.1957
    125  OH        46.1990 -107.3720   83.0440 O.3   325  TYR325     -0.2866
    126  N         43.6810 -111.7030   90.6380 N.3   328  ASN328     -0.1240
    127  CA        44.0010 -112.8470   89.7670 C.3   328  ASN328      0.1653
    128  C         45.4990 -112.9040   89.4670 C.2   328  ASN328      0.2266
    129  O         46.0930 -113.9770   89.4680 O.2   328  ASN328     -0.2867
    130  CB        43.2150 -112.8010   88.4500 C.3   328  ASN328      0.1155
    131  CG        41.8240 -113.4000   88.5690 C.2   328  ASN328      0.2627
    132  OD1       41.5820 -114.2670   89.4090 O.2   328  ASN328     -0.2716
    133  ND2       40.8990 -112.9290   87.7360 N.am  328  ASN328     -0.0877
    134  N         51.3350 -104.6370   85.5380 N.3   436  ASP436     -0.1239
    135  CA        50.3430 -105.0370   84.5470 C.3   436  ASP436      0.1674
    136  C         51.0600 -105.6660   83.3690 C.2   436  ASP436      0.2266
    137  O         52.0490 -105.1200   82.8760 O.2   436  ASP436     -0.2867
    138  CB        49.5390 -103.8350   84.0640 C.3   436  ASP436      0.1410
    139  CG        48.4550 -104.2370   83.0980 C.2   436  ASP436      0.3668
    140  OD1       48.7250 -104.3110   81.8740 O.co2 436  ASP436     -0.2456
    141  OD2       47.3340 -104.4990   83.5670 O.co2 436  ASP436     -0.2456
    142  N         50.4150 -103.1990   79.9790 N.3   439  GLU439     -0.1245
    143  CA        50.5930 -101.7610   80.0790 C.3   439  GLU439      0.1567
    144  C         51.8220 -101.4410   80.9180 C.2   439  GLU439      0.2260
    145  O         51.7900 -101.5200   82.1490 O.2   439  GLU439     -0.2867
    146  CB        49.3330 -101.1310   80.6630 C.3   439  GLU439      0.0388
    147  CG        48.1740 -101.1490   79.6720 C.3   439  GLU439      0.1160
    148  CD        46.8210 -101.0420   80.3420 C.2   439  GLU439      0.3649
    149  OE1       46.7760 -100.8900   81.5810 O.co2 439  GLU439     -0.2457
    150  OE2       45.7990 -101.1170   79.6260 O.co2 439  GLU439     -0.2457
    151  N         52.7410  -99.3570   84.7690 N.3   442  LEU442     -0.1245
    152  CA        51.5000  -99.1890   85.5110 C.3   442  LEU442      0.1561
    153  C         51.4910 -100.1650   86.6690 C.2   442  LEU442      0.2260
    154  O         51.4510 -101.3770   86.4520 O.2   442  LEU442     -0.2867
    155  CB        50.2850  -99.4440   84.6230 C.3   442  LEU442      0.0270
    156  CG        48.9600  -99.3700   85.3880 C.3   442  LEU442      0.0019
    157  CD1       48.7730  -97.9840   85.9700 C.3   442  LEU442      0.0001
    158  CD2       47.7790  -99.7810   84.4940 C.3   442  LEU442      0.0001
    159  N         49.4860 -101.8040   89.5490 N.3   444  LEU444     -0.1245
    160  CA        48.0870 -102.0020   89.8980 C.3   444  LEU444      0.1561
    161  C         47.8380 -101.6150   91.3450 C.2   444  LEU444      0.2260
    162  O         46.6860 -101.3990   91.7400 O.2   444  LEU444     -0.2867
    163  CB        47.6430 -103.4450   89.6060 C.3   444  LEU444      0.0270
    164  CG        47.8560 -103.9160   88.1620 C.3   444  LEU444      0.0019
    165  CD1       47.3220 -105.3280   87.9740 C.3   444  LEU444      0.0001
    166  CD2       47.2090 -102.9820   87.1470 C.3   444  LEU444      0.0001
@<TRIPOS>BOND
     1    38    39    1
     2    39    40    1
     3    39    42    1
     4    40    41    2
     5    40    49   am
     6    42    43    1
     7     1     2    1
     8     7     9   ar
     9     7     6   ar
    10    49    50    1
    11     9    11   ar
    12    33    32    2
    13     5     2    1
    14     5     6    1
    15    51    50    1
    16    51    52    2
    17    45    43   ar
    18    45    47   ar
    19     2     3    1
    20     6     8   ar
    21    32    31    1
    22    43    44   ar
    23    53    54    1
    24    11    10   ar
    25    47    48   ar
    26     8    10   ar
    27    63    62    1
    28    63    64    2
    29     3     4    2
    30     3    12   am
    31    44    46   ar
    32    65    62    1
    33    65    66    1
    34    31    34    1
    35    31    30    1
    36    61    62    1
    37    61    55   am
    38    54    55    1
    39    54    57    1
    40   150   148   ar
    41    55    56    2
    42   147   148    1
    43   147   146    1
    44    48    46   ar
    45    34    35    1
    46    12    13    1
    47    57    58    1
    48   142   143    1
    49   143   146    1
    50   143   144    1
    51    58    60   am
    52    58    59    2
    53   148   149   ar
    54   144   145    2
    55    35    36   ar
    56    35    37   ar
    57    67    68    1
    58    13    14    1
    59    15    14    2
    60   140   139   ar
    61    14    16   am
    62    69    68    1
    63    69    70    2
    64    68    71    1
    65   137   136    2
    66    16    17    1
    67    18    19    2
    68    18    17    1
    69   125   124    1
    70    71    72    1
    71   139   141   ar
    72   139   138    1
    73    24    25    2
    74    24    23    1
    75   136   135    1
    76    72    73    1
    77    72    74    1
    78    17    20    1
    79   124   122   ar
    80   124   123   ar
    81   122   120   ar
    82   138   135    1
    83    23    26    1
    84    23    22    1
    85    26    27    1
    86   158   156    1
    87   135   134    1
    88   155   156    1
    89   155   152    1
    90    21    20    1
    91   151   152    1
    92   123   121   ar
    93   120   119   ar
    94    28    27   ar
    95    27    29   ar
    96   156   157    1
    97   152   153    1
    98   121   119   ar
    99   119   118    1
   100   154   153    2
   101   118   115    1
   102   166   164    1
   103   133   131   am
   104   115   116    1
   105   115   114    1
   106   165   164    1
   107   164   163    1
   108   117   116    2
   109   130   131    1
   110   130   127    1
   111   131   132    2
   112   114   110   am
   113    83    82    1
   114   106   105    1
   115   128   129    2
   116   128   127    1
   117   159   160    1
   118   163   160    1
   119   107   105    1
   120   127   126    1
   121   105   102    1
   122   110   111    2
   123   110   109    1
   124   160   161    1
   125   112   109    1
   126   112   113    1
   127    82    81    1
   128   109   108    1
   129   108   103   am
   130    81    80    1
   131   161   162    2
   132   102   103    1
   133   102   101    1
   134   103   104    2
   135    80    79    1
   136    79    76    1
   137    92    91    1
   138    91    90    1
   139   100    98   am
   140    99    98    2
   141    76    75    1
   142    76    77    1
   143    98    97    1
   144    90    89    1
   145    77    78    2
   146    89    88    1
   147    97    94    1
   148    94    95    1
   149    94    93    1
   150    95    96    2
   151    88    85    1
   152    84    85    1
   153    85    86    1
   154    86    87    2
