@<TRIPOS>MOLECULE
tmp/5i4eA00.pdb
 201 196 0 0 0
SMALL
GASTEIGER

@<TRIPOS>ATOM
      1  N         11.8210  -20.5400  -19.9870 N.3    86  ILE86      -0.1231
      2  CA        11.8100  -19.5870  -21.1020 C.3    86  ILE86       0.1692
      3  C         11.9940  -20.2480  -22.4930 C.2    86  ILE86       0.2592
      4  O         11.5530  -19.6800  -23.4850 O.2    86  ILE86      -0.2718
      5  CB        12.8060  -18.4140  -20.8520 C.3    86  ILE86       0.0266
      6  CG1       14.2880  -18.8540  -20.8460 C.3    86  ILE86       0.0019
      7  CG2       12.4400  -17.6520  -19.5600 C.3    86  ILE86       0.0020
      8  CD1       15.2280  -17.7240  -21.0710 C.3    86  ILE86       0.0001
      9  N         12.6000  -21.4350  -22.5550 N.am   87  TYR87      -0.1976
     10  CA        12.8190  -22.1810  -23.7970 C.3    87  TYR87       0.1639
     11  C         11.7740  -23.2780  -24.0070 C.2    87  TYR87       0.2290
     12  O         11.4110  -23.9660  -23.0510 O.2    87  TYR87      -0.2864
     13  CB        14.2320  -22.8060  -23.8060 C.3    87  TYR87       0.0560
     14  CG        15.3540  -21.7850  -23.7520 C.ar   87  TYR87      -0.0198
     15  CD1       15.8650  -21.2160  -24.9130 C.ar   87  TYR87      -0.0009
     16  CD2       15.9980  -21.5010  -22.5450 C.ar   87  TYR87      -0.0009
     17  CE1       16.9160  -20.2950  -24.8700 C.ar   87  TYR87       0.0417
     18  CE2       17.0810  -20.6170  -22.4970 C.ar   87  TYR87       0.0417
     19  CZ        17.5180  -19.9950  -23.6540 C.ar   87  TYR87       0.1957
     20  OH        18.5770  -19.1180  -23.5910 O.3    87  TYR87      -0.2866
     21  N         12.1600  -18.9220  -27.6330 N.3    96  VAL96      -0.1245
     22  CA        12.6460  -18.4220  -26.3330 C.3    96  VAL96       0.1561
     23  C         11.9210  -17.1010  -26.0060 C.2    96  VAL96       0.2260
     24  O         11.7450  -16.2890  -26.9070 O.2    96  VAL96      -0.2867
     25  CB        14.1990  -18.3680  -26.1590 C.3    96  VAL96       0.0252
     26  CG1       14.9190  -17.7120  -27.3320 C.3    96  VAL96       0.0019
     27  CG2       14.6030  -17.7120  -24.8430 C.3    96  VAL96       0.0019
     28  N         12.0270  -13.7020  -23.5330 N.3    98  ASN98      -0.1226
     29  CA        12.9460  -12.9920  -22.6550 C.3    98  ASN98       0.1770
     30  C         12.2630  -12.6990  -21.3280 C.2    98  ASN98       0.2439
     31  O         11.2350  -12.0240  -21.2800 O.2    98  ASN98      -0.2733
     32  CB        13.4280  -11.7000  -23.3190 C.3    98  ASN98       0.1168
     33  CG        14.5970  -11.0690  -22.5890 C.2    98  ASN98       0.2627
     34  OD1       15.4140  -11.7620  -21.9820 O.2    98  ASN98      -0.2716
     35  ND2       14.6840   -9.7450  -22.6460 N.am   98  ASN98      -0.0877
     36  N         12.8510  -13.2160  -20.2410 N.am   99  PRO99      -0.2718
     37  CA        12.3960  -13.0850  -18.8540 C.3    99  PRO99       0.1535
     38  C         12.5100  -11.6700  -18.3000 C.2    99  PRO99       0.2599
     39  O         11.6260  -11.2250  -17.5690 O.2    99  PRO99      -0.2715
     40  CB        13.3360  -14.0210  -18.0890 C.3    99  PRO99       0.0310
     41  CG        14.6000  -13.9940  -18.8740 C.3    99  PRO99       0.0237
     42  CD        14.1700  -13.9370  -20.3120 C.3    99  PRO99       0.0939
     43  N         13.5890  -10.9750  -18.6460 N.am  100  TYR100     -0.1960
     44  CA        13.8270   -9.6300  -18.0940 C.3   100  TYR100      0.1771
     45  C         14.2360   -9.6510  -16.6140 C.2   100  TYR100      0.2619
     46  O         13.9650   -8.7120  -15.8670 O.2   100  TYR100     -0.2715
     47  CB        12.6660   -8.6360  -18.3440 C.3   100  TYR100      0.0574
     48  CG        12.6480   -8.0140  -19.7180 C.ar  100  TYR100     -0.0198
     49  CD1       13.7240   -7.2420  -20.1650 C.ar  100  TYR100     -0.0009
     50  CD2       11.5420   -8.1320  -20.5460 C.ar  100  TYR100     -0.0009
     51  CE1       13.6940   -6.6250  -21.4200 C.ar  100  TYR100      0.0417
     52  CE2       11.5030   -7.5330  -21.8000 C.ar  100  TYR100      0.0417
     53  CZ        12.5880   -6.7850  -22.2390 C.ar  100  TYR100      0.1957
     54  OH        12.5610   -6.1870  -23.4770 O.3   100  TYR100     -0.2866
     55  N         14.9040  -10.7290  -16.1970 N.am  101  LYS101     -0.1963
     56  CA        15.4920  -10.9170  -14.8700 C.3   101  LYS101      0.1728
     57  C         16.6030  -11.9300  -15.0010 C.2   101  LYS101      0.2616
     58  O         16.6720  -12.6260  -16.0140 O.2   101  LYS101     -0.2715
     59  CB        14.4610  -11.3080  -13.7850 C.3   101  LYS101      0.0311
     60  CG        13.9560  -12.7480  -13.7960 C.3   101  LYS101      0.0038
     61  CD        13.0220  -12.9730  -12.6260 C.3   101  LYS101      0.0206
     62  CE        12.0820  -14.1290  -12.8410 C.3   101  LYS101      0.1093
     63  NZ        11.0000  -14.1660  -11.8170 N.3   101  LYS101     -0.1314
     64  N         17.4850  -11.9980  -14.0000 N.am  102  GLN102     -0.1963
     65  CA        18.5630  -12.9840  -13.9850 C.3   102  GLN102      0.1733
     66  C         17.9650  -14.3200  -13.5950 C.2   102  GLN102      0.2616
     67  O         17.1460  -14.3710  -12.6820 O.2   102  GLN102     -0.2715
     68  CB        19.6700  -12.5860  -12.9860 C.3   102  GLN102      0.0408
     69  CG        20.7120  -11.6310  -13.5660 C.3   102  GLN102      0.0908
     70  CD        21.7210  -12.3490  -14.4300 C.2   102  GLN102      0.2608
     71  OE1       21.7310  -12.2100  -15.6570 O.2   102  GLN102     -0.2717
     72  NE2       22.5830  -13.1460  -13.8110 N.am  102  GLN102     -0.0878
     73  N         18.3200  -15.3850  -14.3190 N.am  103  LEU103     -0.1977
     74  CA        17.8420  -16.7400  -14.0110 C.3   103  LEU103      0.1596
     75  C         19.0140  -17.7010  -13.7970 C.2   103  LEU103      0.2287
     76  O         19.9500  -17.6930  -14.5950 O.2   103  LEU103     -0.2864
     77  CB        16.9070  -17.3080  -15.0930 C.3   103  LEU103      0.0297
     78  CG        15.6390  -16.5550  -15.4570 C.3   103  LEU103      0.0022
     79  CD1       14.9470  -17.2550  -16.5890 C.3   103  LEU103      0.0001
     80  CD2       14.6920  -16.4400  -14.2820 C.3   103  LEU103      0.0001
     81  N         22.2200  -20.7930  -16.4950 N.3   106  TYR106     -0.1241
     82  CA        23.3800  -20.7680  -17.3730 C.3   106  TYR106      0.1605
     83  C         24.7170  -21.0790  -16.6770 C.2   106  TYR106      0.2264
     84  O         25.7610  -20.5840  -17.1090 O.2   106  TYR106     -0.2867
     85  CB        23.4470  -19.4120  -18.1310 C.3   106  TYR106      0.0534
     86  CG        22.2040  -19.0470  -18.9200 C.ar  106  TYR106     -0.0201
     87  CD1       21.8720  -19.7240  -20.0900 C.ar  106  TYR106     -0.0009
     88  CD2       21.4050  -17.9720  -18.5420 C.ar  106  TYR106     -0.0009
     89  CE1       20.7610  -19.3530  -20.8490 C.ar  106  TYR106      0.0417
     90  CE2       20.2930  -17.6000  -19.2860 C.ar  106  TYR106      0.0417
     91  CZ        19.9710  -18.2970  -20.4380 C.ar  106  TYR106      0.1957
     92  OH        18.8740  -17.9200  -21.1930 O.3   106  TYR106     -0.2866
     93  N         13.4770   -6.0110  -31.7140 N.3   152  SER152     -0.1202
     94  CA        14.3660   -5.2990  -30.8000 C.3   152  SER152      0.2020
     95  C         14.0660   -5.5840  -29.3200 C.2   152  SER152      0.2619
     96  O         12.9550   -5.3470  -28.8340 O.2   152  SER152     -0.2717
     97  CB        14.3650   -3.8020  -31.1170 C.3   152  SER152      0.2103
     98  OG        15.2450   -3.0670  -30.2870 O.3   152  SER152     -0.2182
     99  N         15.0740   -6.1300  -28.6480 N.am  153  GLY153     -0.1942
    100  CA        15.0420   -6.4810  -27.2370 C.3   153  GLY153      0.2014
    101  C         14.4190   -7.8250  -26.9540 C.2   153  GLY153      0.2639
    102  O         14.0440   -8.0700  -25.8130 O.2   153  GLY153     -0.2714
    103  N         14.2820   -8.7130  -27.9720 N.am  154  ALA154     -0.1963
    104  CA        13.6790  -10.0500  -27.7620 C.3   154  ALA154      0.1728
    105  C         14.6390  -10.9920  -27.0840 C.2   154  ALA154      0.2617
    106  O         14.2060  -11.7690  -26.2510 O.2   154  ALA154     -0.2715
    107  CB        13.1730  -10.6470  -29.0650 C.3   154  ALA154      0.0334
    108  N         15.9340  -10.9030  -27.3970 N.am  155  GLY155     -0.1940
    109  CA        16.9380  -11.7520  -26.7390 C.3   155  GLY155      0.2014
    110  C         17.9810  -12.4150  -27.6100 C.2   155  GLY155      0.2639
    111  O         18.7030  -13.2640  -27.1230 O.2   155  GLY155     -0.2714
    112  N         18.1070  -12.0030  -28.8750 N.am  156  LYS156     -0.1963
    113  CA        19.0550  -12.5020  -29.8810 C.3   156  LYS156      0.1728
    114  C         20.5330  -12.4710  -29.4500 C.2   156  LYS156      0.2617
    115  O         21.2170  -13.4640  -29.6640 O.2   156  LYS156     -0.2715
    116  CB        18.9360  -11.6570  -31.1540 C.3   156  LYS156      0.0311
    117  CG        17.5600  -11.7200  -31.8390 C.3   156  LYS156      0.0038
    118  CD        17.5700  -10.8880  -33.1160 C.3   156  LYS156      0.0206
    119  CE        17.7080   -9.3950  -32.8670 C.3   156  LYS156      0.1093
    120  NZ        16.5920   -8.8670  -32.0290 N.3   156  LYS156     -0.1314
    121  N         20.9550  -11.3020  -28.9860 N.am  157  THR157     -0.1937
    122  CA        22.2890  -11.0200  -28.5060 C.3   157  THR157      0.2028
    123  C         22.6390  -11.8050  -27.2650 C.2   157  THR157      0.2642
    124  O         23.7000  -12.3210  -27.1670 O.2   157  THR157     -0.2714
    125  CB        22.4920   -9.5300  -28.2030 C.3   157  THR157      0.1808
    126  OG1       22.3450   -8.7420  -29.3790 O.3   157  THR157     -0.2208
    127  CG2       23.8100   -9.3000  -27.6720 C.3   157  THR157      0.0379
    128  N         21.7210  -11.8710  -26.3220 N.am  158  GLU158     -0.1963
    129  CA        21.8940  -12.6240  -25.1030 C.3   158  GLU158      0.1733
    130  C         21.9930  -14.0920  -25.3970 C.2   158  GLU158      0.2616
    131  O         22.7320  -14.7790  -24.7530 O.2   158  GLU158     -0.2715
    132  CB        20.7850  -12.3840  -24.1090 C.3   158  GLU158      0.0429
    133  CG        20.8020  -11.0370  -23.4300 C.3   158  GLU158      0.1163
    134  CD        22.0070  -10.7950  -22.5510 C.2   158  GLU158      0.3649
    135  OE1       22.7220  -11.7150  -22.1980 O.co2 158  GLU158     -0.2457
    136  OE2       22.2490   -9.6660  -22.2140 O.co2 158  GLU158     -0.2457
    137  N         21.2120  -14.5690  -26.3590 N.am  159  ASN159     -0.1972
    138  CA        21.2440  -15.9940  -26.7130 C.3   159  ASN159      0.1688
    139  C         22.5130  -16.3660  -27.4680 C.2   159  ASN159      0.2292
    140  O         23.0470  -17.4610  -27.2620 O.2   159  ASN159     -0.2864
    141  CB        20.0020  -16.3880  -27.4800 C.3   159  ASN159      0.1181
    142  CG        18.8810  -16.7290  -26.5400 C.2   159  ASN159      0.2629
    143  OD1       18.9090  -17.7540  -25.9130 O.2   159  ASN159     -0.2716
    144  ND2       17.9420  -15.8250  -26.3180 N.am  159  ASN159     -0.0877
    145  N         25.3770  -17.0250  -25.2080 N.3   162  LYS162     -0.1245
    146  CA        25.1840  -18.3240  -24.5800 C.3   162  LYS162      0.1561
    147  C         25.6380  -19.4690  -25.4710 C.2   162  LYS162      0.2260
    148  O         26.0640  -20.4680  -24.9590 O.2   162  LYS162     -0.2867
    149  CB        23.7330  -18.4850  -24.0980 C.3   162  LYS162      0.0271
    150  CG        23.3840  -17.5460  -22.9440 C.3   162  LYS162      0.0035
    151  CD        24.2710  -17.8090  -21.7110 C.3   162  LYS162      0.0206
    152  CE        24.5800  -16.6090  -20.8540 C.3   162  LYS162      0.1093
    153  NZ        23.3590  -16.0220  -20.2410 N.3   162  LYS162     -0.1314
    154  N         15.5000   -1.1340  -26.2040 N.3   208  ASN208     -0.1225
    155  CA        16.5140   -1.9230  -25.5300 C.3   208  ASN208      0.1785
    156  C         17.6220   -1.0330  -24.9690 C.2   208  ASN208      0.2597
    157  O         18.1480   -0.2280  -25.6610 O.2   208  ASN208     -0.2718
    158  CB        17.0350   -2.9160  -26.5560 C.3   208  ASN208      0.1169
    159  CG        17.9560   -3.9620  -26.0040 C.2   208  ASN208      0.2627
    160  OD1       18.2380   -4.0350  -24.8450 O.2   208  ASN208     -0.2716
    161  ND2       18.4390   -4.7820  -26.8830 N.am  208  ASN208     -0.0877
    162  N         18.0330   -1.2820  -23.7400 N.am  209  ASP209     -0.1960
    163  CA        19.0930   -0.5570  -23.0510 C.3   209  ASP209      0.1840
    164  C         20.4800   -0.8940  -23.5670 C.2   209  ASP209      0.2622
    165  O         21.4120   -0.1890  -23.3490 O.2   209  ASP209     -0.2715
    166  CB        19.0620   -0.8490  -21.5640 C.3   209  ASP209      0.1450
    167  CG        17.9770   -0.1260  -20.8450 C.2   209  ASP209      0.3671
    168  OD1       17.3870    0.8030  -21.3750 O.co2 209  ASP209     -0.2456
    169  OD2       17.7090   -0.4930  -19.7100 O.co2 209  ASP209     -0.2456
    170  N         20.5930   -2.0340  -24.1980 N.am  210  ASN210     -0.1958
    171  CA        21.8280   -2.5590  -24.7490 C.3   210  ASN210      0.1819
    172  C         21.5520   -3.0020  -26.1890 C.2   210  ASN210      0.2622
    173  O         21.8550   -4.1240  -26.5750 O.2   210  ASN210     -0.2715
    174  CB        22.3790   -3.7070  -23.8700 C.3   210  ASN210      0.1195
    175  CG        23.6920   -4.2280  -24.3700 C.2   210  ASN210      0.2630
    176  OD1       24.5240   -3.4640  -24.8490 O.2   210  ASN210     -0.2716
    177  ND2       23.8730   -5.5430  -24.3530 N.am  210  ASN210     -0.0877
    178  N         20.9990   -2.0990  -26.9860 N.am  211  SER211     -0.1936
    179  CA        20.6130   -2.3720  -28.3730 C.3   211  SER211      0.2055
    180  C         21.8270   -2.4970  -29.2900 C.2   211  SER211      0.2643
    181  O         22.7010   -1.6540  -29.2280 O.2   211  SER211     -0.2714
    182  CB        19.6430   -1.2970  -28.8650 C.3   211  SER211      0.2130
    183  OG        19.1630   -1.4730  -30.1910 O.3   211  SER211     -0.2179
    184  N         21.8980   -3.5640  -30.1140 N.am  212  SER212     -0.1949
    185  CA        22.9650   -3.7430  -31.1090 C.3   212  SER212      0.1924
    186  C         22.6050   -2.8500  -32.2460 C.2   212  SER212      0.2314
    187  O         21.4860   -2.9450  -32.7880 O.2   212  SER212     -0.2863
    188  CB        23.0560   -5.1880  -31.6000 C.3   212  SER212      0.2116
    189  OG        22.8670   -6.1360  -30.5640 O.3   212  SER212     -0.2180
    190  N         23.6840  -12.7130  -35.5300 N.3   430  ASP430     -0.1239
    191  CA        23.1170  -11.7920  -34.5430 C.3   430  ASP430      0.1674
    192  C         22.8390  -10.4010  -35.1410 C.2   430  ASP430      0.2266
    193  O         23.5270   -9.4310  -34.8220 O.2   430  ASP430     -0.2867
    194  CB        24.0420  -11.6670  -33.3310 C.3   430  ASP430      0.1410
    195  CG        23.4550  -10.7990  -32.2360 C.2   430  ASP430      0.3668
    196  OD1       22.3200  -10.3070  -32.4100 O.co2 430  ASP430     -0.2456
    197  OD2       24.1290  -10.6070  -31.2020 O.co2 430  ASP430     -0.2456
    198  N         17.5160   -6.2870  -34.7310 N.3   433  GLY433     -0.1225
    199  CA        16.1170   -6.6610  -34.8450 C.3   433  GLY433      0.1811
    200  C         15.1310   -5.6590  -35.4000 C.2   433  GLY433      0.2280
    201  O         15.4050   -4.4610  -35.4660 O.2   433  GLY433     -0.2866
@<TRIPOS>BOND
     1   190   191    1
     2   201   200    2
     3   200   199    1
     4   192   193    2
     5   192   191    1
     6   199   198    1
     7   191   194    1
     8   194   195    1
     9   118   119    1
    10   118   117    1
    11   119   120    1
    12   187   186    2
    13   196   195   ar
    14   186   185    1
    15   195   197   ar
    16   117   116    1
    17    93    94    1
    18   188   185    1
    19   188   189    1
    20   116   113    1
    21    97    94    1
    22    97    98    1
    23   185   184    1
    24    94    95    1
    25   183   182    1
    26   184   180   am
    27   113   114    1
    28   113   112    1
    29   115   114    2
    30   114   121   am
    31   126   125    1
    32    95    96    2
    33    95    99   am
    34   180   181    2
    35   180   179    1
    36   107   104    1
    37   121   122    1
    38   112   110   am
    39   182   179    1
    40    99   100    1
    41   122   125    1
    42   122   123    1
    43   179   178    1
    44   125   127    1
    45   103   104    1
    46   103   101   am
    47   104   105    1
    48    21    22    1
    49   110   111    2
    50   110   109    1
    51   141   138    1
    52   141   142    1
    53   139   140    2
    54   139   138    1
    55   108   105   am
    56   108   109    1
    57    26    25    1
    58   123   124    2
    59   123   128   am
    60   100   101    1
    61   105   106    2
    62   178   172   am
    63   101   102    2
    64    24    23    2
    65   161   159   am
    66   138   137    1
    67   173   172    2
    68   158   159    1
    69   158   155    1
    70   142   144   am
    71   142   143    2
    72   137   130   am
    73    22    25    1
    74    22    23    1
    75   128   129    1
    76   154   155    1
    77   172   171    1
    78    25    27    1
    79   159   160    2
    80   157   156    2
    81   155   156    1
    82   147   148    2
    83   147   146    1
    84   130   129    1
    85   130   131    2
    86   145   146    1
    87   129   132    1
    88   156   162   am
    89    15    17   ar
    90    15    14   ar
    91    17    19   ar
    92   176   175    2
    93   171   170    1
    94   171   174    1
    95   146   149    1
    96   175   177   am
    97   175   174    1
    98   170   164   am
    99   132   133    1
   100   149   150    1
   101    11    10    1
   102    11    12    2
   103    13    10    1
   104    13    14    1
   105    10     9    1
   106    14    16   ar
   107   162   163    1
   108    19    20    1
   109    19    18   ar
   110   164   165    2
   111   164   163    1
   112    28    29    1
   113     4     3    2
   114    54    53    1
   115   133   134    1
   116    32    29    1
   117    32    33    1
   118   163   166    1
   119   150   151    1
   120    29    30    1
   121    35    33   am
   122    33    34    2
   123     9     3   am
   124   134   136   ar
   125   134   135   ar
   126    16    18   ar
   127     3     2    1
   128    53    52   ar
   129    53    51   ar
   130    52    50   ar
   131   151   152    1
   132   166   167    1
   133    51    49   ar
   134   168   167   ar
   135    30    31    2
   136    30    36   am
   137    92    91    1
   138     2     5    1
   139     2     1    1
   140     8     6    1
   141   152   153    1
   142     5     6    1
   143     5     7    1
   144    89    91   ar
   145    89    87   ar
   146   167   169   ar
   147    50    48   ar
   148    91    90   ar
   149    42    36    1
   150    42    41    1
   151    36    37    1
   152    49    48   ar
   153    87    86   ar
   154    48    47    1
   155    90    88   ar
   156    86    88   ar
   157    86    85    1
   158    41    40    1
   159    37    38    1
   160    37    40    1
   161    43    38   am
   162    43    44    1
   163    47    44    1
   164    38    39    2
   165    85    82    1
   166    44    45    1
   167    82    83    1
   168    82    81    1
   169    84    83    2
   170    45    55   am
   171    45    46    2
   172    79    78    1
   173    55    56    1
   174    58    57    2
   175    71    70    2
   176    78    77    1
   177    78    80    1
   178    77    74    1
   179    57    56    1
   180    57    64   am
   181    56    59    1
   182    76    75    2
   183    70    72   am
   184    70    69    1
   185    73    74    1
   186    73    66   am
   187    74    75    1
   188    64    65    1
   189    65    66    1
   190    65    68    1
   191    60    59    1
   192    60    61    1
   193    66    67    2
   194    69    68    1
   195    62    61    1
   196    62    63    1
