@<TRIPOS>MOLECULE
tmp/5i4mA00.pdb
 140 134 0 0 0
SMALL
GASTEIGER

@<TRIPOS>ATOM
      1  N         13.8750    4.8670   17.6400 N.3    85  HIS85      -0.1241
      2  CA        14.4800    6.0750   17.1060 C.3    85  HIS85       0.1621
      3  C         15.5820    6.5800   18.0230 C.2    85  HIS85       0.2264
      4  O         15.5090    6.4480   19.2460 O.2    85  HIS85      -0.2867
      5  CB        13.4340    7.1790   16.9130 C.3    85  HIS85       0.0745
      6  CG        12.6620    7.5140   18.1530 C.ar   85  HIS85       0.0817
      7  ND1       12.9380    8.6240   18.9240 N.ar   85  HIS85      -0.2268
      8  CD2       11.6130    6.8970   18.7440 C.ar   85  HIS85       0.1154
      9  CE1       12.0980    8.6670   19.9440 C.ar   85  HIS85       0.1986
     10  NE2       11.2800    7.6350   19.8530 N.ar   85  HIS85      -0.2212
     11  N         13.2970   14.9880   21.2540 N.3    89  GLN89      -0.1245
     12  CA        12.7330   16.3140   21.3740 C.3    89  GLN89       0.1566
     13  C         13.7990   17.2890   21.8600 C.2    89  GLN89       0.2260
     14  O         14.8340   16.8730   22.3890 O.2    89  GLN89      -0.2867
     15  CB        11.5690   16.2810   22.3580 C.3    89  GLN89       0.0367
     16  CG        10.4360   15.4300   21.8860 C.3    89  GLN89       0.0905
     17  CD         9.6020   16.1820   20.8780 C.2    89  GLN89       0.2608
     18  OE1        9.6150   17.4140   20.8580 O.2    89  GLN89      -0.2717
     19  NE2        8.8830   15.4530   20.0270 N.am   89  GLN89      -0.0878
     20  N         13.4260    7.8600   25.8240 N.3    96  ASP96      -0.1239
     21  CA        12.4500    7.8240   24.7320 C.3    96  ASP96       0.1674
     22  C         13.1600    7.4740   23.4310 C.2    96  ASP96       0.2266
     23  O         14.1360    8.1290   23.0510 O.2    96  ASP96      -0.2867
     24  CB        11.7450    9.1830   24.6520 C.3    96  ASP96       0.1410
     25  CG        10.7570    9.3050   23.5010 C.2    96  ASP96       0.3668
     26  OD1       10.4600    8.3110   22.7950 O.co2  96  ASP96      -0.2456
     27  OD2       10.2340   10.4410   23.3380 O.co2  96  ASP96      -0.2456
     28  N         11.7240   10.1610   13.9640 N.3   130  GLU130     -0.1231
     29  CA        10.4660    9.6210   14.4650 C.3   130  GLU130      0.1699
     30  C          9.6610   10.6770   15.2100 C.2   130  GLU130      0.2592
     31  O          8.4310   10.6250   15.1930 O.2   130  GLU130     -0.2718
     32  CB        10.7200    8.3940   15.3490 C.3   130  GLU130      0.0402
     33  CG         9.4590    7.6750   15.8510 C.3   130  GLU130      0.1161
     34  CD         8.8610    8.3160   17.0960 C.2   130  GLU130      0.3649
     35  OE1        9.5190    9.1930   17.6980 O.co2 130  GLU130     -0.2457
     36  OE2        7.7290    7.9540   17.4640 O.co2 130  GLU130     -0.2457
     37  N         10.3220   11.6570   15.8440 N.am  131  GLU131     -0.1979
     38  CA         9.5960   12.5390   16.7590 C.3   131  GLU131      0.1602
     39  C          8.6610   13.4890   16.0220 C.2   131  GLU131      0.2287
     40  O          7.6640   13.9420   16.6000 O.2   131  GLU131     -0.2864
     41  CB        10.5650   13.3520   17.6220 C.3   131  GLU131      0.0415
     42  CG        11.2850   12.5550   18.7170 C.3   131  GLU131      0.1163
     43  CD        10.4010   12.2730   19.9290 C.2   131  GLU131      0.3649
     44  OE1        9.1860   12.5520   19.8790 O.co2 131  GLU131     -0.2457
     45  OE2       10.9200   11.7630   20.9480 O.co2 131  GLU131     -0.2457
     46  N          5.2970   13.1580   12.6330 N.3   138  ALA138     -0.1231
     47  CA         6.0430   12.0640   13.2290 C.3   138  ALA138      0.1694
     48  C          6.0230   10.8210   12.3400 C.2   138  ALA138      0.2591
     49  O          5.1760   10.6660   11.4560 O.2   138  ALA138     -0.2718
     50  CB         5.4510   11.7090   14.5900 C.3   138  ALA138      0.0304
     51  N          6.9830    9.9300   12.5950 N.am  139  MET139     -0.1979
     52  CA         6.9540    8.5560   12.0960 C.3   139  MET139      0.1605
     53  C          6.9670    8.4880   10.5670 C.2   139  MET139      0.2287
     54  O          6.4840    7.5210    9.9760 O.2   139  MET139     -0.2864
     55  CB         5.7340    7.8160   12.6540 C.3   139  MET139      0.0413
     56  CG         5.7240    7.7120   14.1840 C.3   139  MET139      0.0598
     57  SD         4.0520    7.8080   14.8830 S.3   139  MET139     -0.1393
     58  CE         3.2250    6.5000   13.9860 C.3   139  MET139      0.0692
     59  N          9.8280    0.1720   24.4480 N.3   192  HIS192     -0.1241
     60  CA         9.7380    1.6170   24.6710 C.3   192  HIS192      0.1621
     61  C          9.3020    1.8870   26.1040 C.2   192  HIS192      0.2264
     62  O          8.6250    1.0630   26.7200 O.2   192  HIS192     -0.2867
     63  CB         8.7300    2.2430   23.7020 C.3   192  HIS192      0.0745
     64  CG         8.9880    3.6840   23.3900 C.ar  192  HIS192      0.0817
     65  ND1        8.7210    4.7020   24.2830 N.ar  192  HIS192     -0.2268
     66  CD2        9.4570    4.2790   22.2660 C.ar  192  HIS192      0.1154
     67  CE1        9.0210    5.8640   23.7200 C.ar  192  HIS192      0.1986
     68  NE2        9.4720    5.6340   22.4990 N.ar  192  HIS192     -0.2212
     69  N          5.8490    6.3500   28.7900 N.3   195  GLN195     -0.1245
     70  CA         5.6280    7.7850   28.6250 C.3   195  GLN195      0.1566
     71  C          4.3530    8.2550   29.3130 C.2   195  GLN195      0.2260
     72  O          3.8680    9.3590   29.0410 O.2   195  GLN195     -0.2867
     73  CB         5.6210    8.1860   27.1450 C.3   195  GLN195      0.0367
     74  CG         6.9060    7.7740   26.4430 C.3   195  GLN195      0.0905
     75  CD         6.8950    8.1350   24.9820 C.2   195  GLN195      0.2608
     76  OE1        6.1720    7.5250   24.2000 O.2   195  GLN195     -0.2717
     77  NE2        7.7020    9.1270   24.6010 N.am  195  GLN195     -0.0878
     78  N         -4.1250    9.3860   16.0560 N.3   214  GLN214     -0.1245
     79  CA        -3.7320   10.7860   16.1610 C.3   214  GLN214      0.1566
     80  C         -4.1600   11.5560   14.9200 C.2   214  GLN214      0.2260
     81  O         -4.2290   11.0060   13.8170 O.2   214  GLN214     -0.2867
     82  CB        -2.2180   10.9510   16.3180 C.3   214  GLN214      0.0367
     83  CG        -1.5940   10.1280   17.4320 C.3   214  GLN214      0.0905
     84  CD        -0.2230   10.6600   17.8160 C.2   214  GLN214      0.2608
     85  OE1       -0.0680   11.8460   18.0750 O.2   214  GLN214     -0.2717
     86  NE2        0.7770    9.7860   17.8350 N.am  214  GLN214     -0.0878
     87  N         -2.8980   15.4910   13.5650 N.3   216  TRP216     -0.1241
     88  CA        -2.1320   16.7140   13.7700 C.3   216  TRP216      0.1605
     89  C         -2.5100   17.7530   12.7220 C.2   216  TRP216      0.2264
     90  O         -2.7920   17.4180   11.5670 O.2   216  TRP216     -0.2867
     91  CB        -0.6230   16.4720   13.6690 C.3   216  TRP216      0.0550
     92  CG        -0.0180   15.5850   14.7200 C.ar  216  TRP216      0.0003
     93  CD1       -0.6680   14.7930   15.6230 C.ar  216  TRP216      0.0946
     94  CD2        1.3810   15.4070   14.9570 C.ar  216  TRP216      0.0152
     95  NE1        0.2490   14.1260   16.4160 N.ar  216  TRP216     -0.2442
     96  CE2        1.5140   14.4910   16.0240 C.ar  216  TRP216      0.0810
     97  CE3        2.5370   15.9430   14.3700 C.ar  216  TRP216      0.0012
     98  CZ2        2.7630   14.0940   16.5180 C.ar  216  TRP216      0.0191
     99  CZ3        3.7740   15.5580   14.8650 C.ar  216  TRP216      0.0001
    100  CH2        3.8770   14.6420   15.9270 C.ar  216  TRP216      0.0015
    101  N         -5.5340   13.2370   19.9660 N.3   289  ARG289     -0.1245
    102  CA        -5.3830   11.7850   20.0330 C.3   289  ARG289      0.1563
    103  C         -6.5800   11.1760   20.7500 C.2   289  ARG289      0.2260
    104  O         -7.1300   11.7770   21.6790 O.2   289  ARG289     -0.2867
    105  CB        -4.0980   11.3790   20.7790 C.3   289  ARG289      0.0307
    106  CG        -2.9210   12.2810   20.4510 C.3   289  ARG289      0.0489
    107  CD        -1.6490   11.8240   21.1420 C.3   289  ARG289      0.2205
    108  NE        -0.5810   12.7600   20.8190 N.pl3 289  ARG289     -0.0865
    109  CZ         0.7050   12.4400   20.7750 C.cat 289  ARG289      0.5346
    110  NH1        1.0930   11.1980   21.0570 N.pl3 289  ARG289      0.1354
    111  NH2        1.5950   13.3530   20.4150 N.pl3 289  ARG289      0.1354
    112  N          1.3780    7.2800   22.9050 N.3   357  ALA357     -0.1231
    113  CA         2.2170    7.9040   21.8930 C.3   357  ALA357      0.1694
    114  C          2.1930    7.0810   20.6120 C.2   357  ALA357      0.2593
    115  O          1.7520    5.9270   20.5910 O.2   357  ALA357     -0.2718
    116  CB         3.6600    8.0440   22.3860 C.3   357  ALA357      0.0304
    117  N          2.6580    7.7000   19.5360 N.am  358  GLY358     -0.1942
    118  CA         2.9290    6.9800   18.3130 C.3   358  GLY358      0.2014
    119  C          4.3430    6.4250   18.3240 C.2   358  GLY358      0.2638
    120  O          5.2410    6.9670   18.9670 O.2   358  GLY358     -0.2714
    121  N          4.5250    5.3190   17.6070 N.am  359  HIS359     -0.1973
    122  CA         5.8220    4.6800   17.4800 C.3   359  HIS359      0.1656
    123  C          5.9630    4.1570   16.0660 C.2   359  HIS359      0.2291
    124  O          4.9720    3.9170   15.3810 O.2   359  HIS359     -0.2864
    125  CB         5.9750    3.5360   18.4800 C.3   359  HIS359      0.0771
    126  CG         5.6430    3.9390   19.8730 C.ar  359  HIS359      0.0820
    127  ND1        6.5240    4.6420   20.6660 N.ar  359  HIS359     -0.2267
    128  CD2        4.5130    3.7850   20.6010 C.ar  359  HIS359      0.1154
    129  CE1        5.9540    4.8850   21.8340 C.ar  359  HIS359      0.1986
    130  NE2        4.7370    4.3700   21.8230 N.ar  359  HIS359     -0.2212
    131  N          9.1740   13.5590   27.2550 N.3   383  HIS383     -0.1241
    132  CA         9.3320   14.8360   26.5590 C.3   383  HIS383      0.1621
    133  C          9.6760   15.9620   27.5320 C.2   383  HIS383      0.2264
    134  O          9.3690   17.1330   27.2940 O.2   383  HIS383     -0.2867
    135  CB         8.0970   15.1580   25.7110 C.3   383  HIS383      0.0745
    136  CG         8.0270   14.3230   24.4640 C.ar  383  HIS383      0.0817
    137  ND1        7.1640   14.5830   23.4230 N.ar  383  HIS383     -0.2268
    138  CD2        8.7460   13.2330   24.0950 C.ar  383  HIS383      0.1154
    139  CE1        7.3500   13.6870   22.4670 C.ar  383  HIS383      0.1986
    140  NE2        8.3070   12.8570   22.8490 N.ar  383  HIS383     -0.2212
@<TRIPOS>BOND
     1    54    53    2
     2    53    52    1
     3    49    48    2
     4    90    89    2
     5    52    51    1
     6    52    55    1
     7    48    51   am
     8    48    47    1
     9    46    47    1
    10    55    56    1
    11    89    88    1
    12    47    50    1
    13    87    88    1
    14    91    88    1
    15    91    92    1
    16    81    80    2
    17    28    29    1
    18    58    57    1
    19    56    57    1
    20    97    99   ar
    21    97    94   ar
    22    29    30    1
    23    29    32    1
    24    92    94   ar
    25    92    93   ar
    26    99   100   ar
    27    80    79    1
    28    94    96   ar
    29    31    30    2
    30    30    37   am
    31    32    33    1
    32   124   123    2
    33    93    95   ar
    34    37    38    1
    35    33    34    1
    36   100    98   ar
    37    39    40    2
    38    39    38    1
    39    96    95   ar
    40    96    98   ar
    41    78    79    1
    42   123   122    1
    43    79    82    1
    44    82    83    1
    45    38    41    1
    46     5     2    1
    47     5     6    1
    48    34    36   ar
    49    34    35   ar
    50     2     1    1
    51     2     3    1
    52    83    84    1
    53   122   121    1
    54   122   125    1
    55   121   119   am
    56    41    42    1
    57    84    86   am
    58    84    85    2
    59     3     4    2
    60     6     8   ar
    61     6     7   ar
    62   118   119    1
    63   118   117    1
    64   119   120    2
    65   125   126    1
    66    42    43    1
    67     8    10   ar
    68     7     9   ar
    69   117   114   am
    70    10     9   ar
    71   126   128   ar
    72   126   127   ar
    73    44    43   ar
    74    43    45   ar
    75   101   102    1
    76    19    17   am
    77   102   103    1
    78   102   105    1
    79   111   109    1
    80   106   105    1
    81   106   107    1
    82   115   114    2
    83   128   130   ar
    84   114   113    1
    85   127   129   ar
    86   103   104    2
    87   109   108    2
    88   109   110    1
    89   108   107    1
    90    18    17    2
    91    17    16    1
    92    11    12    1
    93    12    13    1
    94    12    15    1
    95   130   129   ar
    96    13    14    2
    97    16    15    1
    98   113   116    1
    99   113   112    1
   100    66    68   ar
   101    66    64   ar
   102   139   140   ar
   103   139   137   ar
   104    68    67   ar
   105    26    25   ar
   106   140   138   ar
   107    23    22    2
   108    27    25   ar
   109    64    63    1
   110    64    65   ar
   111   137   136   ar
   112    22    21    1
   113    25    24    1
   114    63    60    1
   115    67    65   ar
   116   138   136   ar
   117    76    75    2
   118    59    60    1
   119   136   135    1
   120    77    75   am
   121    24    21    1
   122    60    61    1
   123    21    20    1
   124    75    74    1
   125   135   132    1
   126    61    62    2
   127    74    73    1
   128   132   131    1
   129   132   133    1
   130    73    70    1
   131   134   133    2
   132    70    69    1
   133    70    71    1
   134    72    71    2
