@<TRIPOS>MOLECULE
tmp/5i4nA00.pdb
 201 186 0 0 0
SMALL
GASTEIGER

@<TRIPOS>ATOM
      1  N        -12.1350  -10.8280    0.3230 N.3    15  LEU15      -0.1245
      2  CA       -11.2360  -11.8380    0.8870 C.3    15  LEU15       0.1561
      3  C        -11.9820  -13.1250    1.2130 C.2    15  LEU15       0.2260
      4  O        -11.4850  -13.9660    1.9490 O.2    15  LEU15      -0.2867
      5  CB       -10.5410  -11.3100    2.1390 C.3    15  LEU15       0.0270
      6  CG        -9.6880  -10.0530    1.9640 C.3    15  LEU15       0.0019
      7  CD1       -8.9390   -9.7330    3.2490 C.3    15  LEU15       0.0001
      8  CD2       -8.7380  -10.1220    0.7900 C.3    15  LEU15       0.0001
      9  N        -15.2560  -15.6960    2.3610 N.3    17  GLN17      -0.1231
     10  CA       -16.2140  -15.8640    3.4230 C.3    17  GLN17       0.1698
     11  C        -15.5080  -16.4020    4.6510 C.2    17  GLN17       0.2593
     12  O        -14.6010  -17.2280    4.5230 O.2    17  GLN17      -0.2718
     13  CB       -17.2850  -16.8710    3.0150 C.3    17  GLN17       0.0381
     14  CG       -18.1770  -16.3970    1.9030 C.3    17  GLN17       0.0905
     15  CD       -19.2460  -17.4120    1.5230 C.2    17  GLN17       0.2608
     16  OE1      -19.5790  -18.3110    2.2950 O.2    17  GLN17      -0.2717
     17  NE2      -19.7940  -17.2610    0.3270 N.am   17  GLN17      -0.0878
     18  N        -15.9610  -15.9840    5.8280 N.am   18  GLY18      -0.1942
     19  CA       -15.6090  -16.6420    7.0630 C.3    18  GLY18       0.2014
     20  C        -16.8330  -17.3900    7.5440 C.2    18  GLY18       0.2639
     21  O        -17.6860  -17.7660    6.7230 O.2    18  GLY18      -0.2714
     22  N        -16.9700  -17.5570    8.8510 N.am   19  THR19      -0.1950
     23  CA       -18.0760  -18.3130    9.3970 C.3    19  THR19       0.1897
     24  C        -19.2720  -17.3610    9.5230 C.2    19  THR19       0.2313
     25  O        -19.3550  -16.5670   10.4630 O.2    19  THR19      -0.2863
     26  CB       -17.6990  -18.9320   10.7530 C.3    19  THR19       0.1794
     27  OG1      -16.5670  -19.8020   10.5940 O.3    19  THR19      -0.2208
     28  CG2      -18.8780  -19.7440   11.3020 C.3    19  THR19       0.0378
     29  N        -19.7880  -14.8710    7.7150 N.3    21  THR21      -0.1218
     30  CA       -19.2760  -13.5320    7.4380 C.3    21  THR21       0.1862
     31  C        -18.8190  -13.4020    6.0040 C.2    21  THR21       0.2287
     32  O        -18.4890  -14.3750    5.3360 O.2    21  THR21      -0.2866
     33  CB       -18.0550  -13.2260    8.3160 C.3    21  THR21       0.1770
     34  OG1      -17.0030  -14.1630    7.9960 O.3    21  THR21      -0.2211
     35  CG2      -18.4260  -13.3260    9.7590 C.3    21  THR21       0.0375
     36  N        -15.7910  -11.1100    4.1490 N.3    23  ILE23      -0.1245
     37  CA       -14.6330  -10.3360    4.5860 C.3    23  ILE23       0.1561
     38  C        -14.0540   -9.5460    3.4130 C.2    23  ILE23       0.2260
     39  O        -13.9540  -10.0330    2.2790 O.2    23  ILE23      -0.2867
     40  CB       -13.5570  -11.2790    5.1190 C.3    23  ILE23       0.0252
     41  CG1      -14.0880  -12.1570    6.2640 C.3    23  ILE23       0.0019
     42  CG2      -12.3620  -10.5070    5.6300 C.3    23  ILE23       0.0019
     43  CD1      -14.7680  -11.4470    7.3330 C.3    23  ILE23       0.0001
     44  N         -9.6270   -3.9940    7.6690 N.3    43  LEU43      -0.1245
     45  CA       -10.3040   -5.2570    7.4080 C.3    43  LEU43       0.1561
     46  C        -11.7630   -5.0620    7.8050 C.2    43  LEU43       0.2260
     47  O        -12.0690   -4.6000    8.8980 O.2    43  LEU43      -0.2867
     48  CB        -9.6350   -6.3400    8.2720 C.3    43  LEU43       0.0270
     49  CG        -9.8770   -7.8250    8.0240 C.3    43  LEU43       0.0019
     50  CD1      -11.2340   -8.2160    8.4760 C.3    43  LEU43       0.0001
     51  CD2       -9.5960   -8.2580    6.6090 C.3    43  LEU43       0.0001
     52  N        -15.4000   -6.8700    8.3170 N.3    45  LYS45      -0.1245
     53  CA       -16.1240   -8.1310    8.5180 C.3    45  LYS45       0.1561
     54  C        -17.6200   -7.8120    8.5260 C.2    45  LYS45       0.2260
     55  O        -18.0980   -7.0930    9.4040 O.2    45  LYS45      -0.2867
     56  CB       -15.7040   -8.7950    9.8300 C.3    45  LYS45       0.0271
     57  CG       -14.2150   -8.8100   10.0070 C.3    45  LYS45       0.0035
     58  CD       -13.7610   -9.5950   11.2170 C.3    45  LYS45       0.0206
     59  CE       -13.8620  -11.0350   10.9980 C.3    45  LYS45       0.1093
     60  NZ       -12.9380  -11.7840   11.9100 N.3    45  LYS45      -0.1314
     61  N        -21.5650  -12.4490   17.5560 N.3    58  PHE58      -0.1241
     62  CA       -20.3280  -11.9430   16.9630 C.3    58  PHE58       0.1605
     63  C        -19.9200  -10.6060   17.5500 C.2    58  PHE58       0.2264
     64  O        -18.7730  -10.4110   17.9390 O.2    58  PHE58      -0.2867
     65  CB       -20.5150  -11.7760   15.4480 C.3    58  PHE58       0.0534
     66  CG       -19.3070  -11.2900   14.7330 C.ar   58  PHE58      -0.0203
     67  CD1      -18.4500  -12.1750   14.1350 C.ar   58  PHE58      -0.0042
     68  CD2      -19.0610   -9.9460   14.6330 C.ar   58  PHE58      -0.0042
     69  CE1      -17.3130  -11.7190   13.4570 C.ar   58  PHE58      -0.0003
     70  CE2      -17.9400   -9.4740   13.9580 C.ar   58  PHE58      -0.0003
     71  CZ       -17.0630  -10.3840   13.3780 C.ar   58  PHE58      -0.0000
     72  N         -5.9020   -8.4260   18.3840 N.3    74  VAL74      -0.1245
     73  CA        -6.1920   -7.5170   17.2750 C.3    74  VAL74       0.1561
     74  C         -6.9840   -6.2990   17.7150 C.2    74  VAL74       0.2260
     75  O         -7.8640   -6.3670   18.6050 O.2    74  VAL74      -0.2867
     76  CB        -6.9050   -8.2900   16.1140 C.3    74  VAL74       0.0252
     77  CG1       -8.3810   -8.5760   16.4640 C.3    74  VAL74       0.0019
     78  CG2       -6.7780   -7.5760   14.7900 C.3    74  VAL74       0.0019
     79  N        -11.7320   -3.4680   11.4760 N.3    90  GLN90      -0.1231
     80  CA       -10.5740   -4.0140   12.1820 C.3    90  GLN90       0.1698
     81  C         -9.2800   -3.5630   11.5040 C.2    90  GLN90       0.2592
     82  O         -9.2460   -3.2370   10.3110 O.2    90  GLN90      -0.2718
     83  CB       -10.6770   -5.5540   12.1510 C.3    90  GLN90       0.0381
     84  CG        -9.6400   -6.3450   12.9270 C.3    90  GLN90       0.0905
     85  CD       -10.0410   -7.7800   13.0670 C.2    90  GLN90       0.2608
     86  OE1       -9.5380   -8.6540   12.3810 O.2    90  GLN90      -0.2717
     87  NE2      -10.9760   -8.0370   13.9670 N.am   90  GLN90      -0.0878
     88  N         -8.1910   -3.5780   12.2870 N.am   91  GLU91      -0.1966
     89  CA        -6.9040   -3.3060   11.6970 C.3    91  GLU91       0.1733
     90  C         -6.6040   -4.3500   10.6670 C.2    91  GLU91       0.2616
     91  O         -6.9410   -5.5180   10.8330 O.2    91  GLU91      -0.2715
     92  CB        -5.7870   -3.2620   12.7470 C.3    91  GLU91       0.0429
     93  CG        -5.4760   -4.5710   13.4260 C.3    91  GLU91       0.1163
     94  CD        -4.2070   -4.5000   14.3030 C.2    91  GLU91       0.3649
     95  OE1       -3.1360   -4.0310   13.8340 O.co2  91  GLU91      -0.2457
     96  OE2       -4.2890   -4.9250   15.4590 O.co2  91  GLU91      -0.2457
     97  N         -5.9590   -3.9100    9.5910 N.am   92  PHE92      -0.1960
     98  CA        -5.5190   -4.8210    8.5450 C.3    92  PHE92       0.1771
     99  C         -4.1050   -5.2690    8.8900 C.2    92  PHE92       0.2619
    100  O         -3.1910   -4.4460    9.0730 O.2    92  PHE92      -0.2715
    101  CB        -5.5650   -4.1870    7.1530 C.3    92  PHE92       0.0574
    102  CG        -5.3020   -5.1830    6.0920 C.ar   92  PHE92      -0.0200
    103  CD1       -6.3330   -5.9560    5.6080 C.ar   92  PHE92      -0.0042
    104  CD2       -4.0150   -5.4000    5.6330 C.ar   92  PHE92      -0.0042
    105  CE1       -6.0940   -6.9250    4.6550 C.ar   92  PHE92      -0.0003
    106  CE2       -3.7710   -6.3670    4.6920 C.ar   92  PHE92      -0.0003
    107  CZ        -4.8110   -7.1320    4.2100 C.ar   92  PHE92      -0.0000
    108  N         -3.9530   -6.5770    9.0360 N.am   93  VAL93      -0.1977
    109  CA        -2.6770   -7.1800    9.4270 C.3    93  VAL93       0.1596
    110  C         -1.9560   -7.6310    8.1740 C.2    93  VAL93       0.2287
    111  O         -2.4280   -8.4660    7.4070 O.2    93  VAL93      -0.2864
    112  CB        -2.9020   -8.3480   10.3780 C.3    93  VAL93       0.0276
    113  CG1       -1.5600   -8.9760   10.7040 C.3    93  VAL93       0.0022
    114  CG2       -3.5820   -7.8900   11.6060 C.3    93  VAL93       0.0022
    115  N         -1.1710  -11.3950    7.0910 N.3    96  GLY96      -0.1210
    116  CA        -2.3290  -12.2700    7.0660 C.3    96  GLY96       0.1956
    117  C         -2.2470  -13.4370    8.0450 C.2    96  GLY96       0.2612
    118  O         -1.5690  -13.3700    9.0610 O.2    96  GLY96      -0.2717
    119  N         -2.9540  -14.5150    7.7070 N.am   97  SER97      -0.1952
    120  CA        -3.0900  -15.6940    8.5780 C.3    97  SER97       0.1924
    121  C         -1.7960  -16.4820    8.6330 C.2    97  SER97       0.2314
    122  O         -1.1350  -16.6710    7.6030 O.2    97  SER97      -0.2863
    123  CB        -4.1380  -16.6260    8.0380 C.3    97  SER97       0.2116
    124  OG        -5.4450  -16.1100    8.1830 O.3    97  SER97      -0.2180
    125  N         -1.5900  -19.7470    6.2960 N.3   100  THR100     -0.1218
    126  CA        -1.2930  -19.3790    4.9260 C.3   100  THR100      0.1862
    127  C          0.1530  -18.9580    4.7840 C.2   100  THR100      0.2287
    128  O          0.7940  -19.2780    3.8160 O.2   100  THR100     -0.2866
    129  CB        -2.1930  -18.1990    4.5040 C.3   100  THR100      0.1770
    130  OG1       -3.5550  -18.5920    4.6570 O.3   100  THR100     -0.2211
    131  CG2       -1.9520  -17.8200    3.0450 C.3   100  THR100      0.0375
    132  N        -12.3380  -19.8090   19.5170 N.3   137  ASN137     -0.1240
    133  CA       -12.0850  -19.8790   18.0740 C.3   137  ASN137      0.1653
    134  C        -10.5940  -19.7280   17.8150 C.2   137  ASN137      0.2266
    135  O        -10.1850  -19.1000   16.8420 O.2   137  ASN137     -0.2867
    136  CB       -12.8680  -18.7430   17.3960 C.3   137  ASN137      0.1155
    137  CG       -13.0280  -18.8850   15.8580 C.2   137  ASN137      0.2627
    138  OD1      -12.8300  -19.9500   15.2600 O.2   137  ASN137     -0.2716
    139  ND2      -13.4690  -17.7740   15.2350 N.am  137  ASN137     -0.0877
    140  N         -5.4080  -20.1430   11.5890 N.3   141  LYS141     -0.1231
    141  CA        -5.9310  -19.1630   10.6230 C.3   141  LYS141      0.1693
    142  C         -6.2890  -17.8390   11.3120 C.2   141  LYS141      0.2592
    143  O         -6.2680  -16.7520   10.6800 O.2   141  LYS141     -0.2718
    144  CB        -7.1240  -19.6700    9.8270 C.3   141  LYS141      0.0285
    145  CG        -8.3890  -19.6910   10.5030 C.3   141  LYS141      0.0035
    146  CD        -9.5440  -19.7140    9.5030 C.3   141  LYS141      0.0206
    147  CE       -10.7500  -19.7320   10.3290 C.3   141  LYS141      0.1093
    148  NZ       -11.9940  -19.6180    9.4900 N.3   141  LYS141     -0.1314
    149  N         -6.5720  -17.9340   12.6270 N.am  142  ASN142     -0.1974
    150  CA        -6.9390  -16.7730   13.4160 C.3   142  ASN142      0.1688
    151  C         -5.8010  -16.1490   14.1870 C.2   142  ASN142      0.2292
    152  O         -6.0070  -15.2630   15.0070 O.2   142  ASN142     -0.2864
    153  CB        -8.1100  -17.1100   14.3150 C.3   142  ASN142      0.1181
    154  CG        -9.4050  -17.1670   13.5580 C.2   142  ASN142      0.2629
    155  OD1       -9.5630  -16.5400   12.5220 O.2   142  ASN142     -0.2716
    156  ND2      -10.3810  -17.8700   14.1140 N.am  142  ASN142     -0.0877
    157  N         -2.7560  -13.8100   13.3140 N.3   144  LEU144     -0.1245
    158  CA        -2.4370  -12.8700   12.2620 C.3   144  LEU144      0.1561
    159  C         -1.0040  -12.3540   12.4630 C.2   144  LEU144      0.2260
    160  O         -0.6310  -12.0060   13.5700 O.2   144  LEU144     -0.2867
    161  CB        -3.4770  -11.7290   12.2680 C.3   144  LEU144      0.0270
    162  CG        -4.9170  -12.2300   12.0610 C.3   144  LEU144      0.0019
    163  CD1       -5.8440  -11.1070   12.4600 C.3   144  LEU144      0.0001
    164  CD2       -5.1510  -12.6760   10.6340 C.3   144  LEU144      0.0001
    165  N         -7.0080  -12.9770   16.5000 N.3   162  SER162     -0.1202
    166  CA        -8.2280  -12.3750   15.9610 C.3   162  SER162      0.2020
    167  C         -9.3590  -12.2750   16.9800 C.2   162  SER162      0.2618
    168  O         -9.2860  -12.8280   18.0860 O.2   162  SER162     -0.2717
    169  CB        -8.7440  -13.2260   14.7780 C.3   162  SER162      0.2103
    170  OG        -9.5740  -14.2640   15.2980 O.3   162  SER162     -0.2182
    171  N        -10.4230  -11.5880   16.5670 N.am  163  ASP163     -0.1973
    172  CA       -11.6580  -11.5070   17.3380 C.3   163  ASP163      0.1709
    173  C        -12.2680  -12.8980   17.4310 C.2   163  ASP163      0.2293
    174  O        -11.9560  -13.7880   16.6500 O.2   163  ASP163     -0.2864
    175  CB       -12.6240  -10.5220   16.7150 C.3   163  ASP163      0.1436
    176  CG       -12.9140  -10.8420   15.2840 C.2   163  ASP163      0.3671
    177  OD1      -11.9900  -10.7700   14.4420 O.co2 163  ASP163     -0.2456
    178  OD2      -14.0660  -11.2000   15.0020 O.co2 163  ASP163     -0.2456
    179  N        -15.4390  -14.1380   16.9960 N.3   165  GLY165     -0.1210
    180  CA       -16.4930  -14.5790   16.1030 C.3   165  GLY165      0.1956
    181  C        -17.7310  -15.0730   16.8170 C.2   165  GLY165      0.2611
    182  O        -17.8930  -14.9140   18.0220 O.2   165  GLY165     -0.2717
    183  N        -18.6170  -15.6890   16.0400 N.am  166  ILE166     -0.1979
    184  CA       -19.8460  -16.2490   16.5820 C.3   166  ILE166      0.1595
    185  C        -19.5090  -17.3940   17.5330 C.2   166  ILE166      0.2287
    186  O        -18.6850  -18.2470   17.2100 O.2   166  ILE166     -0.2864
    187  CB       -20.7230  -16.7750   15.4510 C.3   166  ILE166      0.0276
    188  CG1      -21.0940  -15.6330   14.5160 C.3   166  ILE166      0.0022
    189  CG2      -21.9940  -17.3980   15.9970 C.3   166  ILE166      0.0022
    190  CD1      -21.6620  -16.0950   13.1760 C.3   166  ILE166      0.0001
    191  N        -15.2050  -28.6220   12.7340 N.3   179  ARG179     -0.1245
    192  CA       -14.1090  -27.9930   13.4580 C.3   179  ARG179      0.1563
    193  C        -13.3890  -28.8860   14.4570 C.2   179  ARG179      0.2260
    194  O        -12.5670  -28.3990   15.2320 O.2   179  ARG179     -0.2867
    195  CB       -14.5960  -26.7650   14.2270 C.3   179  ARG179      0.0307
    196  CG       -15.0050  -25.5850   13.3890 C.3   179  ARG179      0.0489
    197  CD       -15.3150  -24.4030   14.2970 C.3   179  ARG179      0.2205
    198  NE       -15.7200  -23.2320   13.5260 N.pl3 179  ARG179     -0.0865
    199  CZ       -15.9750  -22.0470   14.0640 C.cat 179  ARG179      0.5346
    200  NH1      -15.8640  -21.8710   15.3740 N.pl3 179  ARG179      0.1354
    201  NH2      -16.3370  -21.0360   13.2870 N.pl3 179  ARG179      0.1354
@<TRIPOS>BOND
     1     1     2    1
     2    17    15   am
     3     8     6    1
     4     2     3    1
     5     2     5    1
     6     3     4    2
     7    15    14    1
     8    15    16    2
     9    14    13    1
    10     6     5    1
    11     6     7    1
    12    39    38    2
    13     9    10    1
    14    13    10    1
    15   131   129    1
    16    38    37    1
    17    10    11    1
    18   128   127    2
    19    36    37    1
    20   107   105   ar
    21   107   106   ar
    22   129   130    1
    23   129   126    1
    24    12    11    2
    25    37    40    1
    26    11    18   am
    27   105   103   ar
    28   106   104   ar
    29   127   126    1
    30   126   125    1
    31    40    42    1
    32    40    41    1
    33    32    31    2
    34   103   102   ar
    35   104   102   ar
    36    18    19    1
    37    31    30    1
    38   102   101    1
    39    41    43    1
    40    51    49    1
    41    21    20    2
    42    19    20    1
    43   116   115    1
    44   116   117    1
    45   101    98    1
    46   111   110    2
    47    45    44    1
    48    45    46    1
    49    45    48    1
    50    30    29    1
    51    30    33    1
    52    20    22   am
    53   122   121    2
    54   119   117   am
    55   119   120    1
    56    46    47    2
    57    34    33    1
    58    49    48    1
    59    49    50    1
    60   123   124    1
    61   123   120    1
    62   117   118    2
    63   110   109    1
    64    33    35    1
    65    52    53    1
    66    53    54    1
    67    53    56    1
    68    54    55    2
    69    98    99    1
    70    98    97    1
    71   120   121    1
    72    22    23    1
    73    99   108   am
    74    99   100    2
    75   108   109    1
    76    23    24    1
    77    23    26    1
    78   109   112    1
    79   148   147    1
    80   146   147    1
    81   146   145    1
    82    24    25    2
    83    97    90   am
    84   144   145    1
    85   144   141    1
    86    56    57    1
    87    57    58    1
    88    82    81    2
    89   112   113    1
    90   112   114    1
    91    27    26    1
    92   141   142    1
    93   141   140    1
    94   164   162    1
    95    90    91    2
    96    90    89    1
    97   143   142    2
    98    26    28    1
    99    59    58    1
   100    59    60    1
   101   142   149   am
   102    79    80    1
   103    81    80    1
   104    81    88   am
   105    89    88    1
   106    89    92    1
   107   162   161    1
   108   162   163    1
   109    83    80    1
   110    83    84    1
   111   158   161    1
   112   158   159    1
   113   158   157    1
   114    86    85    2
   115   159   160    2
   116   155   154    2
   117   149   150    1
   118   191   192    1
   119    92    93    1
   120    84    85    1
   121    85    87   am
   122   190   188    1
   123   201   199    1
   124    71    69   ar
   125    71    70   ar
   126   196   195    1
   127   196   197    1
   128   150   151    1
   129   150   153    1
   130    93    94    1
   131    69    67   ar
   132   192   195    1
   133   192   193    1
   134   198   199    2
   135   198   197    1
   136   154   156   am
   137   154   153    1
   138    95    94   ar
   139    70    68   ar
   140   199   200    1
   141    67    66   ar
   142   151   152    2
   143    94    96   ar
   144   177   176   ar
   145   193   194    2
   146   188   187    1
   147    68    66   ar
   148    66    65    1
   149   169   170    1
   150   169   166    1
   151    78    76    1
   152   178   176   ar
   153   139   137   am
   154   138   137    2
   155   176   175    1
   156    65    62    1
   157   187   189    1
   158   187   184    1
   159   137   136    1
   160   166   165    1
   161   166   167    1
   162   183   184    1
   163   183   181   am
   164   180   181    1
   165   180   179    1
   166    76    77    1
   167    76    73    1
   168   171   167   am
   169   171   172    1
   170   184   185    1
   171   174   173    2
   172   175   172    1
   173   181   182    2
   174   135   134    2
   175    62    63    1
   176    62    61    1
   177   167   168    2
   178   186   185    2
   179    73    74    1
   180    73    72    1
   181   172   173    1
   182   136   133    1
   183    63    64    2
   184    74    75    2
   185   134   133    1
   186   133   132    1
