@<TRIPOS>MOLECULE
tmp/5i4oA00.pdb
 160 159 0 0 0
SMALL
GASTEIGER

@<TRIPOS>ATOM
      1  N        -21.6050   -5.2940    3.8100 N.3    68  ASP68      -0.1239
      2  CA       -22.5880   -5.9430    4.6800 C.3    68  ASP68       0.1674
      3  C        -22.1000   -6.1970    6.0840 C.2    68  ASP68       0.2266
      4  O        -22.5860   -7.0860    6.7210 O.2    68  ASP68      -0.2867
      5  CB       -22.9800   -7.2420    4.0420 C.3    68  ASP68       0.1410
      6  CG       -21.7140   -8.1520    3.7570 C.2    68  ASP68       0.3668
      7  OD1      -20.5860   -7.6440    3.9280 O.co2  68  ASP68      -0.2456
      8  OD2      -21.8650   -9.3470    3.4420 O.co2  68  ASP68      -0.2456
      9  N        -19.5500  -12.2520    5.2500 N.3    72  GLY72      -0.1210
     10  CA       -20.2430  -12.2060    3.9880 C.3    72  GLY72       0.1956
     11  C        -19.3530  -11.7820    2.8460 C.2    72  GLY72       0.2612
     12  O        -18.3500  -12.4230    2.5400 O.2    72  GLY72      -0.2717
     13  N        -19.7030  -10.6610    2.2510 N.am   73  ILE73      -0.1965
     14  CA       -18.9480  -10.1080    1.1070 C.3    73  ILE73       0.1727
     15  C        -17.7220   -9.4420    1.6570 C.2    73  ILE73       0.2616
     16  O        -17.8500   -8.6910    2.6560 O.2    73  ILE73      -0.2715
     17  CB       -19.8050   -9.0530    0.3650 C.3    73  ILE73       0.0290
     18  CG1      -21.0310   -9.8100   -0.1710 C.3    73  ILE73       0.0022
     19  CG2      -19.0560   -8.3900   -0.7620 C.3    73  ILE73       0.0023
     20  CD1      -20.6510  -11.0840   -0.8890 C.3    73  ILE73       0.0001
     21  N        -16.5630   -9.7550    1.0410 N.am   74  LEU74      -0.1963
     22  CA       -15.2710   -9.2530    1.5130 C.3    74  LEU74       0.1728
     23  C        -14.8520   -8.0430    0.6980 C.2    74  LEU74       0.2616
     24  O        -14.2000   -7.1630    1.2460 O.2    74  LEU74      -0.2715
     25  CB       -14.2040  -10.3760    1.3810 C.3    74  LEU74       0.0311
     26  CG       -14.5390  -11.6920    2.1610 C.3    74  LEU74       0.0022
     27  CD1      -13.4300  -12.7010    1.7630 C.3    74  LEU74       0.0001
     28  CD2      -14.6610  -11.5050    3.7110 C.3    74  LEU74       0.0001
     29  N        -15.2200   -7.9870   -0.6060 N.am   75  ALA75      -0.1963
     30  CA       -14.6970   -6.9590   -1.4690 C.3    75  ALA75       0.1728
     31  C        -15.3940   -7.1220   -2.8100 C.2    75  ALA75       0.2616
     32  O        -16.0650   -8.1530   -3.0010 O.2    75  ALA75      -0.2715
     33  CB       -13.1840   -7.1570   -1.7410 C.3    75  ALA75       0.0334
     34  N        -15.2420   -6.1540   -3.7220 N.am   76  HIS76      -0.1959
     35  CA       -15.6870   -6.4080   -5.0610 C.3    76  HIS76       0.1787
     36  C        -14.9470   -5.4830   -6.0050 C.2    76  HIS76       0.2620
     37  O        -14.1990   -4.5760   -5.5430 O.2    76  HIS76      -0.2715
     38  CB       -17.2340   -6.2010   -5.1440 C.3    76  HIS76       0.0785
     39  CG       -17.7210   -4.8360   -4.6500 C.ar   76  HIS76       0.0821
     40  ND1      -18.9150   -4.6880   -3.9890 N.ar   76  HIS76      -0.2267
     41  CD2      -17.2490   -3.5770   -4.8720 C.ar   76  HIS76       0.1154
     42  CE1      -19.1280   -3.4040   -3.7650 C.ar   76  HIS76       0.1986
     43  NE2      -18.1210   -2.7090   -4.2760 N.ar   76  HIS76      -0.2212
     44  N        -15.0670   -5.7180   -7.3210 N.am   77  ALA77      -0.1977
     45  CA       -14.3560   -4.9230   -8.2450 C.3    77  ALA77       0.1597
     46  C        -15.1840   -4.8750   -9.5010 C.2    77  ALA77       0.2287
     47  O        -15.9190   -5.8410   -9.7850 O.2    77  ALA77      -0.2864
     48  CB       -12.9950   -5.6770   -8.5800 C.3    77  ALA77       0.0319
     49  N         -4.0940  -11.9110   -0.8390 N.3   107  LEU107     -0.1231
     50  CA        -4.9040  -12.8820   -1.6130 C.3   107  LEU107      0.1693
     51  C         -6.2520  -12.3220   -2.1970 C.2   107  LEU107      0.2589
     52  O         -6.6430  -12.5890   -3.3200 O.2   107  LEU107     -0.2718
     53  CB        -5.2110  -14.1080   -0.7060 C.3   107  LEU107      0.0284
     54  CG        -3.9400  -14.9690   -0.3410 C.3   107  LEU107      0.0019
     55  CD1       -4.2140  -15.9840    0.7870 C.3   107  LEU107      0.0001
     56  CD2       -3.4080  -15.6590   -1.5770 C.3   107  LEU107      0.0001
     57  N         -6.9290  -11.5040   -1.3850 N.am  108  THR108     -0.2006
     58  CA        -8.1670  -10.8840   -1.7430 C.3   108  THR108      0.1584
     59  C         -7.8950   -9.8920   -2.8740 C.3   108  THR108      0.2062
     60  O         -8.6180   -9.9400   -3.9450 O.3   108  THR108     -0.2184
     61  CB        -8.8230  -10.2290   -0.5430 C.3   108  THR108      0.1745
     62  OG1       -9.0140  -11.2300    0.4440 O.3   108  THR108     -0.2212
     63  CG2      -10.1640   -9.6100   -0.8710 C.3   108  THR108      0.0374
     64  N         -7.3500  -11.7420   -6.1780 N.3   111  HIS111     -0.1226
     65  CA        -8.7050  -12.1230   -6.7350 C.3   111  HIS111      0.1752
     66  C         -9.4570  -10.9170   -7.3980 C.2   111  HIS111      0.2595
     67  O         -9.8780  -10.9820   -8.6220 O.2   111  HIS111     -0.2718
     68  CB        -9.5680  -12.7220   -5.6530 C.3   111  HIS111      0.0759
     69  CG       -10.8860  -13.2720   -6.1490 C.ar  111  HIS111      0.0818
     70  ND1      -11.0840  -14.6260   -6.3750 N.ar  111  HIS111     -0.2268
     71  CD2      -12.0620  -12.6660   -6.4530 C.ar  111  HIS111      0.1154
     72  CE1      -12.3220  -14.8280   -6.7800 C.ar  111  HIS111      0.1986
     73  NE2      -12.9280  -13.6600   -6.8510 N.ar  111  HIS111     -0.2212
     74  N         -9.5560   -9.8350   -6.6300 N.am  112  GLN112     -0.1979
     75  CA       -10.2290   -8.5710   -7.1440 C.3   112  GLN112      0.1601
     76  C         -9.6220   -7.9680   -8.3650 C.2   112  GLN112      0.2287
     77  O        -10.3550   -7.5800   -9.3200 O.2   112  GLN112     -0.2864
     78  CB       -10.2950   -7.4590   -6.0620 C.3   112  GLN112      0.0394
     79  CG       -11.1820   -7.8050   -4.8810 C.3   112  GLN112      0.0908
     80  CD       -12.5520   -8.4450   -5.2330 C.2   112  GLN112      0.2608
     81  OE1      -13.2720   -7.9640   -6.0790 O.2   112  GLN112     -0.2717
     82  NE2      -12.9110   -9.5290   -4.5520 N.am  112  GLN112     -0.0878
     83  N        -10.7560   -9.6650  -11.4040 N.3   115  HIS115     -0.1241
     84  CA       -12.0170   -9.1030  -11.8870 C.3   115  HIS115      0.1621
     85  C        -11.7870   -7.6940  -12.5690 C.2   115  HIS115      0.2264
     86  O        -12.4060   -7.4630  -13.6090 O.2   115  HIS115     -0.2867
     87  CB       -13.0600   -8.9440  -10.7730 C.3   115  HIS115      0.0745
     88  CG       -13.6150  -10.2450  -10.2500 C.ar  115  HIS115      0.0817
     89  ND1      -14.0310  -11.2630  -11.0970 N.ar  115  HIS115     -0.2268
     90  CD2      -13.8710  -10.6720   -8.9810 C.ar  115  HIS115      0.1154
     91  CE1      -14.5590  -12.2510  -10.3570 C.ar  115  HIS115      0.1986
     92  NE2      -14.4670  -11.9190   -9.0770 N.ar  115  HIS115     -0.2212
     93  N        -15.0670  -16.1800  -12.6970 N.3   121  HIS121     -0.1241
     94  CA       -14.6550  -17.1270  -11.6380 C.3   121  HIS121      0.1621
     95  C        -14.2080  -18.4800  -12.2260 C.2   121  HIS121      0.2264
     96  O        -14.5910  -18.8710  -13.3460 O.2   121  HIS121     -0.2867
     97  CB       -15.8030  -17.3530  -10.7150 C.3   121  HIS121      0.0745
     98  CG       -16.0170  -16.2500   -9.7440 C.ar  121  HIS121      0.0817
     99  ND1      -17.2710  -15.9070   -9.2800 N.ar  121  HIS121     -0.2268
    100  CD2      -15.1260  -15.4320   -9.1100 C.ar  121  HIS121      0.1154
    101  CE1      -17.1450  -14.9260   -8.3920 C.ar  121  HIS121      0.1986
    102  NE2      -15.8500  -14.6200   -8.2800 N.ar  121  HIS121     -0.2212
    103  N         -7.5920  -22.4050   -7.8950 N.3   127  ALA127     -0.1231
    104  CA        -7.4370  -21.1570   -8.6260 C.3   127  ALA127      0.1694
    105  C         -7.6340  -19.9340   -7.6900 C.2   127  ALA127      0.2591
    106  O         -8.4800  -19.9310   -6.8160 O.2   127  ALA127     -0.2718
    107  CB        -8.3810  -21.0900   -9.7930 C.3   127  ALA127      0.0304
    108  N         -6.8540  -18.8800   -7.8830 N.am  128  VAL128     -0.1980
    109  CA        -7.1090  -17.6210   -7.1370 C.3   128  VAL128      0.1595
    110  C         -8.4950  -17.0170   -7.4490 C.2   128  VAL128      0.2287
    111  O         -9.1130  -16.3460   -6.5890 O.2   128  VAL128     -0.2864
    112  CB        -5.8970  -16.6300   -7.3300 C.3   128  VAL128      0.0276
    113  CG1       -6.0210  -15.8690   -8.6960 C.3   128  VAL128      0.0022
    114  CG2       -5.7990  -15.7080   -6.1290 C.3   128  VAL128      0.0022
    115  N        -11.1960  -18.7560   -7.9300 N.3   130  PHE130     -0.1228
    116  CA       -12.2350  -19.4990   -7.2540 C.3   130  PHE130      0.1721
    117  C        -13.1330  -18.5400   -6.4150 C.2   130  PHE130      0.2437
    118  O        -12.6060  -17.6520   -5.7750 O.2   130  PHE130     -0.2733
    119  CB       -11.5940  -20.5920   -6.3860 C.3   130  PHE130      0.0547
    120  CG       -12.5910  -21.6700   -5.9400 C.ar  130  PHE130     -0.0202
    121  CD1      -13.2010  -22.4920   -6.8850 C.ar  130  PHE130     -0.0042
    122  CD2      -12.8950  -21.8580   -4.5690 C.ar  130  PHE130     -0.0042
    123  CE1      -14.0770  -23.5360   -6.4780 C.ar  130  PHE130     -0.0003
    124  CE2      -13.8040  -22.8520   -4.1670 C.ar  130  PHE130     -0.0003
    125  CZ       -14.3690  -23.6840   -5.1210 C.ar  130  PHE130     -0.0000
    126  N        -14.4590  -18.7400   -6.3920 N.am  131  PRO131     -0.2718
    127  CA       -15.3340  -17.7880   -5.7600 C.3   131  PRO131      0.1535
    128  C        -15.3260  -17.8010   -4.2050 C.2   131  PRO131      0.2599
    129  O        -15.9520  -16.9430   -3.6080 O.2   131  PRO131     -0.2715
    130  CB       -16.7450  -18.1720   -6.2720 C.3   131  PRO131      0.0310
    131  CG       -16.6210  -19.2920   -7.1890 C.3   131  PRO131      0.0237
    132  CD       -15.2050  -19.8200   -7.0630 C.3   131  PRO131      0.0939
    133  N        -14.6250  -18.7350   -3.5770 N.am  132  THR132     -0.1937
    134  CA       -14.6850  -18.8620   -2.1370 C.3   132  THR132      0.2028
    135  C        -13.3180  -18.4650   -1.5630 C.2   132  THR132      0.2642
    136  O        -12.3280  -18.9030   -2.0900 O.2   132  THR132     -0.2714
    137  CB       -15.0630  -20.3380   -1.7650 C.3   132  THR132      0.1808
    138  OG1      -16.3960  -20.5760   -2.2450 O.3   132  THR132     -0.2208
    139  CG2      -15.0220  -20.5850   -0.2610 C.3   132  THR132      0.0379
    140  N        -13.2880  -17.7260   -0.4590 N.am  133  TYR133     -0.1959
    141  CA       -12.0280  -17.2940    0.1240 C.3   133  TYR133      0.1771
    142  C        -11.5460  -18.4170    1.0110 C.2   133  TYR133      0.2619
    143  O        -12.2840  -18.8930    1.8790 O.2   133  TYR133     -0.2715
    144  CB       -12.1600  -15.9860    0.9260 C.3   133  TYR133      0.0574
    145  CG       -10.9630  -15.6720    1.8120 C.ar  133  TYR133     -0.0198
    146  CD1       -9.8250  -15.0000    1.3030 C.ar  133  TYR133     -0.0009
    147  CD2      -10.9250  -16.1210    3.1330 C.ar  133  TYR133     -0.0009
    148  CE1       -8.6540  -14.7480    2.1190 C.ar  133  TYR133      0.0417
    149  CE2       -9.7750  -15.8870    3.9490 C.ar  133  TYR133      0.0417
    150  CZ        -8.6500  -15.2050    3.4400 C.ar  133  TYR133      0.1957
    151  OH        -7.5660  -15.0150    4.2650 O.3   133  TYR133     -0.2866
    152  N        -10.2890  -18.7680    0.8430 N.am  134  LYS134     -0.1977
    153  CA        -9.5720  -19.5670    1.8780 C.3   134  LYS134      0.1596
    154  C         -8.1390  -19.0590    2.0440 C.2   134  LYS134      0.2287
    155  O         -7.5290  -18.5780    1.0840 O.2   134  LYS134     -0.2864
    156  CB        -9.5700  -21.0710    1.5050 C.3   134  LYS134      0.0298
    157  CG        -9.0180  -21.4010    0.1130 C.3   134  LYS134      0.0038
    158  CD        -9.0030  -22.9100   -0.1800 C.3   134  LYS134      0.0206
    159  CE        -8.7190  -23.7350    1.0610 C.3   134  LYS134      0.1093
    160  NZ        -9.8460  -24.6280    1.4070 N.3   134  LYS134     -0.1314
@<TRIPOS>BOND
     1    86    85    2
     2    96    95    2
     3    93    94    1
     4    85    84    1
     5    95    94    1
     6    84    83    1
     7    84    87    1
     8    94    97    1
     9    89    91   ar
    10    89    88   ar
    11    87    88    1
    12    97    98    1
    13    91    92   ar
    14    88    90   ar
    15   107   104    1
    16    47    46    2
    17    98    99   ar
    18    98   100   ar
    19    46    45    1
    20    77    76    2
    21    99   101   ar
    22   100   102   ar
    23    92    90   ar
    24   113   112    1
    25   104   103    1
    26   104   105    1
    27    67    66    2
    28    48    45    1
    29   101   102   ar
    30    76    75    1
    31    45    44    1
    32   115   116    1
    33   108   105   am
    34   108   109    1
    35   105   106    2
    36   110   109    1
    37   110   111    2
    38    66    65    1
    39    66    74   am
    40   112   109    1
    41   112   114    1
    42    44    36   am
    43   116   117    1
    44   116   119    1
    45   131   132    1
    46   131   130    1
    47    75    74    1
    48    75    78    1
    49   132   126    1
    50   121   123   ar
    51   121   120   ar
    52    73    72   ar
    53    73    71   ar
    54    72    70   ar
    55    65    64    1
    56    65    68    1
    57   123   125   ar
    58    71    69   ar
    59   117   126   am
    60   117   118    2
    61   126   127    1
    62   119   120    1
    63    70    69   ar
    64   130   127    1
    65    69    68    1
    66    81    80    2
    67    78    79    1
    68    36    37    2
    69    36    35    1
    70   120   122   ar
    71   127   128    1
    72    80    79    1
    73    80    82   am
    74    38    35    1
    75    38    39    1
    76   125   124   ar
    77    35    34    1
    78    41    39   ar
    79    41    43   ar
    80    39    40   ar
    81   122   124   ar
    82    43    42   ar
    83   128   129    2
    84   128   133   am
    85    40    42   ar
    86    60    59    1
    87    34    31   am
    88   133   134    1
    89    52    51    2
    90    32    31    2
    91    59    58    1
    92    31    30    1
    93   138   137    1
    94    51    50    1
    95    51    57   am
    96   134   137    1
    97   134   135    1
    98   136   135    2
    99   137   139    1
   100    58    57    1
   101    58    61    1
   102    33    30    1
   103    50    49    1
   104    50    53    1
   105    56    54    1
   106   135   140   am
   107    30    29    1
   108    20    18    1
   109    63    61    1
   110    19    17    1
   111    53    54    1
   112    29    23   am
   113    61    62    1
   114   140   141    1
   115    54    55    1
   116   158   157    1
   117   158   159    1
   118    18    17    1
   119   157   156    1
   120   141   144    1
   121   141   142    1
   122    17    14    1
   123    23    24    2
   124    23    22    1
   125   152   142   am
   126   152   153    1
   127   144   145    1
   128   142   143    2
   129    21    22    1
   130    21    15   am
   131   159   160    1
   132   155   154    2
   133    14    15    1
   134    14    13    1
   135   146   145   ar
   136   146   148   ar
   137    25    22    1
   138    25    26    1
   139   156   153    1
   140    15    16    2
   141    27    26    1
   142   145   147   ar
   143   153   154    1
   144   148   150   ar
   145    26    28    1
   146    13    11   am
   147    12    11    2
   148    11    10    1
   149   147   149   ar
   150   150   149   ar
   151   150   151    1
   152     8     6   ar
   153     6     7   ar
   154     6     5    1
   155     1     2    1
   156    10     9    1
   157     5     2    1
   158     2     3    1
   159     3     4    2
