@<TRIPOS>MOLECULE
tmp/5i4uA00.pdb
 176 170 0 0 0
SMALL
GASTEIGER

@<TRIPOS>ATOM
      1  N         50.7550    1.7840  102.5940 N.3   508  LYS508     -0.1245
      2  CA        49.6520    1.5320  101.6740 C.3   508  LYS508      0.1561
      3  C         49.0990    0.1220  101.8470 C.2   508  LYS508      0.2260
      4  O         47.8840   -0.0300  102.0010 O.2   508  LYS508     -0.2867
      5  CB        50.0510    1.7530  100.2030 C.3   508  LYS508      0.0271
      6  CG        48.9850    1.1900   99.2150 C.3   508  LYS508      0.0035
      7  CD        48.9960    1.8430   97.8190 C.3   508  LYS508      0.0206
      8  CE        47.8240    1.3420   96.9610 C.3   508  LYS508      0.1093
      9  NZ        47.8630    1.8810   95.5700 N.3   508  LYS508     -0.1314
     10  N         40.9270   -0.5110   95.9810 N.3   550  THR550     -0.1203
     11  CA        42.1930    0.0340   96.3930 C.3   550  THR550      0.1994
     12  C         42.0450    1.5520   96.4040 C.2   550  THR550      0.2618
     13  O         40.9250    2.0760   96.3590 O.2   550  THR550     -0.2717
     14  CB        43.3560   -0.4430   95.4580 C.3   550  THR550      0.1784
     15  OG1       44.6100   -0.0520   96.0200 O.3   550  THR550     -0.2211
     16  CG2       43.2380    0.1290   94.0630 C.3   550  THR550      0.0376
     17  N         43.1650    2.2540   96.4800 N.am  551  PHE551     -0.1961
     18  CA        43.1440    3.6910   96.4430 C.3   551  PHE551      0.1771
     19  C         44.4400    4.1680   95.8380 C.2   551  PHE551      0.2619
     20  O         45.4090    3.4170   95.8130 O.2   551  PHE551     -0.2715
     21  CB        42.9590    4.2640   97.8360 C.3   551  PHE551      0.0574
     22  CG        44.1220    4.0280   98.7500 C.ar  551  PHE551     -0.0200
     23  CD1       44.1880    2.8810   99.5280 C.ar  551  PHE551     -0.0042
     24  CD2       45.1390    4.9720   98.8670 C.ar  551  PHE551     -0.0042
     25  CE1       45.2580    2.6640  100.3920 C.ar  551  PHE551     -0.0003
     26  CE2       46.2130    4.7600   99.7440 C.ar  551  PHE551     -0.0003
     27  CZ        46.2740    3.6060  100.4930 C.ar  551  PHE551     -0.0000
     28  N         44.4540    5.4070   95.3470 N.am  552  MET552     -0.1977
     29  CA        45.6870    6.0040   94.8500 C.3   552  MET552      0.1605
     30  C         46.4910    6.6280   95.9920 C.2   552  MET552      0.2287
     31  O         45.9350    7.2910   96.8740 O.2   552  MET552     -0.2864
     32  CB        45.3830    7.0510   93.7780 C.3   552  MET552      0.0413
     33  CG        46.6170    7.5620   93.0280 C.3   552  MET552      0.0598
     34  SD        46.2270    8.4880   91.5250 S.3   552  MET552     -0.1393
     35  CE        46.4240    7.1830   90.3290 C.3   552  MET552      0.0692
     36  N         42.1880    9.2910   96.1250 N.3   558  PRO558     -0.2102
     37  CA        40.8680    8.8620   95.6410 C.3   558  PRO558      0.1504
     38  C         40.7610    7.3380   95.6670 C.2   558  PRO558      0.2576
     39  O         41.7940    6.6620   95.6420 O.2   558  PRO558     -0.2718
     40  CB        40.8030    9.4240   94.2100 C.3   558  PRO558      0.0282
     41  CG        42.2530    9.5260   93.7810 C.3   558  PRO558      0.0208
     42  CD        43.0260    9.8510   95.0460 C.3   558  PRO558      0.0893
     43  N         39.5310    6.8280   95.7540 N.am  559  LEU559     -0.1966
     44  CA        39.2690    5.4010   95.9180 C.3   559  LEU559      0.1728
     45  C         38.9840    4.7250   94.5850 C.2   559  LEU559      0.2616
     46  O         38.4220    5.3430   93.6730 O.2   559  LEU559     -0.2715
     47  CB        38.0850    5.1900   96.8690 C.3   559  LEU559      0.0311
     48  CG        38.2160    5.7270   98.2950 C.3   559  LEU559      0.0022
     49  CD1       36.8480    5.7460   98.9750 C.3   559  LEU559      0.0001
     50  CD2       39.1900    4.8640   99.1020 C.3   559  LEU559      0.0001
     51  N         39.3710    3.4590   94.4780 N.am  560  TRP560     -0.1974
     52  CA        39.1200    2.6280   93.2930 C.3   560  TRP560      0.1640
     53  C         38.1290    1.5090   93.6550 C.2   560  TRP560      0.2290
     54  O         38.4860    0.5740   94.3700 O.2   560  TRP560     -0.2864
     55  CB        40.4530    2.0660   92.7880 C.3   560  TRP560      0.0576
     56  CG        40.4440    1.1980   91.5350 C.ar  560  TRP560      0.0006
     57  CD1       40.2100   -0.1520   91.4720 C.ar  560  TRP560      0.0946
     58  CD2       40.7540    1.6120   90.1900 C.ar  560  TRP560      0.0152
     59  NE1       40.3370   -0.5890   90.1740 N.ar  560  TRP560     -0.2442
     60  CE2       40.6840    0.4670   89.3710 C.ar  560  TRP560      0.0810
     61  CE3       41.1000    2.8360   89.6050 C.ar  560  TRP560      0.0012
     62  CZ2       40.9150    0.5090   87.9970 C.ar  560  TRP560      0.0191
     63  CZ3       41.3400    2.8810   88.2420 C.ar  560  TRP560      0.0001
     64  CH2       41.2440    1.7260   87.4490 C.ar  560  TRP560      0.0015
     65  N         35.5840    5.5760   90.3200 N.3   577  ILE577     -0.1245
     66  CA        36.5870    6.2470   91.1030 C.3   577  ILE577      0.1561
     67  C         35.8430    7.2830   91.9290 C.2   577  ILE577      0.2260
     68  O         35.0810    8.0620   91.3770 O.2   577  ILE577     -0.2867
     69  CB        37.6630    6.8790   90.1780 C.3   577  ILE577      0.0252
     70  CG1       38.5110    5.7810   89.5080 C.3   577  ILE577      0.0019
     71  CG2       38.5210    7.8840   90.9200 C.3   577  ILE577      0.0019
     72  CD1       39.4340    6.3010   88.3780 C.3   577  ILE577      0.0001
     73  N         34.6040    9.3730   79.0830 N.3   613  TYR613     -0.1241
     74  CA        34.2390    8.5940   80.2550 C.3   613  TYR613      0.1605
     75  C         33.4650    9.5030   81.2110 C.2   613  TYR613      0.2264
     76  O         33.6650   10.7180   81.2080 O.2   613  TYR613     -0.2867
     77  CB        35.4890    8.0060   80.9210 C.3   613  TYR613      0.0534
     78  CG        36.5030    9.0650   81.3130 C.ar  613  TYR613     -0.0201
     79  CD1       36.4110    9.7340   82.5330 C.ar  613  TYR613     -0.0009
     80  CD2       37.5450    9.4100   80.4550 C.ar  613  TYR613     -0.0009
     81  CE1       37.3390   10.7220   82.8860 C.ar  613  TYR613      0.0417
     82  CE2       38.4770   10.3920   80.7960 C.ar  613  TYR613      0.0417
     83  CZ        38.3700   11.0410   82.0080 C.ar  613  TYR613      0.1957
     84  OH        39.2990   11.9960   82.3480 O.3   613  TYR613     -0.2866
     85  N         34.2350    9.3960   89.0910 N.3   625  ILE625     -0.1231
     86  CA        34.8150    9.2820   87.7650 C.3   625  ILE625      0.1692
     87  C         34.6190    7.8320   87.3030 C.2   625  ILE625      0.2592
     88  O         34.8400    6.8840   88.0720 O.2   625  ILE625     -0.2718
     89  CB        36.3160    9.6740   87.7690 C.3   625  ILE625      0.0266
     90  CG1       36.4740   11.1830   88.0490 C.3   625  ILE625      0.0019
     91  CG2       37.0210    9.2460   86.4490 C.3   625  ILE625      0.0020
     92  CD1       37.9230   11.6200   88.2070 C.3   625  ILE625      0.0001
     93  N         34.1780    7.6460   86.0730 N.am  626  GLU626     -0.1966
     94  CA        34.0110    6.2820   85.5420 C.3   626  GLU626      0.1733
     95  C         35.3590    5.6300   85.2410 C.2   626  GLU626      0.2616
     96  O         36.1490    6.2110   84.5090 O.2   626  GLU626     -0.2715
     97  CB        33.1680    6.2900   84.2490 C.3   626  GLU626      0.0429
     98  CG        33.0840    4.9120   83.5710 C.3   626  GLU626      0.1163
     99  CD        32.3150    4.9280   82.2490 C.2   626  GLU626      0.3649
    100  OE1       32.1270    6.0130   81.6480 O.co2 626  GLU626     -0.2457
    101  OE2       31.9200    3.8400   81.8050 O.co2 626  GLU626     -0.2457
    102  N         35.5970    4.4170   85.7370 N.am  627  VAL627     -0.1963
    103  CA        36.8370    3.7200   85.4120 C.3   627  VAL627      0.1727
    104  C         36.8640    3.2940   83.9330 C.2   627  VAL627      0.2616
    105  O         35.9420    2.6210   83.4740 O.2   627  VAL627     -0.2715
    106  CB        37.0370    2.4650   86.3080 C.3   627  VAL627      0.0290
    107  CG1       38.0730    1.5100   85.7020 C.3   627  VAL627      0.0023
    108  CG2       37.4410    2.8710   87.7080 C.3   627  VAL627      0.0023
    109  N         37.8940    3.6900   83.1830 N.am  628  VAL628     -0.1977
    110  CA        38.0930    3.1050   81.8520 C.3   628  VAL628      0.1596
    111  C         38.9730    1.8560   82.0250 C.2   628  VAL628      0.2287
    112  O         40.1630    1.9640   82.3880 O.2   628  VAL628     -0.2864
    113  CB        38.7520    4.0740   80.8520 C.3   628  VAL628      0.0276
    114  CG1       38.8090    3.4500   79.4660 C.3   628  VAL628      0.0022
    115  CG2       38.0020    5.4050   80.8160 C.3   628  VAL628      0.0022
    116  N         43.3280   -0.1080   80.7550 N.3   631  SER631     -0.1202
    117  CA        44.0580    1.0660   80.2930 C.3   631  SER631      0.2020
    118  C         45.2290    1.3320   81.2190 C.2   631  SER631      0.2619
    119  O         45.3060    0.7580   82.2940 O.2   631  SER631     -0.2717
    120  CB        43.1350    2.2910   80.1900 C.3   631  SER631      0.2103
    121  OG        42.9370    2.9140   81.4500 O.3   631  SER631     -0.2182
    122  N         46.1590    2.1710   80.7760 N.am  632  ASP632     -0.1959
    123  CA        47.3310    2.4980   81.5800 C.3   632  ASP632      0.1840
    124  C         47.8360    3.8880   81.2200 C.2   632  ASP632      0.2622
    125  O         47.4970    4.4200   80.1640 O.2   632  ASP632     -0.2715
    126  CB        48.4510    1.4660   81.3830 C.3   632  ASP632      0.1450
    127  CG        49.3720    1.3580   82.6050 C.2   632  ASP632      0.3671
    128  OD1       49.4340    2.3170   83.4200 O.co2 632  ASP632     -0.2456
    129  OD2       50.0270    0.3040   82.7500 O.co2 632  ASP632     -0.2456
    130  N         48.6260    4.4840   82.1080 N.am  633  THR633     -0.1951
    131  CA        49.1250    5.8320   81.8520 C.3   633  THR633      0.1897
    132  C         50.3040    5.7370   80.9110 C.2   633  THR633      0.2313
    133  O         51.0240    4.7360   80.9320 O.2   633  THR633     -0.2863
    134  CB        49.5520    6.5690   83.1500 C.3   633  THR633      0.1794
    135  OG1       50.4390    5.7340   83.9040 O.3   633  THR633     -0.2208
    136  CG2       48.3370    6.9080   84.0090 C.3   633  THR633      0.0378
    137  N         53.3360    5.1270   83.1620 N.3   636  ASN636     -0.1240
    138  CA        53.6320    3.7400   83.5340 C.3   636  ASN636      0.1653
    139  C         54.2770    2.9210   82.4240 C.2   636  ASN636      0.2266
    140  O         55.0890    2.0440   82.6960 O.2   636  ASN636     -0.2867
    141  CB        52.3620    3.0210   83.9920 C.3   636  ASN636      0.1155
    142  CG        52.2060    3.0240   85.4980 C.2   636  ASN636      0.2627
    143  OD1       52.9820    3.6520   86.2190 O.2   636  ASN636     -0.2716
    144  ND2       51.1920    2.3360   85.9800 N.am  636  ASN636     -0.0877
    145  N         51.5600   11.6400   82.8410 N.3   697  ASP697     -0.1239
    146  CA        50.7530   11.1710   83.9780 C.3   697  ASP697      0.1674
    147  C         49.2500   11.4210   83.7810 C.2   697  ASP697      0.2266
    148  O         48.4180   10.8100   84.4790 O.2   697  ASP697     -0.2867
    149  CB        51.1820   11.8380   85.2970 C.3   697  ASP697      0.1410
    150  CG        52.5080   11.3100   85.8350 C.2   697  ASP697      0.3668
    151  OD1       52.5730   10.1150   86.2010 O.co2 697  ASP697     -0.2456
    152  OD2       53.4750   12.1060   85.9290 O.co2 697  ASP697     -0.2456
    153  N         46.3430    8.7160   79.0460 N.3   700  MET700     -0.1245
    154  CA        46.2530    7.2580   79.1380 C.3   700  MET700      0.1570
    155  C         45.9910    6.6050   77.7830 C.2   700  MET700      0.2261
    156  O         45.6130    7.2520   76.8040 O.2   700  MET700     -0.2867
    157  CB        45.1590    6.8410   80.1220 C.3   700  MET700      0.0387
    158  CG        45.2950    7.4590   81.5160 C.3   700  MET700      0.0595
    159  SD        44.0850    6.8930   82.7000 S.3   700  MET700     -0.1393
    160  CE        44.6110    5.2140   82.8930 C.3   700  MET700      0.0692
    161  N         43.0530   12.5940   80.8060 N.3   710  ILE710     -0.1231
    162  CA        42.3920   12.6310   82.1030 C.3   710  ILE710      0.1692
    163  C         42.8560   13.8520   82.8890 C.2   710  ILE710      0.2592
    164  O         43.7400   14.5890   82.4280 O.2   710  ILE710     -0.2718
    165  CB        42.6820   11.3760   82.9340 C.3   710  ILE710      0.0266
    166  CG1       44.1710   11.3300   83.3050 C.3   710  ILE710      0.0019
    167  CG2       42.2650   10.1210   82.1690 C.3   710  ILE710      0.0020
    168  CD1       44.5440   10.2320   84.2920 C.3   710  ILE710      0.0001
    169  N         42.2590   14.0420   84.0700 N.am  711  ASP711     -0.1974
    170  CA        42.6450   15.0780   85.0370 C.3   711  ASP711      0.1709
    171  C         42.9110   16.4330   84.3950 C.2   711  ASP711      0.2293
    172  O         44.0580   16.9140   84.3480 O.2   711  ASP711     -0.2864
    173  CB        43.8700   14.6280   85.8140 C.3   711  ASP711      0.1436
    174  CG        43.5600   13.4860   86.7620 C.2   711  ASP711      0.3671
    175  OD1       42.3670   13.3240   87.1230 O.co2 711  ASP711     -0.2456
    176  OD2       44.5010   12.7490   87.1510 O.co2 711  ASP711     -0.2456
@<TRIPOS>BOND
     1   156   155    2
     2   155   154    1
     3   153   154    1
     4    73    74    1
     5   154   157    1
     6   114   113    1
     7   157   158    1
     8   125   124    2
     9   120   117    1
    10   120   121    1
    11    74    77    1
    12    74    75    1
    13   117   116    1
    14   117   118    1
    15    80    82   ar
    16    80    78   ar
    17   122   118   am
    18   122   123    1
    19    82    83   ar
    20   161   162    1
    21   115   113    1
    22   113   110    1
    23   132   133    2
    24   132   131    1
    25    77    78    1
    26    76    75    2
    27   118   119    2
    28   124   123    1
    29   124   130   am
    30    78    79   ar
    31   126   123    1
    32   126   127    1
    33   158   159    1
    34   100    99   ar
    35   101    99   ar
    36   131   130    1
    37   131   134    1
    38   110   111    1
    39   110   109    1
    40    83    84    1
    41    83    81   ar
    42   111   112    2
    43   162   163    1
    44   162   165    1
    45   167   165    1
    46    99    98    1
    47   139   140    2
    48   139   138    1
    49   164   163    2
    50    79    81   ar
    51   127   129   ar
    52   127   128   ar
    53   159   160    1
    54   145   146    1
    55   163   169   am
    56   165   166    1
    57   134   135    1
    58   134   136    1
    59   137   138    1
    60   109   104   am
    61   166   168    1
    62   105   104    2
    63   138   141    1
    64    98    97    1
    65   147   146    1
    66   147   148    2
    67   104   103    1
    68   146   149    1
    69   141   142    1
    70   169   170    1
    71    97    94    1
    72   172   171    2
    73   171   170    1
    74    96    95    2
    75   170   173    1
    76    95    94    1
    77    95   102   am
    78   149   150    1
    79   103   102    1
    80   103   106    1
    81   142   144   am
    82   142   143    2
    83    94    93    1
    84   107   106    1
    85   173   174    1
    86   150   152   ar
    87   150   151   ar
    88    93    87   am
    89   106   108    1
    90    91    89    1
    91   174   175   ar
    92   174   176   ar
    93    87    86    1
    94    87    88    2
    95    64    62   ar
    96    64    63   ar
    97    86    89    1
    98    86    85    1
    99    89    90    1
   100    62    60   ar
   101    90    92    1
   102    63    61   ar
   103    72    70    1
   104    60    59   ar
   105    60    58   ar
   106    70    69    1
   107    61    58   ar
   108    59    57   ar
   109    69    71    1
   110    69    66    1
   111    58    56   ar
   112    65    66    1
   113    35    34    1
   114    66    67    1
   115    68    67    2
   116    57    56   ar
   117    34    33    1
   118    56    55    1
   119    55    52    1
   120    33    32    1
   121    52    53    1
   122    52    51    1
   123    53    54    2
   124    46    45    2
   125    32    29    1
   126    41    40    1
   127    41    42    1
   128    16    14    1
   129    40    37    1
   130    51    45   am
   131    45    44    1
   132    29    28    1
   133    29    30    1
   134    42    36    1
   135    28    19   am
   136    14    15    1
   137    14    11    1
   138     9     8    1
   139    37    38    1
   140    37    36    1
   141    39    38    2
   142    38    43   am
   143    43    44    1
   144    20    19    2
   145    19    18    1
   146    44    47    1
   147    10    11    1
   148    30    31    2
   149    13    12    2
   150    11    12    1
   151    12    17   am
   152    18    17    1
   153    18    21    1
   154    47    48    1
   155     8     7    1
   156     7     6    1
   157    21    22    1
   158    48    49    1
   159    48    50    1
   160    22    24   ar
   161    22    23   ar
   162    24    26   ar
   163     6     5    1
   164    23    25   ar
   165    26    27   ar
   166     5     2    1
   167    25    27   ar
   168     2     3    1
   169     2     1    1
   170     3     4    2
