@<TRIPOS>MOLECULE
tmp/5i4vA00.pdb
 250 237 0 0 0
SMALL
GASTEIGER

@<TRIPOS>ATOM
      1  N         -6.6840   18.4540  -19.8020 N.3    51  PHE51      -0.1241
      2  CA        -6.9270   17.3870  -18.8440 C.3    51  PHE51       0.1605
      3  C         -8.2910   16.7520  -19.0390 C.2    51  PHE51       0.2264
      4  O         -8.4350   15.5380  -18.9510 O.2    51  PHE51      -0.2867
      5  CB        -6.8060   17.9120  -17.4270 C.3    51  PHE51       0.0534
      6  CG        -7.1180   16.8870  -16.3920 C.ar   51  PHE51      -0.0203
      7  CD1       -6.1930   15.9060  -16.0700 C.ar   51  PHE51      -0.0042
      8  CD2       -8.3370   16.8950  -15.7390 C.ar   51  PHE51      -0.0042
      9  CE1       -6.4830   14.9530  -15.1120 C.ar   51  PHE51      -0.0003
     10  CE2       -8.6320   15.9440  -14.7810 C.ar   51  PHE51      -0.0003
     11  CZ        -7.7090   14.9670  -14.4690 C.ar   51  PHE51      -0.0000
     12  N         -8.1740   14.5450  -22.3150 N.3    54  PHE54      -0.1227
     13  CA        -7.5860   13.2310  -22.0380 C.3    54  PHE54       0.1736
     14  C         -8.4970   12.3350  -21.2030 C.2    54  PHE54       0.2596
     15  O         -8.6550   11.1400  -21.4740 O.2    54  PHE54      -0.2718
     16  CB        -6.2240   13.3930  -21.3530 C.3    54  PHE54       0.0547
     17  CG        -5.0700   13.3440  -22.3120 C.ar   54  PHE54      -0.0202
     18  CD1       -4.9990   14.2310  -23.3730 C.ar   54  PHE54      -0.0042
     19  CD2       -4.0780   12.3880  -22.1760 C.ar   54  PHE54      -0.0042
     20  CE1       -3.9500   14.1810  -24.2730 C.ar   54  PHE54      -0.0003
     21  CE2       -3.0260   12.3200  -23.0770 C.ar   54  PHE54      -0.0003
     22  CZ        -2.9620   13.2230  -24.1260 C.ar   54  PHE54      -0.0000
     23  N         -9.0990   12.9250  -20.1820 N.am   55  THR55      -0.1953
     24  CA       -10.0160   12.2010  -19.3250 C.3    55  THR55       0.1897
     25  C        -11.1870   11.6250  -20.1180 C.2    55  THR55       0.2313
     26  O        -11.6280   10.5040  -19.8660 O.2    55  THR55      -0.2863
     27  CB       -10.5210   13.1270  -18.2130 C.3    55  THR55       0.1794
     28  OG1       -9.4430   13.4190  -17.3250 O.3    55  THR55      -0.2208
     29  CG2      -11.6070   12.4870  -17.4250 C.3    55  THR55       0.0378
     30  N        -11.1940   10.8800  -23.3740 N.3    57  LEU57      -0.1231
     31  CA       -10.6040    9.7870  -24.1400 C.3    57  LEU57       0.1693
     32  C        -10.4980    8.4960  -23.3000 C.2    57  LEU57       0.2591
     33  O        -10.8290    7.3970  -23.7720 O.2    57  LEU57      -0.2718
     34  CB        -9.2210   10.1930  -24.6350 C.3    57  LEU57       0.0284
     35  CG        -9.1320   11.3510  -25.6270 C.3    57  LEU57       0.0019
     36  CD1       -7.7010   11.4880  -26.1080 C.3    57  LEU57       0.0001
     37  CD2      -10.0580   11.2160  -26.8190 C.3    57  LEU57       0.0001
     38  N        -10.0330    8.6350  -22.0620 N.am   58  ALA58      -0.1980
     39  CA        -9.9530    7.5050  -21.1630 C.3    58  ALA58       0.1597
     40  C        -11.3200    6.8830  -20.9570 C.2    58  ALA58       0.2287
     41  O        -11.4440    5.6650  -20.9840 O.2    58  ALA58      -0.2864
     42  CB        -9.3600    7.9220  -19.8240 C.3    58  ALA58       0.0319
     43  N        -13.9300    6.8730  -22.9420 N.3    60  ILE60      -0.1231
     44  CA       -14.2860    6.1540  -24.1440 C.3    60  ILE60       0.1692
     45  C        -13.5220    4.8380  -24.1630 C.2    60  ILE60       0.2592
     46  O        -14.0690    3.7930  -24.4800 O.2    60  ILE60      -0.2718
     47  CB       -13.9860    6.9950  -25.3940 C.3    60  ILE60       0.0266
     48  CG1      -14.9490    8.1700  -25.4540 C.3    60  ILE60       0.0019
     49  CG2      -14.1350    6.1640  -26.6600 C.3    60  ILE60       0.0020
     50  CD1      -14.5900    9.2060  -26.4900 C.3    60  ILE60       0.0001
     51  N        -12.2540    4.8960  -23.8020 N.am   61  SER61      -0.1952
     52  CA       -11.4410    3.6990  -23.7450 C.3    61  SER61       0.1924
     53  C        -12.0610    2.6260  -22.8620 C.2    61  SER61       0.2314
     54  O        -12.0390    1.4520  -23.2050 O.2    61  SER61      -0.2863
     55  CB       -10.0340    4.0320  -23.2530 C.3    61  SER61       0.2116
     56  OG        -9.2550    2.8550  -23.2260 O.3    61  SER61      -0.2180
     57  N        -14.9440    1.1710  -24.5820 N.3    64  GLU64      -0.1231
     58  CA       -14.4330    0.3230  -25.6510 C.3    64  GLU64       0.1699
     59  C        -14.0080   -1.0350  -25.0920 C.2    64  GLU64       0.2592
     60  O        -14.3180   -2.0770  -25.6670 O.2    64  GLU64      -0.2718
     61  CB       -13.2610    1.0090  -26.3530 C.3    64  GLU64       0.0402
     62  CG       -12.8610    0.4120  -27.6910 C.3    64  GLU64       0.1161
     63  CD       -11.6630    1.1200  -28.3060 C.2    64  GLU64       0.3649
     64  OE1      -11.6800    2.3720  -28.3950 O.co2  64  GLU64      -0.2457
     65  OE2      -10.7010    0.4250  -28.7190 O.co2  64  GLU64      -0.2457
     66  N        -13.3420   -1.0180  -23.9440 N.am   65  ILE65      -0.1980
     67  CA       -12.8700   -2.2440  -23.3070 C.3    65  ILE65       0.1595
     68  C        -14.0210   -3.1220  -22.8430 C.2    65  ILE65       0.2287
     69  O        -13.9800   -4.3330  -23.0120 O.2    65  ILE65      -0.2864
     70  CB       -11.9340   -1.9340  -22.1140 C.3    65  ILE65       0.0276
     71  CG1      -10.6010   -1.3970  -22.6350 C.3    65  ILE65       0.0022
     72  CG2      -11.6920   -3.1760  -21.2550 C.3    65  ILE65       0.0022
     73  CD1       -9.7360   -0.7800  -21.5700 C.3    65  ILE65       0.0001
     74  N         -6.5260   -0.6440  -17.0580 N.3    92  ILE92      -0.1245
     75  CA        -5.3130    0.1430  -17.2590 C.3    92  ILE92       0.1561
     76  C         -4.3020   -0.6120  -18.1220 C.2    92  ILE92       0.2260
     77  O         -3.6440   -0.0360  -18.9840 O.2    92  ILE92      -0.2867
     78  CB        -4.6790    0.5600  -15.9110 C.3    92  ILE92       0.0252
     79  CG1       -3.5250    1.5380  -16.1230 C.3    92  ILE92       0.0019
     80  CG2       -4.1660   -0.6420  -15.1410 C.3    92  ILE92       0.0019
     81  CD1       -3.9090    2.8300  -16.8140 C.3    92  ILE92       0.0001
     82  N         -5.5820   -0.6120  -21.6090 N.3    95  MET95      -0.1230
     83  CA        -5.3700    0.7550  -22.0660 C.3    95  MET95       0.1702
     84  C         -3.9450    0.9630  -22.5460 C.2    95  MET95       0.2592
     85  O         -3.7100    1.6070  -23.5530 O.2    95  MET95      -0.2718
     86  CB        -5.6750    1.7510  -20.9480 C.3    95  MET95       0.0401
     87  CG        -7.0320    2.4140  -21.0910 C.3    95  MET95       0.0596
     88  SD        -7.7380    3.0540  -19.5640 S.3    95  MET95      -0.1393
     89  CE        -6.5250    4.2680  -19.0930 C.3    95  MET95       0.0692
     90  N         -2.9930    0.4130  -21.8110 N.am   96  LEU96      -0.1980
     91  CA        -1.5870    0.5490  -22.1640 C.3    96  LEU96       0.1596
     92  C         -1.2210   -0.2550  -23.3900 C.2    96  LEU96       0.2287
     93  O         -0.4310    0.1930  -24.2080 O.2    96  LEU96      -0.2864
     94  CB        -0.6960    0.1380  -20.9930 C.3    96  LEU96       0.0297
     95  CG        -0.6680    1.1340  -19.8350 C.3    96  LEU96       0.0022
     96  CD1        0.1390    0.5660  -18.6890 C.3    96  LEU96       0.0001
     97  CD2       -0.0930    2.4650  -20.2650 C.3    96  LEU96       0.0001
     98  N         -3.3690   -0.9860  -25.8140 N.3    98  GLU98      -0.1231
     99  CA        -3.9730   -0.2330  -26.9130 C.3    98  GLU98       0.1699
    100  C         -3.1770    1.0370  -27.2050 C.2    98  GLU98       0.2592
    101  O         -3.0910    1.4860  -28.3400 O.2    98  GLU98      -0.2718
    102  CB        -5.4370    0.0910  -26.6140 C.3    98  GLU98       0.0402
    103  CG        -6.3660   -1.1110  -26.7710 C.3    98  GLU98       0.1161
    104  CD        -6.3890   -1.7110  -28.1930 C.2    98  GLU98       0.3649
    105  OE1       -6.2010   -0.9850  -29.1960 O.co2  98  GLU98      -0.2457
    106  OE2       -6.6030   -2.9310  -28.3140 O.co2  98  GLU98      -0.2457
    107  N         -2.5820    1.6100  -26.1720 N.am   99  THR99      -0.1953
    108  CA        -1.7680    2.7990  -26.3500 C.3    99  THR99       0.1897
    109  C         -0.5190    2.4810  -27.1950 C.2    99  THR99       0.2313
    110  O         -0.2650    3.1330  -28.2010 O.2    99  THR99      -0.2863
    111  CB        -1.4140    3.3970  -24.9870 C.3    99  THR99       0.1794
    112  OG1       -2.6140    3.8520  -24.3580 O.3    99  THR99      -0.2208
    113  CG2       -0.4610    4.5620  -25.1200 C.3    99  THR99       0.0378
    114  N         -0.8930    2.1870  -30.8290 N.3   102  ARG102     -0.1245
    115  CA        -1.1040    3.4440  -31.5620 C.3   102  ARG102      0.1563
    116  C          0.1240    4.3580  -31.5470 C.2   102  ARG102      0.2260
    117  O          0.0470    5.5360  -31.8900 O.2   102  ARG102     -0.2867
    118  CB        -2.2940    4.1740  -30.9630 C.3   102  ARG102      0.0307
    119  CG        -3.5900    3.4160  -31.1560 C.3   102  ARG102      0.0489
    120  CD        -4.7090    3.9350  -30.2730 C.3   102  ARG102      0.2205
    121  NE        -5.9840    3.4140  -30.7440 N.pl3 102  ARG102     -0.0865
    122  CZ        -6.4020    2.1620  -30.5780 C.cat 102  ARG102      0.5346
    123  NH1       -5.6710    1.2690  -29.9300 N.pl3 102  ARG102      0.1354
    124  NH2       -7.5760    1.8010  -31.0630 N.pl3 102  ARG102      0.1354
    125  N         -4.7170    8.8940  -30.8210 N.3   112  PHE112     -0.1227
    126  CA        -5.9920    8.4470  -30.2610 C.3   112  PHE112      0.1736
    127  C         -7.1400    8.7230  -31.2090 C.2   112  PHE112      0.2595
    128  O         -7.1430    9.7260  -31.9280 O.2   112  PHE112     -0.2718
    129  CB        -6.2760    9.1480  -28.9530 C.3   112  PHE112      0.0547
    130  CG        -5.3420    8.7720  -27.8660 C.ar  112  PHE112     -0.0202
    131  CD1       -5.1210    7.4370  -27.5530 C.ar  112  PHE112     -0.0042
    132  CD2       -4.6710    9.7460  -27.1520 C.ar  112  PHE112     -0.0042
    133  CE1       -4.2440    7.0780  -26.5440 C.ar  112  PHE112     -0.0003
    134  CE2       -3.7930    9.3960  -26.1440 C.ar  112  PHE112     -0.0003
    135  CZ        -3.5820    8.0580  -25.8320 C.ar  112  PHE112     -0.0000
    136  N         -8.1340    7.8380  -31.1670 N.am  113  LEU113     -0.1980
    137  CA        -9.2630    7.8660  -32.0980 C.3   113  LEU113      0.1596
    138  C         -8.6780    7.9340  -33.4910 C.2   113  LEU113      0.2287
    139  O         -7.6910    7.2410  -33.7560 O.2   113  LEU113     -0.2864
    140  CB       -10.2300    9.0140  -31.7840 C.3   113  LEU113      0.0297
    141  CG       -10.8110    8.9360  -30.3680 C.3   113  LEU113      0.0022
    142  CD1      -11.6690   10.1390  -30.0300 C.3   113  LEU113      0.0001
    143  CD2      -11.6080    7.6610  -30.1810 C.3   113  LEU113      0.0001
    144  N          1.3040   14.9890  -23.4610 N.3   123  PHE123     -0.1241
    145  CA         0.8690   14.2040  -22.3220 C.3   123  PHE123      0.1605
    146  C          1.0880   15.0030  -21.0510 C.2   123  PHE123      0.2264
    147  O          0.2320   15.0270  -20.1760 O.2   123  PHE123     -0.2867
    148  CB         1.6120   12.8690  -22.2420 C.3   123  PHE123      0.0534
    149  CG         1.0120   11.7810  -23.0870 C.ar  123  PHE123     -0.0203
    150  CD1        0.8800   11.9340  -24.4520 C.ar  123  PHE123     -0.0042
    151  CD2        0.6050   10.5870  -22.5130 C.ar  123  PHE123     -0.0042
    152  CE1        0.3330   10.9270  -25.2280 C.ar  123  PHE123     -0.0003
    153  CE2        0.0630    9.5760  -23.2820 C.ar  123  PHE123     -0.0003
    154  CZ        -0.0760    9.7460  -24.6460 C.ar  123  PHE123     -0.0000
    155  N         -1.3160   17.8570  -20.6660 N.3   126  ALA126     -0.1245
    156  CA        -2.6090   17.3010  -20.2690 C.3   126  ALA126      0.1562
    157  C         -2.7210   17.0100  -18.7800 C.2   126  ALA126      0.2260
    158  O         -3.7960   16.6600  -18.3110 O.2   126  ALA126     -0.2867
    159  CB        -2.9120   16.0350  -21.0620 C.3   126  ALA126      0.0290
    160  N         -0.5790   14.8300  -16.8880 N.3   128  LEU128     -0.1245
    161  CA         0.0680   13.6120  -16.4420 C.3   128  LEU128      0.1561
    162  C          1.4970   13.9540  -16.0940 C.2   128  LEU128      0.2260
    163  O          1.9960   15.0280  -16.4400 O.2   128  LEU128     -0.2867
    164  CB         0.0330   12.5390  -17.5300 C.3   128  LEU128      0.0270
    165  CG        -1.3380   12.1950  -18.1220 C.3   128  LEU128      0.0019
    166  CD1       -1.2570   10.9630  -19.0040 C.3   128  LEU128      0.0001
    167  CD2       -2.3590   11.9520  -17.0280 C.3   128  LEU128      0.0001
    168  N          5.1200    8.7840  -15.0320 N.3   132  PHE132     -0.1241
    169  CA         4.1500    7.9320  -15.6930 C.3   132  PHE132      0.1605
    170  C          4.2990    7.9290  -17.2090 C.2   132  PHE132      0.2264
    171  O          4.2020    6.8860  -17.8580 O.2   132  PHE132     -0.2867
    172  CB         2.7530    8.4160  -15.3460 C.3   132  PHE132      0.0534
    173  CG         1.6480    7.5300  -15.8590 C.ar  132  PHE132     -0.0203
    174  CD1        1.7870    6.1410  -15.8740 C.ar  132  PHE132     -0.0042
    175  CD2        0.4510    8.0800  -16.2850 C.ar  132  PHE132     -0.0042
    176  CE1        0.7610    5.3320  -16.3260 C.ar  132  PHE132     -0.0003
    177  CE2       -0.5800    7.2720  -16.7260 C.ar  132  PHE132     -0.0003
    178  CZ        -0.4270    5.8980  -16.7440 C.ar  132  PHE132     -0.0000
    179  N          5.2190    4.7270  -20.1170 N.3   136  ILE136     -0.1245
    180  CA         4.2570    4.4880  -21.1900 C.3   136  ILE136      0.1561
    181  C          4.9440    4.4190  -22.5400 C.2   136  ILE136      0.2260
    182  O          4.6680    3.5300  -23.3410 O.2   136  ILE136     -0.2867
    183  CB         3.1920    5.5960  -21.2370 C.3   136  ILE136      0.0252
    184  CG1        2.2140    5.4260  -20.0800 C.3   136  ILE136      0.0019
    185  CG2        2.4220    5.5570  -22.5490 C.3   136  ILE136      0.0019
    186  CD1        1.3670    6.6530  -19.8390 C.3   136  ILE136      0.0001
    187  N          0.9570    3.5320  -12.5050 N.3   218  HIS218     -0.1241
    188  CA        -0.2610    4.2910  -12.6870 C.3   218  HIS218      0.1621
    189  C         -0.9160    4.6480  -11.3490 C.2   218  HIS218      0.2264
    190  O         -1.5010    5.7210  -11.2240 O.2   218  HIS218     -0.2867
    191  CB        -1.2290    3.5090  -13.5570 C.3   218  HIS218      0.0745
    192  CG        -2.6060    4.0850  -13.5900 C.ar  218  HIS218      0.0817
    193  ND1       -3.6830    3.4630  -13.0020 N.ar  218  HIS218     -0.2268
    194  CD2       -3.0750    5.2410  -14.1100 C.ar  218  HIS218      0.1154
    195  CE1       -4.7600    4.2040  -13.1710 C.ar  218  HIS218      0.1986
    196  NE2       -4.4190    5.2890  -13.8410 N.ar  218  HIS218     -0.2212
    197  N          0.5520    7.6230  -10.1620 N.3   221  GLN221     -0.1231
    198  CA         0.0200    8.7570  -10.9150 C.3   221  GLN221      0.1698
    199  C         -1.2980    9.2520  -10.3330 C.2   221  GLN221      0.2592
    200  O         -1.5030   10.4560  -10.2060 O.2   221  GLN221     -0.2718
    201  CB        -0.1330    8.3980  -12.4080 C.3   221  GLN221      0.0381
    202  CG        -0.9490    9.3680  -13.2710 C.3   221  GLN221      0.0905
    203  CD        -0.2370   10.6840  -13.5490 C.2   221  GLN221      0.2608
    204  OE1        0.6870   10.7550  -14.3550 O.2   221  GLN221     -0.2717
    205  NE2       -0.6870   11.7390  -12.9020 N.am  221  GLN221     -0.0878
    206  N         -2.2000    8.3360   -9.9910 N.am  222  VAL222     -0.1980
    207  CA        -3.4830    8.7190   -9.3990 C.3   222  VAL222      0.1595
    208  C         -3.2620    9.4700   -8.0970 C.2   222  VAL222      0.2287
    209  O         -3.9520   10.4520   -7.8020 O.2   222  VAL222     -0.2864
    210  CB        -4.3810    7.4990   -9.1020 C.3   222  VAL222      0.0276
    211  CG1       -5.5900    7.9060   -8.2660 C.3   222  VAL222      0.0022
    212  CG2       -4.8490    6.8590  -10.3890 C.3   222  VAL222      0.0022
    213  N         -2.5650   13.0070   -8.8130 N.3   225  LEU225     -0.1245
    214  CA        -3.7460   13.7650   -9.2370 C.3   225  LEU225      0.1561
    215  C         -4.5590   14.2510   -8.0520 C.2   225  LEU225      0.2260
    216  O         -5.0160   15.4030   -8.0310 O.2   225  LEU225     -0.2867
    217  CB        -4.6410   12.9260  -10.1430 C.3   225  LEU225      0.0270
    218  CG        -3.9980   12.5430  -11.4870 C.3   225  LEU225      0.0019
    219  CD1       -4.9000   11.6090  -12.2680 C.3   225  LEU225      0.0001
    220  CD2       -3.6500   13.7590  -12.3290 C.3   225  LEU225      0.0001
    221  N        -11.4920   13.3540  -10.9190 N.3   232  LEU232     -0.1245
    222  CA       -11.8140   12.4490  -12.0090 C.3   232  LEU232      0.1561
    223  C        -13.3150   12.2290  -12.1080 C.2   232  LEU232      0.2260
    224  O        -14.0210   12.2990  -11.0980 O.2   232  LEU232     -0.2867
    225  CB       -11.1210   11.1030  -11.8220 C.3   232  LEU232      0.0270
    226  CG        -9.6460   11.1260  -12.2560 C.3   232  LEU232      0.0019
    227  CD1       -8.8530   12.0910  -11.3850 C.3   232  LEU232      0.0001
    228  CD2       -8.9960    9.7450  -12.2650 C.3   232  LEU232      0.0001
    229  N        -14.1260    6.6290  -13.9100 N.3   236  LEU236     -0.1245
    230  CA       -12.7140    6.3720  -13.6580 C.3   236  LEU236      0.1561
    231  C        -12.4100    6.3080  -12.1660 C.2   236  LEU236      0.2260
    232  O        -11.5340    5.5670  -11.7430 O.2   236  LEU236     -0.2867
    233  CB       -11.8420    7.4390  -14.3090 C.3   236  LEU236      0.0270
    234  CG       -11.9450    7.5780  -15.8320 C.3   236  LEU236      0.0019
    235  CD1      -11.1310    8.7590  -16.3290 C.3   236  LEU236      0.0001
    236  CD2      -11.5480    6.3180  -16.5710 C.3   236  LEU236      0.0001
    237  N        -10.8650    2.9070  -10.4900 N.3   240  TRP240     -0.1241
    238  CA        -9.5420    3.0290   -9.8860 C.3   240  TRP240      0.1605
    239  C         -9.5420    3.4360   -8.3950 C.2   240  TRP240      0.2264
    240  O         -8.4760    3.6830   -7.8260 O.2   240  TRP240     -0.2867
    241  CB        -8.7060    4.0110  -10.7020 C.3   240  TRP240      0.0550
    242  CG        -8.3980    3.5450  -12.0920 C.ar  240  TRP240      0.0003
    243  CD1       -8.1530    2.2640  -12.5010 C.ar  240  TRP240      0.0946
    244  CD2       -8.2610    4.3640  -13.2520 C.ar  240  TRP240      0.0152
    245  NE1       -7.8830    2.2380  -13.8450 N.ar  240  TRP240     -0.2442
    246  CE2       -7.9470    3.5160  -14.3310 C.ar  240  TRP240      0.0810
    247  CE3       -8.3740    5.7350  -13.4850 C.ar  240  TRP240      0.0012
    248  CZ2       -7.7550    3.9950  -15.6250 C.ar  240  TRP240      0.0191
    249  CZ3       -8.1730    6.2110  -14.7690 C.ar  240  TRP240      0.0001
    250  CH2       -7.8720    5.3410  -15.8230 C.ar  240  TRP240      0.0015
@<TRIPOS>BOND
     1   139   138    2
     2   138   137    1
     3   137   140    1
     4   137   136    1
     5   128   127    2
     6   117   116    2
     7   140   141    1
     8   115   116    1
     9   115   118    1
    10   115   114    1
    11   127   136   am
    12   127   126    1
    13   119   118    1
    14   119   120    1
    15   124   122    1
    16   125   126    1
    17   121   122    2
    18   121   120    1
    19   122   123    1
    20   141   143    1
    21   141   142    1
    22   126   129    1
    23   105   104   ar
    24   129   130    1
    25    65    63   ar
    26    64    63   ar
    27   101   100    2
    28   106   104   ar
    29    63    62    1
    30   110   109    2
    31   104   103    1
    32   130   131   ar
    33   130   132   ar
    34    62    61    1
    35   131   133   ar
    36   100    99    1
    37   100   107   am
    38   109   108    1
    39   132   134   ar
    40    99   102    1
    41    99    98    1
    42    37    35    1
    43   103   102    1
    44    49    47    1
    45   133   135   ar
    46    50    48    1
    47    61    58    1
    48   108   107    1
    49   108   111    1
    50   134   135   ar
    51    36    35    1
    52    60    59    2
    53    58    59    1
    54    58    57    1
    55    35    34    1
    56    48    47    1
    57    47    44    1
    58   152   154   ar
    59   152   150   ar
    60   113   111    1
    61    59    66   am
    62   111   112    1
    63   154   153   ar
    64    34    31    1
    65    46    45    2
    66   150   149   ar
    67    20    22   ar
    68    20    18   ar
    69    93    92    2
    70    45    44    1
    71    45    51   am
    72    44    43    1
    73    31    30    1
    74    31    32    1
    75    22    21   ar
    76    66    67    1
    77    51    52    1
    78    33    32    2
    79    52    55    1
    80    52    53    1
    81    85    84    2
    82   144   145    1
    83    92    91    1
    84    18    17   ar
    85   182   181    2
    86    67    68    1
    87    67    70    1
    88    32    38   am
    89   153   151   ar
    90    55    56    1
    91    54    53    2
    92   149   151   ar
    93   149   148    1
    94    21    19   ar
    95    69    68    2
    96    71    70    1
    97    71    73    1
    98   185   183    1
    99    84    83    1
   100    84    90   am
   101   181   180    1
   102   145   148    1
   103   145   146    1
   104    12    13    1
   105    17    19   ar
   106    17    16    1
   107    91    90    1
   108    91    94    1
   109    70    72    1
   110    83    82    1
   111    83    86    1
   112    38    39    1
   113    13    16    1
   114    13    14    1
   115    15    14    2
   116   183   180    1
   117   183   184    1
   118    14    23   am
   119   180   179    1
   120    39    40    1
   121    39    42    1
   122    87    86    1
   123    87    88    1
   124   159   156    1
   125   146   147    2
   126    94    95    1
   127    41    40    2
   128   155   156    1
   129   156   157    1
   130    97    95    1
   131    23    24    1
   132    25    26    2
   133    25    24    1
   134   184   186    1
   135    95    96    1
   136     1     2    1
   137    88    89    1
   138    24    27    1
   139     3     4    2
   140     3     2    1
   141   166   165    1
   142    77    76    2
   143     2     5    1
   144   157   158    2
   145    27    29    1
   146    27    28    1
   147    76    75    1
   148   165   164    1
   149   165   167    1
   150   171   170    2
   151   164   161    1
   152     5     6    1
   153    75    74    1
   154    75    78    1
   155   170   169    1
   156   160   161    1
   157    81    79    1
   158   178   177   ar
   159   178   176   ar
   160   177   175   ar
   161   236   234    1
   162   161   162    1
   163   163   162    2
   164     6     7   ar
   165     6     8   ar
   166   235   234    1
   167   176   174   ar
   168   175   173   ar
   169    79    78    1
   170     7     9   ar
   171    78    80    1
   172   174   173   ar
   173   173   172    1
   174   234   233    1
   175   250   248   ar
   176   250   249   ar
   177     8    10   ar
   178   169   172    1
   179   169   168    1
   180   248   246   ar
   181     9    11   ar
   182    10    11   ar
   183   249   247   ar
   184   204   203    2
   185   246   245   ar
   186   246   244   ar
   187   233   230    1
   188   194   196   ar
   189   194   192   ar
   190   229   230    1
   191   245   243   ar
   192   196   195   ar
   193   230   231    1
   194   192   191    1
   195   192   193   ar
   196   191   188    1
   197   203   202    1
   198   203   205   am
   199   247   244   ar
   200   202   201    1
   201   244   242   ar
   202   195   193   ar
   203   188   187    1
   204   188   189    1
   205   243   242   ar
   206   201   198    1
   207   220   218    1
   208   219   218    1
   209   228   226    1
   210   226   225    1
   211   226   227    1
   212   231   232    2
   213   223   222    1
   214   223   224    2
   215   242   241    1
   216   222   225    1
   217   222   221    1
   218   218   217    1
   219   189   190    2
   220   198   199    1
   221   198   197    1
   222   241   238    1
   223   237   238    1
   224   212   210    1
   225   199   200    2
   226   199   206   am
   227   217   214    1
   228   206   207    1
   229   238   239    1
   230   207   210    1
   231   207   208    1
   232   214   213    1
   233   214   215    1
   234   210   211    1
   235   239   240    2
   236   208   209    2
   237   215   216    2
