@<TRIPOS>MOLECULE
tmp/5i56B01.pdb
 135 128 0 0 0
SMALL
GASTEIGER

@<TRIPOS>ATOM
      1  N        -29.0740   12.4980  -16.4710 N.3    15  PHE15      -0.1241
      2  CA       -28.1190   11.4060  -16.4880 C.3    15  PHE15       0.1605
      3  C        -28.4810   10.3620  -15.4420 C.2    15  PHE15       0.2264
      4  O        -28.5000    9.1650  -15.7280 O.2    15  PHE15      -0.2867
      5  CB       -26.7040   11.9580  -16.2920 C.3    15  PHE15       0.0534
      6  CG       -26.3230   12.9630  -17.3380 C.ar   15  PHE15      -0.0203
      7  CD1      -26.0050   12.5520  -18.6240 C.ar   15  PHE15      -0.0042
      8  CD2      -26.3400   14.3190  -17.0570 C.ar   15  PHE15      -0.0042
      9  CE1      -25.6860   13.4790  -19.6070 C.ar   15  PHE15      -0.0003
     10  CE2      -26.0240   15.2510  -18.0320 C.ar   15  PHE15      -0.0003
     11  CZ       -25.6950   14.8320  -19.3070 C.ar   15  PHE15      -0.0000
     12  N        -29.8860    8.6770  -18.7390 N.3    58  PHE58      -0.1241
     13  CA       -28.8560    8.4180  -19.7330 C.3    58  PHE58       0.1605
     14  C        -27.7930    7.4470  -19.2140 C.2    58  PHE58       0.2264
     15  O        -27.5130    6.4230  -19.8390 O.2    58  PHE58      -0.2867
     16  CB       -28.2060    9.7350  -20.1590 C.3    58  PHE58       0.0534
     17  CG       -27.2040    9.5920  -21.2660 C.ar   58  PHE58      -0.0203
     18  CD1      -25.8720    9.3280  -20.9870 C.ar   58  PHE58      -0.0042
     19  CD2      -27.5910    9.7400  -22.5880 C.ar   58  PHE58      -0.0042
     20  CE1      -24.9490    9.1960  -22.0080 C.ar   58  PHE58      -0.0003
     21  CE2      -26.6700    9.6160  -23.6120 C.ar   58  PHE58      -0.0003
     22  CZ       -25.3470    9.3440  -23.3210 C.ar   58  PHE58      -0.0000
     23  N        -13.0020    5.5750  -21.2800 N.3   125  VAL125     -0.1231
     24  CA       -13.0560    6.6100  -22.3020 C.3   125  VAL125      0.1678
     25  C        -14.2120    7.5450  -21.9820 C.2   125  VAL125      0.2434
     26  O        -15.2190    7.1150  -21.4140 O.2   125  VAL125     -0.2733
     27  CB       -13.2530    6.0260  -23.7130 C.3   125  VAL125      0.0265
     28  CG1      -11.9510    5.4280  -24.2370 C.3   125  VAL125      0.0020
     29  CG2      -14.3750    5.0030  -23.6970 C.3   125  VAL125      0.0020
     30  N        -14.0680    8.8310  -22.3250 N.am  126  PRO126     -0.2718
     31  CA       -15.1850    9.7540  -22.1140 C.3   126  PRO126      0.1535
     32  C        -16.3790    9.3580  -22.9800 C.2   126  PRO126      0.2599
     33  O        -16.2000    9.1140  -24.1720 O.2   126  PRO126     -0.2715
     34  CB       -14.6070   11.1080  -22.5400 C.3   126  PRO126      0.0310
     35  CG       -13.4750   10.7670  -23.4610 C.3   126  PRO126      0.0237
     36  CD       -12.8990    9.4990  -22.9230 C.3   126  PRO126      0.0939
     37  N        -17.5710    9.2730  -22.3960 N.am  127  PHE127     -0.1960
     38  CA       -18.7400    8.9070  -23.1870 C.3   127  PHE127      0.1771
     39  C        -19.7400   10.0640  -23.3050 C.2   127  PHE127      0.2619
     40  O        -20.6980    9.9790  -24.0660 O.2   127  PHE127     -0.2715
     41  CB       -19.4140    7.6510  -22.6100 C.3   127  PHE127      0.0574
     42  CG       -19.9130    7.8050  -21.1980 C.ar  127  PHE127     -0.0200
     43  CD1      -21.2070    8.2310  -20.9480 C.ar  127  PHE127     -0.0042
     44  CD2      -19.0990    7.4970  -20.1210 C.ar  127  PHE127     -0.0042
     45  CE1      -21.6780    8.3650  -19.6460 C.ar  127  PHE127     -0.0003
     46  CE2      -19.5620    7.6310  -18.8210 C.ar  127  PHE127     -0.0003
     47  CZ       -20.8530    8.0660  -18.5830 C.ar  127  PHE127     -0.0000
     48  N        -19.5100   11.1420  -22.5590 N.am  128  VAL128     -0.1963
     49  CA       -20.2960   12.3650  -22.7070 C.3   128  VAL128      0.1727
     50  C        -19.3820   13.5870  -22.7090 C.2   128  VAL128      0.2616
     51  O        -18.6890   13.8490  -21.7280 O.2   128  VAL128     -0.2715
     52  CB       -21.3460   12.5320  -21.5850 C.3   128  VAL128      0.0290
     53  CG1      -21.9880   13.9060  -21.6650 C.3   128  VAL128      0.0023
     54  CG2      -22.4090   11.4590  -21.6800 C.3   128  VAL128      0.0023
     55  N        -19.3800   14.3270  -23.8150 N.am  129  GLU129     -0.1977
     56  CA       -18.5800   15.5400  -23.9240 C.3   129  GLU129      0.1602
     57  C        -19.0350   16.5770  -22.9200 C.2   129  GLU129      0.2287
     58  O        -20.2260   16.8710  -22.8180 O.2   129  GLU129     -0.2864
     59  CB       -18.6620   16.1300  -25.3330 C.3   129  GLU129      0.0415
     60  CG       -17.9340   17.4580  -25.4740 C.3   129  GLU129      0.1163
     61  CD       -17.5640   17.7980  -26.9100 C.2   129  GLU129      0.3649
     62  OE1      -17.0390   18.9130  -27.1270 O.co2 129  GLU129     -0.2457
     63  OE2      -17.7830   16.9590  -27.8140 O.co2 129  GLU129     -0.2457
     64  N        -22.4320   19.9830  -20.0410 N.3   213  ALA213     -0.1245
     65  CA       -23.4740   19.0500  -20.4610 C.3   213  ALA213      0.1562
     66  C        -24.7700   19.2730  -19.6790 C.2   213  ALA213      0.2260
     67  O        -25.8590   19.1760  -20.2400 O.2   213  ALA213     -0.2867
     68  CB       -22.9960   17.6080  -20.3080 C.3   213  ALA213      0.0290
     69  N        -26.1670   22.7690  -20.8620 N.3   216  ASN216     -0.1240
     70  CA       -26.7670   22.6320  -22.1920 C.3   216  ASN216      0.1653
     71  C        -28.1240   21.9500  -22.1360 C.2   216  ASN216      0.2266
     72  O        -29.0390   22.2960  -22.8810 O.2   216  ASN216     -0.2867
     73  CB       -25.8500   21.8520  -23.1330 C.3   216  ASN216      0.1155
     74  CG       -24.6930   22.6840  -23.6330 C.2   216  ASN216      0.2627
     75  OD1      -24.8030   23.9010  -23.7670 O.2   216  ASN216     -0.2716
     76  ND2      -23.5720   22.0300  -23.9110 N.am  216  ASN216     -0.0877
     77  N        -13.4350   18.0580  -21.6890 N.3   239  THR239     -0.1203
     78  CA       -13.1940   16.7500  -21.1050 C.3   239  THR239      0.1994
     79  C        -14.4510   15.9230  -21.3120 C.2   239  THR239      0.2618
     80  O        -15.2420   16.2220  -22.2060 O.2   239  THR239     -0.2717
     81  CB       -12.8380   16.8490  -19.6010 C.3   239  THR239      0.1784
     82  OG1      -12.5180   15.5510  -19.0900 O.3   239  THR239     -0.2211
     83  CG2      -13.9910   17.4630  -18.7950 C.3   239  THR239      0.0376
     84  N        -14.6470   14.8940  -20.4970 N.am  240  GLY240     -0.1956
     85  CA       -15.8540   14.0990  -20.6000 C.3   240  GLY240      0.1869
     86  C        -16.3140   13.4780  -19.2970 C.2   240  GLY240      0.2309
     87  O        -15.5610   13.4400  -18.3210 O.2   240  GLY240     -0.2863
     88  N        -18.0200    0.8290  -24.6960 N.3   259  LEU259     -0.1231
     89  CA       -18.4550    2.2120  -24.9100 C.3   259  LEU259      0.1693
     90  C        -18.1610    2.6850  -26.3330 C.2   259  LEU259      0.2591
     91  O        -19.0050    3.3190  -26.9720 O.2   259  LEU259     -0.2718
     92  CB       -17.7860    3.1500  -23.9020 C.3   259  LEU259      0.0284
     93  CG       -18.2900    3.0500  -22.4580 C.3   259  LEU259      0.0019
     94  CD1      -17.3710    3.7980  -21.5140 C.3   259  LEU259      0.0001
     95  CD2      -19.7070    3.5820  -22.3570 C.3   259  LEU259      0.0001
     96  N        -16.9620    2.3720  -26.8230 N.am  260  LEU260     -0.1980
     97  CA       -16.5730    2.7300  -28.1850 C.3   260  LEU260      0.1596
     98  C        -17.4590    2.0330  -29.2120 C.2   260  LEU260      0.2287
     99  O        -17.8030    2.6170  -30.2390 O.2   260  LEU260     -0.2864
    100  CB       -15.0990    2.3910  -28.4350 C.3   260  LEU260      0.0297
    101  CG       -14.0990    3.2670  -27.6690 C.3   260  LEU260      0.0022
    102  CD1      -12.6810    2.8240  -27.9330 C.3   260  LEU260      0.0001
    103  CD2      -14.2600    4.7250  -28.0420 C.3   260  LEU260      0.0001
    104  N        -20.7550    3.8270  -29.5060 N.3   263  VAL263     -0.1245
    105  CA       -20.5750    5.0490  -30.2810 C.3   263  VAL263      0.1561
    106  C        -20.6020    4.7800  -31.7780 C.2   263  VAL263      0.2260
    107  O        -21.2820    5.4750  -32.5320 O.2   263  VAL263     -0.2867
    108  CB       -19.2480    5.7320  -29.9170 C.3   263  VAL263      0.0252
    109  CG1      -18.9600    6.8930  -30.8540 C.3   263  VAL263      0.0019
    110  CG2      -19.3030    6.1920  -28.4860 C.3   263  VAL263      0.0019
    111  N        -25.2910    5.2680  -29.0860 N.3   268  MET268     -0.1245
    112  CA       -25.0340    6.4400  -28.2530 C.3   268  MET268      0.1570
    113  C        -25.8730    7.6420  -28.6630 C.2   268  MET268      0.2261
    114  O        -26.4460    8.3220  -27.8120 O.2   268  MET268     -0.2867
    115  CB       -23.5540    6.8130  -28.2920 C.3   268  MET268      0.0387
    116  CG       -22.7150    6.1390  -27.2320 C.3   268  MET268      0.0595
    117  SD       -23.0360    6.8090  -25.5960 S.3   268  MET268     -0.1393
    118  CE       -22.8940    8.5600  -25.9400 C.3   268  MET268      0.0692
    119  N        -28.8750    9.9100  -26.6660 N.3   272  GLU272     -0.1245
    120  CA       -28.8330   11.3620  -26.6120 C.3   272  GLU272      0.1567
    121  C        -30.1920   11.9630  -26.9630 C.2   272  GLU272      0.2260
    122  O        -30.7160   12.7990  -26.2310 O.2   272  GLU272     -0.2867
    123  CB       -27.7520   11.8910  -27.5560 C.3   272  GLU272      0.0388
    124  CG       -27.5860   13.3970  -27.5300 C.3   272  GLU272      0.1160
    125  CD       -26.2080   13.8360  -27.9950 C.2   272  GLU272      0.3649
    126  OE1      -25.4600   12.9910  -28.5360 O.co2 272  GLU272     -0.2457
    127  OE2      -25.8670   15.0230  -27.8030 O.co2 272  GLU272     -0.2457
    128  N        -31.9230   13.8570  -24.0650 N.3   276  LEU276     -0.1245
    129  CA       -31.3600   15.2060  -24.0810 C.3   276  LEU276      0.1561
    130  C        -31.8320   16.0800  -25.2360 C.2   276  LEU276      0.2260
    131  O        -31.1670   17.0530  -25.5900 O.2   276  LEU276     -0.2867
    132  CB       -29.8350   15.1310  -24.1030 C.3   276  LEU276      0.0270
    133  CG       -29.2090   14.4630  -22.8790 C.3   276  LEU276      0.0019
    134  CD1      -28.3390   13.2930  -23.2970 C.3   276  LEU276      0.0001
    135  CD2      -28.4240   15.4740  -22.0670 C.3   276  LEU276      0.0001
@<TRIPOS>BOND
     1   107   106    2
     2   106   105    1
     3   109   108    1
     4   105   108    1
     5   105   104    1
     6    99    98    2
     7   108   110    1
     8    98    97    1
     9   111   112    1
    10   113   112    1
    11   113   114    2
    12   126   125   ar
    13   100    97    1
    14   100   101    1
    15   115   112    1
    16   115   116    1
    17    97    96    1
    18   103   101    1
    19   125   127   ar
    20   125   124    1
    21   102   101    1
    22    63    61   ar
    23   123   124    1
    24   123   120    1
    25   116   117    1
    26    62    61   ar
    27    91    90    2
    28   121   120    1
    29   121   122    2
    30    61    60    1
    31    96    90   am
    32   119   120    1
    33    90    89    1
    34   118   117    1
    35   131   130    2
    36    60    59    1
    37    59    56    1
    38   130   129    1
    39    89    88    1
    40    89    92    1
    41    28    27    1
    42    33    32    2
    43   132   129    1
    44   132   133    1
    45   129   128    1
    46    40    39    2
    47    56    55    1
    48    56    57    1
    49    76    74   am
    50    92    93    1
    51    55    50   am
    52    75    74    2
    53    27    29    1
    54    27    24    1
    55    74    73    1
    56    21    22   ar
    57    21    19   ar
    58    35    36    1
    59    35    34    1
    60    22    20   ar
    61    39    38    1
    62    39    48   am
    63   134   133    1
    64    38    41    1
    65    38    37    1
    66    73    70    1
    67    32    37   am
    68    32    31    1
    69    36    30    1
    70    57    58    2
    71    72    71    2
    72   133   135    1
    73    50    49    1
    74    50    51    2
    75    49    48    1
    76    49    52    1
    77    41    42    1
    78    19    17   ar
    79    34    31    1
    80    93    95    1
    81    93    94    1
    82    30    31    1
    83    30    25   am
    84    24    25    1
    85    24    23    1
    86    80    79    2
    87    70    71    1
    88    70    69    1
    89    20    18   ar
    90    25    26    2
    91    77    78    1
    92    54    52    1
    93    53    52    1
    94    79    78    1
    95    79    84   am
    96    17    18   ar
    97    17    16    1
    98    42    43   ar
    99    42    44   ar
   100    78    81    1
   101    43    45   ar
   102    85    84    1
   103    85    86    1
   104    65    68    1
   105    65    64    1
   106    65    66    1
   107    67    66    2
   108    16    13    1
   109    44    46   ar
   110    15    14    2
   111    13    14    1
   112    13    12    1
   113    45    47   ar
   114     9    11   ar
   115     9     7   ar
   116    81    82    1
   117    81    83    1
   118    11    10   ar
   119    86    87    2
   120    46    47   ar
   121     7     6   ar
   122    10     8   ar
   123     6     8   ar
   124     6     5    1
   125     2     1    1
   126     2     5    1
   127     2     3    1
   128     4     3    2
