@<TRIPOS>MOLECULE
tmp/5i58B01.pdb
 121 115 0 0 0
SMALL
GASTEIGER

@<TRIPOS>ATOM
      1  N        -30.7390   -9.3680   19.1670 N.3    55  PHE55      -0.1241
      2  CA       -29.7270   -9.0950   20.1830 C.3    55  PHE55       0.1605
      3  C        -28.7250   -8.0580   19.6910 C.2    55  PHE55       0.2264
      4  O        -28.5800   -6.9820   20.2830 O.2    55  PHE55      -0.2867
      5  CB       -29.0160  -10.3960   20.5700 C.3    55  PHE55       0.0534
      6  CG       -28.0980  -10.2650   21.7590 C.ar   55  PHE55      -0.0203
      7  CD1      -26.8420   -9.6930   21.6280 C.ar   55  PHE55      -0.0042
      8  CD2      -28.4860  -10.7330   23.0030 C.ar   55  PHE55      -0.0042
      9  CE1      -26.0020   -9.5720   22.7170 C.ar   55  PHE55      -0.0003
     10  CE2      -27.6460  -10.6210   24.0960 C.ar   55  PHE55      -0.0003
     11  CZ       -26.4020  -10.0400   23.9520 C.ar   55  PHE55      -0.0000
     12  N        -14.3910   -6.0290   21.9580 N.3   122  VAL122     -0.1231
     13  CA       -14.4090   -7.0360   23.0240 C.3   122  VAL122      0.1678
     14  C        -15.5420   -8.0190   22.7570 C.2   122  VAL122      0.2434
     15  O        -16.6630   -7.5920   22.4180 O.2   122  VAL122     -0.2733
     16  CB       -14.5730   -6.3640   24.3990 C.3   122  VAL122      0.0265
     17  CG1      -15.0270   -7.3710   25.4420 C.3   122  VAL122      0.0020
     18  CG2      -13.2680   -5.7170   24.8280 C.3   122  VAL122      0.0020
     19  N        -15.3120   -9.3270   22.8660 N.am  123  PRO123     -0.2718
     20  CA       -16.4010  -10.2910   22.6420 C.3   123  PRO123      0.1535
     21  C        -17.5380  -10.0740   23.6300 C.2   123  PRO123      0.2599
     22  O        -17.3450  -10.1160   24.8470 O.2   123  PRO123     -0.2715
     23  CB       -15.7180  -11.6490   22.8420 C.3   123  PRO123      0.0310
     24  CG       -14.4840  -11.3500   23.6370 C.3   123  PRO123      0.0237
     25  CD       -14.0400   -9.9950   23.1870 C.3   123  PRO123      0.0939
     26  N        -18.7320   -9.8280   23.0930 N.am  124  PHE124     -0.1960
     27  CA       -19.9090   -9.5780   23.9110 C.3   124  PHE124      0.1771
     28  C        -20.8850  -10.7460   23.9430 C.2   124  PHE124      0.2619
     29  O        -21.8470  -10.7020   24.7160 O.2   124  PHE124     -0.2715
     30  CB       -20.6380   -8.3110   23.4290 C.3   124  PHE124      0.0574
     31  CG       -21.1110   -8.3800   22.0020 C.ar  124  PHE124     -0.0200
     32  CD1      -22.4190   -8.7280   21.7090 C.ar  124  PHE124     -0.0042
     33  CD2      -20.2540   -8.0810   20.9550 C.ar  124  PHE124     -0.0042
     34  CE1      -22.8620   -8.7880   20.4000 C.ar  124  PHE124     -0.0003
     35  CE2      -20.6900   -8.1400   19.6430 C.ar  124  PHE124     -0.0003
     36  CZ       -21.9950   -8.4930   19.3660 C.ar  124  PHE124     -0.0000
     37  N        -20.6670  -11.7820   23.1330 N.am  125  VAL125     -0.1963
     38  CA       -21.4870  -12.9910   23.1490 C.3   125  VAL125      0.1727
     39  C        -20.5410  -14.1800   23.0450 C.2   125  VAL125      0.2616
     40  O        -19.9570  -14.4180   21.9830 O.2   125  VAL125     -0.2715
     41  CB       -22.5180  -13.0270   22.0100 C.3   125  VAL125      0.0290
     42  CG1      -23.1490  -14.4080   21.9120 C.3   125  VAL125      0.0023
     43  CG2      -23.5890  -11.9810   22.2290 C.3   125  VAL125      0.0023
     44  N        -20.3890  -14.9230   24.1390 N.am  126  GLU126     -0.1977
     45  CA       -19.5250  -16.0960   24.1280 C.3   126  GLU126      0.1602
     46  C        -20.0560  -17.1310   23.1480 C.2   126  GLU126      0.2287
     47  O        -21.2570  -17.4160   23.1160 O.2   126  GLU126     -0.2864
     48  CB       -19.4330  -16.7000   25.5280 C.3   126  GLU126      0.0415
     49  CG       -18.4070  -17.8130   25.6540 C.3   126  GLU126      0.1163
     50  CD       -18.6530  -18.6940   26.8600 C.2   126  GLU126      0.3649
     51  OE1      -19.5330  -19.5770   26.7790 O.co2 126  GLU126     -0.2457
     52  OE2      -17.9750  -18.4990   27.8910 O.co2 126  GLU126     -0.2457
     53  N        -23.2050  -20.5230   19.9010 N.3   210  ALA210     -0.1245
     54  CA       -24.2640  -19.6450   20.3900 C.3   210  ALA210      0.1562
     55  C        -25.5870  -19.9210   19.6870 C.2   210  ALA210      0.2260
     56  O        -26.6440  -19.9380   20.3290 O.2   210  ALA210     -0.2867
     57  CB       -23.8560  -18.1830   20.2160 C.3   210  ALA210      0.0290
     58  N        -14.5460  -18.5400   21.7870 N.3   236  THR236     -0.1218
     59  CA       -14.3580  -17.1730   21.3000 C.3   236  THR236      0.1862
     60  C        -15.6530  -16.3990   21.5500 C.2   236  THR236      0.2287
     61  O        -16.4070  -16.7320   22.4720 O.2   236  THR236     -0.2866
     62  CB       -13.9220  -17.2130   19.8190 C.3   236  THR236      0.1770
     63  OG1      -13.7940  -15.8750   19.3180 O.3   236  THR236     -0.2211
     64  CG2      -14.9440  -17.9670   18.9880 C.3   236  THR236      0.0375
     65  N        -19.2530   -1.3450   25.7050 N.3   256  LEU256     -0.1231
     66  CA       -19.6780   -2.7360   25.8350 C.3   256  LEU256      0.1693
     67  C        -19.3190   -3.2780   27.2120 C.2   256  LEU256      0.2591
     68  O        -20.1610   -3.8690   27.8970 O.2   256  LEU256     -0.2718
     69  CB       -19.0500   -3.5980   24.7370 C.3   256  LEU256      0.0284
     70  CG       -19.7500   -3.6170   23.3750 C.3   256  LEU256      0.0019
     71  CD1      -18.9620   -4.4560   22.3810 C.3   256  LEU256      0.0001
     72  CD2      -21.1760   -4.1310   23.5040 C.3   256  LEU256      0.0001
     73  N        -18.0670   -3.0780   27.6350 N.am  257  LEU257     -0.1980
     74  CA       -17.6710   -3.4490   28.9900 C.3   257  LEU257      0.1596
     75  C        -18.5230   -2.7390   30.0310 C.2   257  LEU257      0.2287
     76  O        -18.7650   -3.2840   31.1140 O.2   257  LEU257     -0.2864
     77  CB       -16.1910   -3.1350   29.2100 C.3   257  LEU257      0.0297
     78  CG       -15.2000   -4.0130   28.4470 C.3   257  LEU257      0.0022
     79  CD1      -13.8610   -3.3150   28.3160 C.3   257  LEU257      0.0001
     80  CD2      -15.0340   -5.3450   29.1480 C.3   257  LEU257      0.0001
     81  N        -21.7680   -4.6810   30.3730 N.3   260  VAL260     -0.1245
     82  CA       -21.6320   -5.8980   31.1690 C.3   260  VAL260      0.1561
     83  C        -21.7660   -5.5770   32.6520 C.2   260  VAL260      0.2260
     84  O        -22.6310   -6.1200   33.3480 O.2   260  VAL260     -0.2867
     85  CB       -20.2940   -6.5950   30.8680 C.3   260  VAL260      0.0252
     86  CG1      -20.2980   -7.9990   31.4430 C.3   260  VAL260      0.0019
     87  CG2      -20.0260   -6.6220   29.3710 C.3   260  VAL260      0.0019
     88  N        -26.4400   -6.3590   29.4130 N.3   265  MET265     -0.1230
     89  CA       -26.2780   -7.5710   28.6170 C.3   265  MET265      0.1702
     90  C        -27.1520   -8.6980   29.1480 C.2   265  MET265      0.2592
     91  O        -27.6090   -9.5500   28.3780 O.2   265  MET265     -0.2718
     92  CB       -24.8110   -8.0040   28.6070 C.3   265  MET265      0.0401
     93  CG       -23.8340   -6.9230   28.1790 C.3   265  MET265      0.0596
     94  SD       -23.9790   -6.5000   26.4340 S.3   265  MET265     -0.1393
     95  CE       -23.7080   -8.0980   25.6740 C.3   265  MET265      0.0692
     96  N        -27.3900   -8.7140   30.4590 N.am  266  GLU266     -0.1979
     97  CA       -28.2550   -9.7210   31.0610 C.3   266  GLU266      0.1602
     98  C        -29.6810   -9.5920   30.5450 C.2   266  GLU266      0.2287
     99  O        -30.3650  -10.5980   30.3180 O.2   266  GLU266     -0.2864
    100  CB       -28.2260   -9.5840   32.5870 C.3   266  GLU266      0.0415
    101  CG       -26.8730   -9.7730   33.3040 C.3   266  GLU266      0.1163
    102  CD       -25.7340   -8.9310   32.7540 C.2   266  GLU266      0.3649
    103  OE1      -24.5700   -9.2750   32.9950 O.co2 266  GLU266     -0.2457
    104  OE2      -25.9840   -7.9170   32.0850 O.co2 266  GLU266     -0.2457
    105  N        -29.8510  -10.8960   27.1080 N.3   269  GLU269     -0.1245
    106  CA       -29.6660  -12.3410   27.2070 C.3   269  GLU269      0.1567
    107  C        -30.9670  -13.0260   27.6050 C.2   269  GLU269      0.2260
    108  O        -31.3280  -14.0650   27.0380 O.2   269  GLU269     -0.2867
    109  CB       -28.5490  -12.6670   28.1990 C.3   269  GLU269      0.0388
    110  CG       -28.2600  -14.1570   28.3150 C.3   269  GLU269      0.1160
    111  CD       -26.8280  -14.4410   28.6930 C.2   269  GLU269      0.3649
    112  OE1      -26.3010  -15.4880   28.2900 O.co2 269  GLU269     -0.2457
    113  OE2      -26.2200  -13.6190   29.3970 O.co2 269  GLU269     -0.2457
    114  N        -32.4390  -14.7980   24.2090 N.3   273  LEU273     -0.1245
    115  CA       -31.9150  -16.1530   24.3160 C.3   273  LEU273      0.1561
    116  C        -32.5110  -16.9190   25.4910 C.2   273  LEU273      0.2260
    117  O        -31.9440  -17.9300   25.9180 O.2   273  LEU273     -0.2867
    118  CB       -30.3900  -16.1180   24.4080 C.3   273  LEU273      0.0270
    119  CG       -29.7160  -15.5250   23.1680 C.3   273  LEU273      0.0019
    120  CD1      -28.6090  -14.5610   23.5570 C.3   273  LEU273      0.0001
    121  CD2      -29.1810  -16.6270   22.2650 C.3   273  LEU273      0.0001
@<TRIPOS>BOND
     1    64    62    1
     2     1     2    1
     3    63    62    1
     4    36    35   ar
     5    36    34   ar
     6    35    33   ar
     7    55    56    2
     8    55    54    1
     9     3     2    1
    10     3     4    2
    11    62    59    1
    12    53    54    1
    13     2     5    1
    14    57    54    1
    15    34    32   ar
    16     5     6    1
    17    33    31   ar
    18    59    60    1
    19    59    58    1
    20    60    61    2
    21     7     6   ar
    22     7     9   ar
    23    32    31   ar
    24     6     8   ar
    25    42    41    1
    26    12    13    1
    27    40    39    2
    28    31    30    1
    29    41    43    1
    30    41    38    1
    31   121   119    1
    32    71    70    1
    33    15    14    2
    34    20    23    1
    35    20    19    1
    36    20    21    1
    37     9    11   ar
    38    14    19   am
    39    14    13    1
    40    23    24    1
    41    19    25    1
    42     8    10   ar
    43    13    16    1
    44    39    38    1
    45    39    44   am
    46    26    21   am
    47    26    27    1
    48    47    46    2
    49    37    38    1
    50    37    28   am
    51    46    45    1
    52   119   120    1
    53   119   118    1
    54    25    24    1
    55    70    72    1
    56    70    69    1
    57    30    27    1
    58    21    22    2
    59    27    28    1
    60    28    29    2
    61    11    10   ar
    62    45    44    1
    63    45    48    1
    64   114   115    1
    65   115   118    1
    66   115   116    1
    67    16    18    1
    68    16    17    1
    69    69    66    1
    70   116   117    2
    71    48    49    1
    72    49    50    1
    73    95    94    1
    74    65    66    1
    75    66    67    1
    76    94    93    1
    77    51    50   ar
    78    50    52   ar
    79   108   107    2
    80   105   106    1
    81   106   107    1
    82   106   109    1
    83    67    73   am
    84    67    68    2
    85    73    74    1
    86    93    92    1
    87   109   110    1
    88   112   111   ar
    89   110   111    1
    90    79    78    1
    91    91    90    2
    92    78    80    1
    93    78    77    1
    94    92    89    1
    95    89    90    1
    96    89    88    1
    97   111   113   ar
    98    74    77    1
    99    74    75    1
   100    90    96   am
   101    87    85    1
   102    75    76    2
   103    99    98    2
   104    81    82    1
   105    96    97    1
   106    98    97    1
   107    85    82    1
   108    85    86    1
   109    97   100    1
   110    82    83    1
   111   104   102   ar
   112   100   101    1
   113    83    84    2
   114   102   103   ar
   115   102   101    1
