@<TRIPOS>MOLECULE
tmp/5i58B00.pdb
 116 111 0 0 0
SMALL
GASTEIGER

@<TRIPOS>ATOM
      1  N        -29.3720  -13.5420   11.2320 N.3    11  GLU11      -0.1245
      2  CA       -29.2570  -14.8480   11.8680 C.3    11  GLU11       0.1567
      3  C        -29.8840  -14.7840   13.2550 C.2    11  GLU11       0.2260
      4  O        -29.3010  -14.2120   14.1850 O.2    11  GLU11      -0.2867
      5  CB       -27.7950  -15.3020   11.9490 C.3    11  GLU11       0.0388
      6  CG       -27.6220  -16.7390   12.4220 C.3    11  GLU11       0.1160
      7  CD       -26.1810  -17.2160   12.3510 C.2    11  GLU11       0.3649
      8  OE1      -25.2640  -16.3810   12.5000 O.co2  11  GLU11      -0.2457
      9  OE2      -25.9650  -18.4290   12.1460 O.co2  11  GLU11      -0.2457
     10  N        -21.0400  -14.0770    6.4840 N.3    81  HIS81      -0.1241
     11  CA       -20.2090  -13.5500    7.5620 C.3    81  HIS81       0.1621
     12  C        -18.8630  -13.0690    7.0350 C.2    81  HIS81       0.2264
     13  O        -18.3940  -11.9840    7.3980 O.2    81  HIS81      -0.2867
     14  CB       -20.0160  -14.6140    8.6430 C.3    81  HIS81       0.0745
     15  CG       -21.2880  -15.0440    9.3020 C.ar   81  HIS81       0.0817
     16  ND1      -22.1250  -15.9940    8.7560 N.ar   81  HIS81      -0.2268
     17  CD2      -21.8690  -14.6520   10.4610 C.ar   81  HIS81       0.1154
     18  CE1      -23.1640  -16.1710    9.5530 C.ar   81  HIS81       0.1986
     19  NE2      -23.0330  -15.3690   10.5940 N.ar   81  HIS81      -0.2212
     20  N        -23.7070  -11.7710   14.3640 N.3   107  SER107     -0.1202
     21  CA       -23.0850  -12.9860   14.8880 C.3   107  SER107      0.2020
     22  C        -21.7620  -13.2580   14.1670 C.2   107  SER107      0.2619
     23  O        -21.5590  -14.2890   13.5250 O.2   107  SER107     -0.2717
     24  CB       -24.0410  -14.1640   14.7560 C.3   107  SER107      0.2103
     25  OG       -24.3590  -14.4120   13.3970 O.3   107  SER107     -0.2182
     26  N        -20.8480  -12.3000   14.2930 N.am  108  LEU108     -0.1965
     27  CA       -19.5610  -12.3350   13.6020 C.3   108  LEU108      0.1728
     28  C        -18.5210  -12.9270   14.5460 C.2   108  LEU108      0.2616
     29  O        -18.0510  -12.2580   15.4700 O.2   108  LEU108     -0.2715
     30  CB       -19.1690  -10.9380   13.1340 C.3   108  LEU108      0.0311
     31  CG       -17.9940  -10.8540   12.1640 C.3   108  LEU108      0.0022
     32  CD1      -18.1370  -11.8940   11.0660 C.3   108  LEU108      0.0001
     33  CD2      -17.9240   -9.4600   11.5690 C.3   108  LEU108      0.0001
     34  N        -18.1600  -14.1850   14.3050 N.am  109  THR109     -0.1951
     35  CA       -17.2060  -14.8790   15.1590 C.3   109  THR109      0.1897
     36  C        -15.8150  -14.2680   15.0290 C.2   109  THR109      0.2313
     37  O        -15.3510  -13.9610   13.9280 O.2   109  THR109     -0.2863
     38  CB       -17.1620  -16.3650   14.7980 C.3   109  THR109      0.1794
     39  OG1      -18.4370  -16.9620   15.0650 O.3   109  THR109     -0.2208
     40  CG2      -16.0920  -17.0920   15.6010 C.3   109  THR109      0.0378
     41  N         -9.0530  -13.1170   10.8280 N.3   114  ARG114     -0.1245
     42  CA        -9.7910  -11.8830   10.5770 C.3   114  ARG114      0.1563
     43  C         -9.1600  -10.7000   11.2990 C.2   114  ARG114      0.2260
     44  O         -9.1270   -9.5890   10.7600 O.2   114  ARG114     -0.2867
     45  CB       -11.2480  -12.0410   11.0000 C.3   114  ARG114      0.0307
     46  CG       -11.9840  -13.1510   10.2890 C.3   114  ARG114      0.0489
     47  CD       -13.4060  -13.2680   10.8010 C.3   114  ARG114      0.2205
     48  NE       -14.1750  -14.2490   10.0430 N.pl3 114  ARG114     -0.0865
     49  CZ       -15.2610  -14.8600   10.5020 C.cat 114  ARG114      0.5346
     50  NH1      -15.7100  -14.5930   11.7210 N.pl3 114  ARG114      0.1354
     51  NH2      -15.9000  -15.7400    9.7420 N.pl3 114  ARG114      0.1354
     52  N        -22.4460  -25.9280    8.0000 N.3   162  VAL162     -0.1245
     53  CA       -22.7230  -24.9210    6.9820 C.3   162  VAL162      0.1561
     54  C        -21.3880  -24.3070    6.5720 C.2   162  VAL162      0.2260
     55  O        -20.7180  -23.6970    7.4200 O.2   162  VAL162     -0.2867
     56  CB       -23.6890  -23.8470    7.4900 C.3   162  VAL162      0.0252
     57  CG1      -23.9340  -22.8050    6.4070 C.3   162  VAL162      0.0019
     58  CG2      -24.9990  -24.4810    7.9320 C.3   162  VAL162      0.0019
     59  N        -17.9460  -20.5000    6.7830 N.3   165  GLY165     -0.1210
     60  CA       -17.9570  -19.7860    8.0360 C.3   165  GLY165      0.1956
     61  C        -16.6980  -20.0130    8.8520 C.2   165  GLY165      0.2613
     62  O        -15.7180  -20.6080    8.3970 O.2   165  GLY165     -0.2717
     63  N        -16.7380  -19.5160   10.0900 N.am  166  SER166     -0.1938
     64  CA       -15.6160  -19.7120   10.9990 C.3   166  SER166      0.2055
     65  C        -15.5080  -21.1520   11.4790 C.2   166  SER166      0.2644
     66  O        -14.4160  -21.5820   11.8660 O.2   166  SER166     -0.2714
     67  CB       -15.7380  -18.7750   12.2020 C.3   166  SER166      0.2130
     68  OG       -16.8650  -19.1090   12.9930 O.3   166  SER166     -0.2179
     69  N        -16.6110  -21.9030   11.4620 N.am  167  THR167     -0.1936
     70  CA       -16.5740  -23.2900   11.9160 C.3   167  THR167      0.2028
     71  C        -15.8330  -24.1740   10.9210 C.2   167  THR167      0.2642
     72  O        -14.9110  -24.9090   11.2950 O.2   167  THR167     -0.2714
     73  CB       -17.9960  -23.8060   12.1410 C.3   167  THR167      0.1808
     74  OG1      -18.6490  -22.9980   13.1270 O.3   167  THR167     -0.2208
     75  CG2      -17.9700  -25.2520   12.6120 C.3   167  THR167      0.0379
     76  N        -16.2280  -24.1200    9.6460 N.am  168  GLU168     -0.1976
     77  CA       -15.5490  -24.9160    8.6280 C.3   168  GLU168      0.1602
     78  C        -14.1010  -24.4790    8.4540 C.2   168  GLU168      0.2287
     79  O        -13.2290  -25.3120    8.1790 O.2   168  GLU168     -0.2864
     80  CB       -16.2940  -24.8160    7.2970 C.3   168  GLU168      0.0415
     81  CG       -15.7210  -25.6960    6.1990 C.3   168  GLU168      0.1163
     82  CD       -15.9650  -25.1320    4.8150 C.2   168  GLU168      0.3649
     83  OE1      -16.3650  -23.9530    4.7160 O.co2 168  GLU168     -0.2457
     84  OE2      -15.7530  -25.8660    3.8270 O.co2 168  GLU168     -0.2457
     85  N        -21.6170  -26.5140   14.2810 N.3   207  TYR207     -0.1227
     86  CA       -21.9150  -25.1300   13.9360 C.3   207  TYR207      0.1736
     87  C        -21.5300  -24.2360   15.1090 C.2   207  TYR207      0.2595
     88  O        -21.0300  -24.7020   16.1370 O.2   207  TYR207     -0.2718
     89  CB       -23.3930  -24.9760   13.5590 C.3   207  TYR207      0.0548
     90  CG       -23.7430  -23.6690   12.8800 C.ar  207  TYR207     -0.0200
     91  CD1      -23.3190  -23.4020   11.5850 C.ar  207  TYR207     -0.0009
     92  CD2      -24.5070  -22.7080   13.5310 C.ar  207  TYR207     -0.0009
     93  CE1      -23.6390  -22.2100   10.9610 C.ar  207  TYR207      0.0417
     94  CE2      -24.8300  -21.5140   12.9160 C.ar  207  TYR207      0.0417
     95  CZ       -24.3950  -21.2710   11.6320 C.ar  207  TYR207      0.1957
     96  OH       -24.7170  -20.0830   11.0160 O.3   207  TYR207     -0.2866
     97  N        -21.7560  -22.9340   14.9300 N.am  208  ASP208     -0.1974
     98  CA       -21.5160  -21.9500   15.9760 C.3   208  ASP208      0.1709
     99  C        -22.2470  -22.3330   17.2570 C.2   208  ASP208      0.2293
    100  O        -23.4160  -22.7250   17.2330 O.2   208  ASP208     -0.2864
    101  CB       -21.9700  -20.5700   15.4940 C.3   208  ASP208      0.1436
    102  CG       -21.8230  -19.5020   16.5530 C.2   208  ASP208      0.3671
    103  OD1      -20.6910  -19.0130   16.7540 O.co2 208  ASP208     -0.2456
    104  OD2      -22.8420  -19.1450   17.1820 O.co2 208  ASP208     -0.2456
    105  N        -18.6290  -13.2560   19.5880 N.3   238  TYR238     -0.1241
    106  CA       -18.9990  -12.2860   18.5670 C.3   238  TYR238      0.1605
    107  C        -18.3670  -10.9410   18.8930 C.2   238  TYR238      0.2264
    108  O        -18.2580  -10.5590   20.0610 O.2   238  TYR238     -0.2867
    109  CB       -20.5180  -12.1390   18.4830 C.3   238  TYR238      0.0534
    110  CG       -21.2630  -13.4070   18.1260 C.ar  238  TYR238     -0.0201
    111  CD1      -20.6410  -14.4360   17.4300 C.ar  238  TYR238     -0.0009
    112  CD2      -22.5960  -13.5670   18.4790 C.ar  238  TYR238     -0.0009
    113  CE1      -21.3280  -15.5930   17.1020 C.ar  238  TYR238      0.0417
    114  CE2      -23.2890  -14.7160   18.1580 C.ar  238  TYR238      0.0417
    115  CZ       -22.6530  -15.7260   17.4700 C.ar  238  TYR238      0.1957
    116  OH       -23.3490  -16.8690   17.1490 O.3   238  TYR238     -0.2866
@<TRIPOS>BOND
     1    84    82   ar
     2    83    82   ar
     3    82    81    1
     4    81    80    1
     5    57    56    1
     6    10    11    1
     7    54    53    1
     8    54    55    2
     9    59    60    1
    10    53    56    1
    11    53    52    1
    12    12    13    2
    13    12    11    1
    14    80    77    1
    15    56    58    1
    16    11    14    1
    17    60    61    1
    18    79    78    2
    19    62    61    2
    20    78    77    1
    21    77    76    1
    22    14    15    1
    23    16    15   ar
    24    16    18   ar
    25    61    63   am
    26    15    17   ar
    27    18    19   ar
    28    76    71   am
    29    51    49    1
    30    48    49    2
    31    48    47    1
    32    63    64    1
    33    46    47    1
    34    46    45    1
    35    17    19   ar
    36    49    50    1
    37    42    41    1
    38    42    45    1
    39    42    43    1
    40    44    43    2
    41    71    72    2
    42    71    70    1
    43    93    91   ar
    44    93    95   ar
    45    64    65    1
    46    64    67    1
    47    96    95    1
    48    32    31    1
    49     1     2    1
    50    69    65   am
    51    69    70    1
    52    65    66    2
    53    33    31    1
    54    91    90   ar
    55    95    94   ar
    56     2     5    1
    57     2     3    1
    58    70    73    1
    59     5     6    1
    60    73    75    1
    61    73    74    1
    62     9     7   ar
    63    31    30    1
    64    67    68    1
    65     7     6    1
    66     7     8   ar
    67    90    92   ar
    68    90    89    1
    69    94    92   ar
    70    30    27    1
    71     3     4    2
    72    25    24    1
    73    23    22    2
    74    89    86    1
    75    27    26    1
    76    27    28    1
    77    37    36    2
    78    86    85    1
    79    86    87    1
    80    22    26   am
    81    22    21    1
    82    34    28   am
    83    34    35    1
    84    20    21    1
    85    28    29    2
    86    24    21    1
    87    38    39    1
    88    38    35    1
    89    38    40    1
    90    97    87   am
    91    97    98    1
    92    36    35    1
    93    87    88    2
    94   101    98    1
    95   101   102    1
    96    98    99    1
    97   102   103   ar
    98   102   104   ar
    99   113   111   ar
   100   113   115   ar
   101   116   115    1
   102   100    99    2
   103   111   110   ar
   104   115   114   ar
   105   110   112   ar
   106   110   109    1
   107   114   112   ar
   108   109   106    1
   109   106   107    1
   110   106   105    1
   111   107   108    2
