@<TRIPOS>MOLECULE
tmp/5i5gA01.pdb
 99 95 0 0 0
SMALL
GASTEIGER

@<TRIPOS>ATOM
      1  N        -16.3750  -33.1910    2.2060 N.3    52  LYS52      -0.1245
      2  CA       -14.9510  -33.1140    2.5040 C.3    52  LYS52       0.1561
      3  C        -14.4630  -34.2300    3.4130 C.2    52  LYS52       0.2260
      4  O        -13.2730  -34.2690    3.7220 O.2    52  LYS52      -0.2867
      5  CB       -14.6070  -31.7560    3.1440 C.3    52  LYS52       0.0271
      6  CG       -14.9860  -30.5260    2.2960 C.3    52  LYS52       0.0035
      7  CD       -14.6020  -30.6860    0.8100 C.3    52  LYS52       0.0206
      8  CE       -15.0010  -29.4580   -0.0420 C.3    52  LYS52       0.1093
      9  NZ       -15.2610  -29.7770   -1.4970 N.3    52  LYS52      -0.1314
     10  N        -13.7090  -40.5250    2.4780 N.3    56  ARG56      -0.1245
     11  CA       -14.6980  -40.8980    1.4800 C.3    56  ARG56       0.1563
     12  C        -14.0170  -41.6160    0.3220 C.2    56  ARG56       0.2260
     13  O        -12.8520  -41.3570   -0.0020 O.2    56  ARG56      -0.2867
     14  CB       -15.4200  -39.6520    0.9630 C.3    56  ARG56       0.0307
     15  CG       -14.5100  -38.7530    0.1480 C.3    56  ARG56       0.0489
     16  CD       -15.2020  -37.4430   -0.1640 C.3    56  ARG56       0.2205
     17  NE       -14.4540  -36.4840   -0.9840 N.pl3  56  ARG56      -0.0865
     18  CZ       -13.5280  -35.6480   -0.5220 C.cat  56  ARG56       0.5346
     19  NH1      -13.1430  -35.7010    0.7520 N.pl3  56  ARG56       0.1354
     20  NH2      -12.9680  -34.7670   -1.3440 N.pl3  56  ARG56       0.1354
     21  N        -15.5160  -28.4910  -10.0990 N.3   102  ASN102     -0.1225
     22  CA       -15.3660  -28.7240   -8.6670 C.3   102  ASN102      0.1785
     23  C        -15.5970  -27.4610   -7.8570 C.2   102  ASN102      0.2597
     24  O        -15.8590  -27.5480   -6.6550 O.2   102  ASN102     -0.2718
     25  CB       -13.9660  -29.2670   -8.3570 C.3   102  ASN102      0.1169
     26  CG       -12.8810  -28.2440   -8.6200 C.2   102  ASN102      0.2627
     27  OD1      -12.6880  -27.8030   -9.7560 O.2   102  ASN102     -0.2716
     28  ND2      -12.1630  -27.8560   -7.5690 N.am  102  ASN102     -0.0877
     29  N        -15.4840  -26.2900   -8.4790 N.am  103  THR103     -0.1953
     30  CA       -15.7210  -25.0260   -7.7990 C.3   103  THR103      0.1897
     31  C        -17.2020  -24.7160   -7.6250 C.2   103  THR103      0.2313
     32  O        -17.5360  -23.8330   -6.8320 O.2   103  THR103     -0.2863
     33  CB       -15.0760  -23.8610   -8.5690 C.3   103  THR103      0.1794
     34  OG1      -15.5890  -23.8220   -9.9090 O.3   103  THR103     -0.2208
     35  CG2      -13.5390  -24.0010   -8.6030 C.3   103  THR103      0.0378
     36  N         -3.9510  -32.4810   -5.3050 N.3   425  ALA425     -0.1231
     37  CA        -4.5710  -31.3290   -4.6700 C.3   425  ALA425      0.1694
     38  C         -6.0330  -31.6050   -4.3590 C.2   425  ALA425      0.2591
     39  O         -6.5370  -31.2320   -3.2870 O.2   425  ALA425     -0.2718
     40  CB        -4.4520  -30.1030   -5.5800 C.3   425  ALA425      0.0304
     41  N         -6.7250  -32.2640   -5.2930 N.am  426  ALA426     -0.1980
     42  CA        -8.1470  -32.5500   -5.1340 C.3   426  ALA426      0.1597
     43  C         -8.4190  -33.4790   -3.9550 C.2   426  ALA426      0.2287
     44  O         -9.4930  -33.4030   -3.3490 O.2   426  ALA426     -0.2864
     45  CB        -8.6960  -33.1780   -6.4160 C.3   426  ALA426      0.0319
     46  N         -7.3280  -33.3220   -1.0500 N.3   428  GLY428     -0.1225
     47  CA        -7.5340  -32.4810    0.1170 C.3   428  GLY428      0.1811
     48  C         -6.4090  -32.6350    1.1260 C.2   428  GLY428      0.2280
     49  O         -5.2390  -32.7580    0.7400 O.2   428  GLY428     -0.2866
     50  N         -9.9780  -25.0020  -11.8160 N.3   455  SER455     -0.1202
     51  CA       -10.3390  -25.7750  -10.6350 C.3   455  SER455      0.2020
     52  C         -9.9190  -25.1020   -9.3340 C.2   455  SER455      0.2619
     53  O        -10.2680  -25.5980   -8.2580 O.2   455  SER455     -0.2717
     54  CB        -9.6930  -27.1730  -10.7070 C.3   455  SER455      0.2103
     55  OG       -10.1210  -27.9100  -11.8570 O.3   455  SER455     -0.2182
     56  N         -9.1230  -24.0330   -9.4120 N.am  456  GLU456     -0.1965
     57  CA        -8.6140  -23.3130   -8.2370 C.3   456  GLU456      0.1733
     58  C         -7.7660  -24.2340   -7.3520 C.2   456  GLU456      0.2616
     59  O         -7.8910  -24.2470   -6.1270 O.2   456  GLU456     -0.2715
     60  CB        -9.7670  -22.6530   -7.4540 C.3   456  GLU456      0.0429
     61  CG       -10.4740  -21.5770   -8.2540 C.3   456  GLU456      0.1163
     62  CD       -11.7370  -21.0370   -7.5680 C.2   456  GLU456      0.3649
     63  OE1      -12.0210  -21.4140   -6.4150 O.co2 456  GLU456     -0.2457
     64  OE2      -12.4610  -20.2440   -8.1930 O.co2 456  GLU456     -0.2457
     65  N         -6.8720  -25.0180   -7.9910 N.am  457  PHE457     -0.1960
     66  CA        -6.0270  -25.9610   -7.2600 C.3   457  PHE457      0.1756
     67  C         -4.6490  -25.3620   -7.0240 C.2   457  PHE457      0.2461
     68  O         -3.9880  -24.9180   -7.9850 O.2   457  PHE457     -0.2730
     69  CB        -5.8780  -27.2810   -8.0250 C.3   457  PHE457      0.0574
     70  CG        -7.0840  -28.1950   -7.9590 C.ar  457  PHE457     -0.0200
     71  CD1       -7.9690  -28.1600   -6.8920 C.ar  457  PHE457     -0.0042
     72  CD2       -7.3130  -29.1200   -8.9710 C.ar  457  PHE457     -0.0042
     73  CE1       -9.0640  -29.0280   -6.8440 C.ar  457  PHE457     -0.0003
     74  CE2       -8.3910  -29.9810   -8.9110 C.ar  457  PHE457     -0.0003
     75  CZ        -9.2720  -29.9190   -7.8430 C.ar  457  PHE457     -0.0000
     76  N         -4.1600  -25.3390   -5.7180 N.am  458  PRO458     -0.2727
     77  CA        -2.8210  -24.7990   -5.4270 C.3   458  PRO458      0.1402
     78  C         -1.7300  -25.8280   -5.7090 C.2   458  PRO458      0.2269
     79  O         -1.1190  -26.4200   -4.8080 O.2   458  PRO458     -0.2865
     80  CB        -2.9350  -24.4350   -3.9420 C.3   458  PRO458      0.0296
     81  CG        -3.8760  -25.5060   -3.3780 C.3   458  PRO458      0.0237
     82  CD        -4.8690  -25.7820   -4.4920 C.3   458  PRO458      0.0939
     83  N         -4.2500  -21.2920   -1.6120 N.3   514  THR514     -0.1203
     84  CA        -5.3640  -22.2030   -1.4410 C.3   514  THR514      0.1994
     85  C         -6.2170  -22.3630   -2.6850 C.2   514  THR514      0.2617
     86  O         -6.8940  -23.3930   -2.8180 O.2   514  THR514     -0.2717
     87  CB        -6.2690  -21.7280   -0.2940 C.3   514  THR514      0.1784
     88  OG1       -6.6570  -20.3680   -0.5300 O.3   514  THR514     -0.2211
     89  CG2       -5.5180  -21.8330    1.0330 C.3   514  THR514      0.0376
     90  N         -6.1900  -21.3870   -3.6030 N.am  515  HIS515     -0.1975
     91  CA        -7.0680  -21.3900   -4.7610 C.3   515  HIS515      0.1656
     92  C         -6.3760  -21.0520   -6.0770 C.2   515  HIS515      0.2291
     93  O         -7.0770  -20.8140   -7.0710 O.2   515  HIS515     -0.2864
     94  CB        -8.2210  -20.4010   -4.5360 C.3   515  HIS515      0.0771
     95  CG        -9.2180  -20.8710   -3.5200 C.ar  515  HIS515      0.0820
     96  ND1       -8.9670  -20.8440   -2.1620 N.ar  515  HIS515     -0.2267
     97  CD2      -10.4570  -21.4000   -3.6620 C.ar  515  HIS515      0.1154
     98  CE1      -10.0070  -21.3370   -1.5150 C.ar  515  HIS515      0.1986
     99  NE2      -10.9260  -21.6810   -2.4010 N.ar  515  HIS515     -0.2212
@<TRIPOS>BOND
     1    55    54    1
     2    50    51    1
     3    54    51    1
     4    51    52    1
     5    21    22    1
     6    34    33    1
     7    27    26    2
     8    56    52   am
     9    56    57    1
    10    52    53    2
    11    72    74   ar
    12    72    70   ar
    13    74    75   ar
    14    22    25    1
    15    22    23    1
    16    26    25    1
    17    26    28   am
    18    35    33    1
    19    33    30    1
    20    29    23   am
    21    29    30    1
    22    61    62    1
    23    61    60    1
    24    57    60    1
    25    57    58    1
    26    64    62   ar
    27    69    70    1
    28    69    66    1
    29    65    58   am
    30    65    66    1
    31    68    67    2
    32    70    71   ar
    33    23    24    2
    34    75    73   ar
    35    30    31    1
    36    31    32    2
    37    62    63   ar
    38    58    59    2
    39    66    67    1
    40    93    92    2
    41    67    76   am
    42    71    73   ar
    43    45    42    1
    44    92    91    1
    45    76    77    1
    46    76    82    1
    47    78    77    1
    48    78    79    2
    49    40    37    1
    50    77    80    1
    51    36    37    1
    52    41    42    1
    53    41    38   am
    54    42    43    1
    55    91    94    1
    56    91    90    1
    57    37    38    1
    58    94    95    1
    59    82    81    1
    60    38    39    2
    61    43    44    2
    62    80    81    1
    63    97    95   ar
    64    97    99   ar
    65    90    85   am
    66    95    96   ar
    67    86    85    2
    68    85    84    1
    69    99    98   ar
    70    96    98   ar
    71    83    84    1
    72     9     8    1
    73    84    87    1
    74    20    18    1
    75    46    47    1
    76    17    18    2
    77    17    16    1
    78    88    87    1
    79    18    19    1
    80    87    89    1
    81    16    15    1
    82     8     7    1
    83    13    12    2
    84    47    48    1
    85    15    14    1
    86    12    11    1
    87    49    48    2
    88     7     6    1
    89    14    11    1
    90    11    10    1
    91     1     2    1
    92     6     5    1
    93     2     5    1
    94     2     3    1
    95     3     4    2
