@<TRIPOS>MOLECULE
tmp/5i5gA00.pdb
 109 101 0 0 0
SMALL
GASTEIGER

@<TRIPOS>ATOM
      1  N        -23.9610  -41.6910  -23.3660 N.3    29  ALA29      -0.1245
      2  CA       -23.1750  -42.3020  -22.2960 C.3    29  ALA29       0.1562
      3  C        -23.9320  -42.3550  -20.9770 C.2    29  ALA29       0.2260
      4  O        -23.8340  -43.3820  -20.2830 O.2    29  ALA29      -0.2867
      5  CB       -21.8380  -41.5570  -22.1310 C.3    29  ALA29       0.0290
      6  N        -15.1820  -39.0310  -18.4940 N.3    63  ASN63      -0.1240
      7  CA       -15.9140  -38.6960  -19.7160 C.3    63  ASN63       0.1653
      8  C        -16.9830  -37.6600  -19.3480 C.2    63  ASN63       0.2266
      9  O        -18.1750  -37.9420  -19.2260 O.2    63  ASN63      -0.2867
     10  CB       -16.4770  -39.9430  -20.3850 C.3    63  ASN63       0.1155
     11  CG       -17.1080  -40.9180  -19.4380 C.2    63  ASN63       0.2627
     12  OD1      -16.9210  -40.8710  -18.2210 O.2    63  ASN63      -0.2716
     13  ND2      -17.8310  -41.8730  -20.0170 N.am   63  ASN63      -0.0877
     14  N        -18.4920  -35.0690  -20.4850 N.3    65  HIS65      -0.1241
     15  CA       -19.6750  -34.7490  -21.2670 C.3    65  HIS65       0.1621
     16  C        -20.8770  -35.5610  -20.8000 C.2    65  HIS65       0.2264
     17  O        -22.0210  -35.1240  -20.9780 O.2    65  HIS65      -0.2867
     18  CB       -19.3730  -35.0080  -22.7430 C.3    65  HIS65       0.0745
     19  CG       -19.0360  -36.4310  -23.0410 C.ar   65  HIS65       0.0817
     20  ND1      -17.7810  -36.9550  -22.8310 N.ar   65  HIS65      -0.2268
     21  CD2      -19.7880  -37.4400  -23.5410 C.ar   65  HIS65       0.1154
     22  CE1      -17.7690  -38.2260  -23.1930 C.ar   65  HIS65       0.1986
     23  NE2      -18.9780  -38.5480  -23.6200 N.ar   65  HIS65      -0.2212
     24  N        -10.8640  -34.3820  -22.5820 N.3   115  LEU115     -0.1245
     25  CA       -10.7120  -35.8290  -22.4700 C.3   115  LEU115      0.1561
     26  C         -9.3160  -36.2070  -21.9890 C.2   115  LEU115      0.2260
     27  O         -8.3240  -35.5310  -22.2560 O.2   115  LEU115     -0.2867
     28  CB       -11.0340  -36.5100  -23.8060 C.3   115  LEU115      0.0270
     29  CG       -12.5170  -36.3980  -24.2020 C.3   115  LEU115      0.0019
     30  CD1      -12.7730  -37.0930  -25.5440 C.3   115  LEU115      0.0001
     31  CD2      -13.4640  -36.9390  -23.1130 C.3   115  LEU115      0.0001
     32  N        -14.2850  -43.0260  -21.1010 N.3   153  GLY153     -0.1210
     33  CA       -14.6950  -43.5040  -22.4040 C.3   153  GLY153      0.1956
     34  C        -13.5470  -43.7450  -23.3810 C.2   153  GLY153      0.2612
     35  O        -12.3640  -43.5660  -23.0710 O.2   153  GLY153     -0.2717
     36  N        -13.9350  -44.1630  -24.5920 N.am  154  ASP154     -0.1959
     37  CA       -12.9510  -44.4780  -25.6290 C.3   154  ASP154      0.1840
     38  C        -12.0330  -43.2960  -25.9030 C.2   154  ASP154      0.2623
     39  O        -10.8210  -43.4670  -26.0980 O.2   154  ASP154     -0.2715
     40  CB       -13.6420  -44.8940  -26.9380 C.3   154  ASP154      0.1450
     41  CG       -14.5030  -46.1340  -26.7880 C.2   154  ASP154      0.3671
     42  OD1      -13.9910  -47.1620  -26.3000 O.co2 154  ASP154     -0.2456
     43  OD2      -15.6860  -46.0700  -27.1590 O.co2 154  ASP154     -0.2456
     44  N        -12.6010  -42.0960  -25.9920 N.am  155  GLY155     -0.1940
     45  CA       -11.7840  -40.9290  -26.2360 C.3   155  GLY155      0.2014
     46  C        -10.6970  -40.7670  -25.1920 C.2   155  GLY155      0.2639
     47  O         -9.5450  -40.4580  -25.5170 O.2   155  GLY155     -0.2714
     48  N        -11.0440  -40.9860  -23.9240 N.am  156  CYS156     -0.1967
     49  CA       -10.0470  -40.8750  -22.8740 C.3   156  CYS156      0.1712
     50  C         -8.8860  -41.8230  -23.1250 C.2   156  CYS156      0.2296
     51  O         -7.7410  -41.4940  -22.8060 O.2   156  CYS156     -0.2864
     52  CB       -10.6740  -41.1660  -21.5150 C.3   156  CYS156      0.0983
     53  SG       -12.0040  -39.9940  -21.0390 S.3   156  CYS156     -0.0798
     54  N        -16.0710  -47.4710  -20.4960 N.3   182  ASP182     -0.1239
     55  CA       -17.3390  -47.5820  -21.2170 C.3   182  ASP182      0.1674
     56  C        -17.0510  -48.0750  -22.6280 C.2   182  ASP182      0.2266
     57  O        -16.8030  -47.2950  -23.5550 O.2   182  ASP182     -0.2867
     58  CB       -18.0660  -46.2470  -21.2270 C.3   182  ASP182      0.1410
     59  CG       -19.4600  -46.3540  -21.8360 C.2   182  ASP182      0.3668
     60  OD1      -19.8900  -47.5030  -22.0780 O.co2 182  ASP182     -0.2456
     61  OD2      -20.1210  -45.3110  -22.0200 O.co2 182  ASP182     -0.2456
     62  N        -18.2820  -49.0390  -25.6110 N.3   184  ASN184     -0.1240
     63  CA       -19.5110  -48.9350  -26.3920 C.3   184  ASN184      0.1653
     64  C        -19.2590  -48.7500  -27.8840 C.2   184  ASN184      0.2266
     65  O        -20.2160  -48.5470  -28.6430 O.2   184  ASN184     -0.2867
     66  CB       -20.3890  -47.8050  -25.8570 C.3   184  ASN184      0.1155
     67  CG       -19.7930  -46.4300  -26.0680 C.2   184  ASN184      0.2627
     68  OD1      -18.8760  -46.2200  -26.8800 O.2   184  ASN184     -0.2716
     69  ND2      -20.3430  -45.4710  -25.3530 N.am  184  ASN184     -0.0877
     70  N        -18.2970  -46.5950  -29.9220 N.3   186  ILE186     -0.1231
     71  CA       -18.7370  -45.3970  -30.6260 C.3   186  ILE186      0.1692
     72  C        -17.9310  -44.2080  -30.1170 C.2   186  ILE186      0.2593
     73  O        -17.7670  -44.0360  -28.9040 O.2   186  ILE186     -0.2718
     74  CB       -20.2530  -45.1560  -30.4350 C.3   186  ILE186      0.0266
     75  CG1      -21.0760  -46.2120  -31.1990 C.3   186  ILE186      0.0019
     76  CG2      -20.6470  -43.7580  -30.8870 C.3   186  ILE186      0.0020
     77  CD1      -21.0090  -46.0840  -32.7010 C.3   186  ILE186      0.0001
     78  N        -17.4180  -43.3980  -31.0340 N.am  187  SER187     -0.1938
     79  CA       -16.9200  -42.0820  -30.6660 C.3   187  SER187      0.2055
     80  C        -17.6620  -41.0630  -31.5300 C.2   187  SER187      0.2642
     81  O        -18.6340  -41.3930  -32.2190 O.2   187  SER187     -0.2714
     82  CB       -15.3910  -42.0030  -30.7990 C.3   187  SER187      0.2130
     83  OG       -14.9730  -42.0010  -32.1550 O.3   187  SER187     -0.2179
     84  N        -17.2030  -39.8130  -31.4840 N.am  188  ILE188     -0.1977
     85  CA       -17.9050  -38.7350  -32.1770 C.3   188  ILE188      0.1596
     86  C        -17.8970  -38.9540  -33.6860 C.2   188  ILE188      0.2287
     87  O        -18.9060  -38.7150  -34.3610 O.2   188  ILE188     -0.2864
     88  CB       -17.2980  -37.3800  -31.7790 C.3   188  ILE188      0.0276
     89  CG1      -17.8220  -37.0010  -30.3890 C.3   188  ILE188      0.0022
     90  CG2      -17.6440  -36.2970  -32.8040 C.3   188  ILE188      0.0022
     91  CD1      -16.9730  -35.9790  -29.6640 C.3   188  ILE188      0.0001
     92  N        -24.4610  -47.7890  -26.1550 N.3   247  ILE247     -0.1245
     93  CA       -24.5800  -46.3480  -25.9800 C.3   247  ILE247      0.1561
     94  C        -26.0410  -45.9630  -26.1940 C.2   247  ILE247      0.2260
     95  O        -26.7140  -46.4930  -27.0860 O.2   247  ILE247     -0.2867
     96  CB       -23.6420  -45.5790  -26.9280 C.3   247  ILE247      0.0252
     97  CG1      -23.6200  -44.0970  -26.5260 C.3   247  ILE247      0.0019
     98  CG2      -24.0670  -45.7460  -28.3950 C.3   247  ILE247      0.0019
     99  CD1      -22.6490  -43.2550  -27.2940 C.3   247  ILE247      0.0001
    100  N        -24.9870  -39.9110  -29.2320 N.3   260  HIS260     -0.1241
    101  CA       -23.8100  -39.4660  -28.4920 C.3   260  HIS260      0.1621
    102  C        -24.0100  -38.0790  -27.8920 C.2   260  HIS260      0.2264
    103  O        -23.9800  -37.9280  -26.6640 O.2   260  HIS260     -0.2867
    104  CB       -22.5610  -39.4590  -29.3820 C.3   260  HIS260      0.0745
    105  CG       -21.3430  -38.9100  -28.7020 C.ar  260  HIS260      0.0817
    106  ND1      -20.2450  -39.6870  -28.3980 N.ar  260  HIS260     -0.2268
    107  CD2      -21.0570  -37.6640  -28.2500 C.ar  260  HIS260      0.1154
    108  CE1      -19.3340  -38.9420  -27.7940 C.ar  260  HIS260      0.1986
    109  NE2      -19.8040  -37.7120  -27.6890 N.ar  260  HIS260     -0.2212
@<TRIPOS>BOND
     1    87    86    2
     2    86    85    1
     3    90    88    1
     4    77    75    1
     5    81    80    2
     6    85    88    1
     7    85    84    1
     8    83    82    1
     9    88    89    1
    10    80    84   am
    11    80    79    1
    12    75    74    1
    13    78    79    1
    14    78    72   am
    15    76    74    1
    16    82    79    1
    17    71    74    1
    18    71    72    1
    19    71    70    1
    20    89    91    1
    21    72    73    2
    22   104   105    1
    23   104   101    1
    24   100   101    1
    25   105   106   ar
    26   105   107   ar
    27    65    64    2
    28   101   102    1
    29   106   108   ar
    30    98    96    1
    31   107   109   ar
    32   102   103    2
    33    64    63    1
    34   108   109   ar
    35    99    97    1
    36    43    41   ar
    37    95    94    2
    38    40    41    1
    39    40    37    1
    40    96    97    1
    41    96    93    1
    42    68    67    2
    43    41    42   ar
    44    63    66    1
    45    63    62    1
    46    45    44    1
    47    45    46    1
    48    94    93    1
    49    92    93    1
    50    39    38    2
    51    67    66    1
    52    67    69   am
    53    44    38   am
    54    38    37    1
    55    37    36    1
    56    30    29    1
    57    47    46    2
    58    46    48   am
    59    36    34   am
    60    29    28    1
    61    29    31    1
    62    48    49    1
    63    28    25    1
    64    23    21   ar
    65    23    22   ar
    66    57    56    2
    67    21    19   ar
    68    34    35    2
    69    34    33    1
    70     1     2    1
    71    22    20   ar
    72    50    49    1
    73    50    51    2
    74    19    20   ar
    75    19    18    1
    76    49    52    1
    77    18    15    1
    78    56    55    1
    79    24    25    1
    80    25    26    1
    81    33    32    1
    82     2     5    1
    83     2     3    1
    84    27    26    2
    85    60    59   ar
    86    61    59   ar
    87    59    58    1
    88    52    53    1
    89    15    16    1
    90    15    14    1
    91    58    55    1
    92    55    54    1
    93    17    16    2
    94     3     4    2
    95    10     7    1
    96    10    11    1
    97    13    11   am
    98     7     8    1
    99     7     6    1
   100    11    12    2
   101     8     9    2
