@<TRIPOS>MOLECULE
tmp/5i5rD00.pdb
 166 168 0 0 0
SMALL
GASTEIGER

@<TRIPOS>ATOM
      1  N         19.0520  -41.4740  -38.0670 N.3    30  PHE30      -0.1241
      2  CA        19.1230  -42.7270  -37.3070 C.3    30  PHE30       0.1605
      3  C         20.4320  -42.5780  -36.5180 C.2    30  PHE30       0.2264
      4  O         21.4250  -42.0990  -37.0590 O.2    30  PHE30      -0.2867
      5  CB        19.2130  -43.9270  -38.2450 C.3    30  PHE30       0.0534
      6  CG        18.3240  -45.0700  -37.8780 C.ar   30  PHE30      -0.0203
      7  CD1       18.3510  -45.6160  -36.6300 C.ar   30  PHE30      -0.0042
      8  CD2       17.4990  -45.6350  -38.8160 C.ar   30  PHE30      -0.0042
      9  CE1       17.5320  -46.6660  -36.2990 C.ar   30  PHE30      -0.0003
     10  CE2       16.6950  -46.7180  -38.5060 C.ar   30  PHE30      -0.0003
     11  CZ        16.7000  -47.2260  -37.2350 C.ar   30  PHE30      -0.0000
     12  N         22.9720  -45.1310  -34.5430 N.3    32  HIS32      -0.1241
     13  CA        23.4020  -46.4660  -34.0710 C.3    32  HIS32       0.1621
     14  C         24.6100  -46.2550  -33.1680 C.2    32  HIS32       0.2264
     15  O         25.7170  -45.9350  -33.6470 O.2    32  HIS32      -0.2867
     16  CB        23.7760  -47.3900  -35.2030 C.3    32  HIS32       0.0745
     17  CG        22.6120  -48.0820  -35.8090 C.ar   32  HIS32       0.0817
     18  ND1       21.7320  -47.4490  -36.6470 N.ar   32  HIS32      -0.2268
     19  CD2       22.1910  -49.3670  -35.7170 C.ar   32  HIS32       0.1154
     20  CE1       20.7920  -48.2990  -37.0250 C.ar   32  HIS32       0.1986
     21  NE2       21.0630  -49.4770  -36.4860 N.ar   32  HIS32      -0.2212
     22  N         28.3300  -53.0770  -36.4460 N.3    53  GLU53      -0.1231
     23  CA        27.4210  -53.4550  -35.3630 C.3    53  GLU53       0.1699
     24  C         27.1270  -54.9670  -35.2640 C.2    53  GLU53       0.2592
     25  O         26.5530  -55.4220  -34.2640 O.2    53  GLU53      -0.2718
     26  CB        26.1280  -52.5930  -35.3700 C.3    53  GLU53       0.0402
     27  CG        25.0250  -52.9570  -36.3690 C.3    53  GLU53       0.1161
     28  CD        25.3360  -52.6290  -37.8350 C.2    53  GLU53       0.3649
     29  OE1       26.3160  -51.8870  -38.1660 O.co2  53  GLU53      -0.2457
     30  OE2       24.5690  -53.1420  -38.6520 O.co2  53  GLU53      -0.2457
     31  N         27.5150  -55.7150  -36.3020 N.am   54  TRP54      -0.1976
     32  CA        27.4830  -57.1660  -36.3310 C.3    54  TRP54       0.1640
     33  C         28.8540  -57.8010  -36.0800 C.2    54  TRP54       0.2290
     34  O         29.0010  -59.0120  -36.2990 O.2    54  TRP54      -0.2864
     35  CB        26.9250  -57.6580  -37.6960 C.3    54  TRP54       0.0576
     36  CG        25.4640  -57.6230  -37.7820 C.ar   54  TRP54       0.0006
     37  CD1       24.6810  -56.5060  -37.8770 C.ar   54  TRP54       0.0946
     38  CD2       24.5600  -58.7510  -37.7510 C.ar   54  TRP54       0.0152
     39  NE1       23.3670  -56.8780  -37.9330 N.ar   54  TRP54      -0.2442
     40  CE2       23.2680  -58.2420  -37.8450 C.ar   54  TRP54       0.0810
     41  CE3       24.7290  -60.1400  -37.6300 C.ar   54  TRP54       0.0012
     42  CZ2       22.1330  -59.0640  -37.8490 C.ar   54  TRP54       0.0191
     43  CZ3       23.6070  -60.9590  -37.6210 C.ar   54  TRP54       0.0001
     44  CH2       22.3300  -60.4250  -37.7570 C.ar   54  TRP54       0.0015
     45  N         30.6220  -61.5560  -36.8820 N.3    58  TRP58      -0.1241
     46  CA        31.6750  -61.8120  -37.8900 C.3    58  TRP58       0.1605
     47  C         32.9030  -62.4460  -37.2740 C.2    58  TRP58       0.2264
     48  O         33.4790  -63.3370  -37.8470 O.2    58  TRP58      -0.2867
     49  CB        32.1210  -60.5450  -38.6200 C.3    58  TRP58       0.0550
     50  CG        30.9970  -59.6840  -39.1210 C.ar   58  TRP58       0.0003
     51  CD1       30.9290  -58.3190  -39.0440 C.ar   58  TRP58       0.0946
     52  CD2       29.8010  -60.1130  -39.7600 C.ar   58  TRP58       0.0152
     53  NE1       29.7730  -57.8740  -39.6080 N.ar   58  TRP58      -0.2442
     54  CE2       29.0490  -58.9480  -40.0450 C.ar   58  TRP58       0.0810
     55  CE3       29.2680  -61.3580  -40.0920 C.ar   58  TRP58       0.0012
     56  CZ2       27.8060  -58.9950  -40.6660 C.ar   58  TRP58       0.0191
     57  CZ3       28.0330  -61.4150  -40.6990 C.ar   58  TRP58       0.0001
     58  CH2       27.3060  -60.2320  -40.9790 C.ar   58  TRP58       0.0015
     59  N         20.6690  -52.5710  -29.3640 N.3   101  HIS101     -0.1226
     60  CA        20.8700  -53.3320  -30.6280 C.3   101  HIS101      0.1752
     61  C         20.9270  -54.8500  -30.3240 C.2   101  HIS101      0.2596
     62  O         20.6210  -55.2820  -29.1860 O.2   101  HIS101     -0.2718
     63  CB        22.0990  -52.8120  -31.4010 C.3   101  HIS101      0.0759
     64  CG        22.0070  -53.0130  -32.8830 C.ar  101  HIS101      0.0818
     65  ND1       22.5890  -54.0870  -33.5270 N.ar  101  HIS101     -0.2268
     66  CD2       21.3360  -52.3250  -33.8390 C.ar  101  HIS101      0.1154
     67  CE1       22.2760  -54.0600  -34.8100 C.ar  101  HIS101      0.1986
     68  NE2       21.5310  -52.9870  -35.0300 N.ar  101  HIS101     -0.2212
     69  N         21.2570  -55.6660  -31.3120 N.am  102  HIS102     -0.1975
     70  CA        21.3250  -57.1350  -31.1440 C.3   102  HIS102      0.1656
     71  C         22.2400  -57.5790  -30.0040 C.2   102  HIS102      0.2291
     72  O         21.9150  -58.5230  -29.3040 O.2   102  HIS102     -0.2864
     73  CB        21.7850  -57.8310  -32.4350 C.3   102  HIS102      0.0771
     74  CG        21.0770  -57.3760  -33.6910 C.ar  102  HIS102      0.0820
     75  ND1       19.7720  -56.9430  -33.7070 N.ar  102  HIS102     -0.2267
     76  CD2       21.5090  -57.3020  -34.9710 C.ar  102  HIS102      0.1154
     77  CE1       19.4170  -56.6710  -34.9460 C.ar  102  HIS102      0.1986
     78  NE2       20.4660  -56.8350  -35.7270 N.ar  102  HIS102     -0.2212
     79  N         14.4690  -47.1540  -31.5520 N.3   144  TYR144     -0.1241
     80  CA        14.8260  -48.4200  -32.1570 C.3   144  TYR144      0.1605
     81  C         14.9840  -49.4400  -31.0260 C.2   144  TYR144      0.2264
     82  O         15.6040  -49.1560  -30.0190 O.2   144  TYR144     -0.2867
     83  CB        16.1220  -48.3000  -32.9480 C.3   144  TYR144      0.0534
     84  CG        16.7280  -49.6320  -33.4000 C.ar  144  TYR144     -0.0201
     85  CD1       17.3000  -50.5260  -32.4820 C.ar  144  TYR144     -0.0009
     86  CD2       16.8240  -49.9450  -34.7510 C.ar  144  TYR144     -0.0009
     87  CE1       17.8690  -51.7340  -32.9130 C.ar  144  TYR144      0.0417
     88  CE2       17.4460  -51.1190  -35.1900 C.ar  144  TYR144      0.0417
     89  CZ        17.9450  -52.0070  -34.2720 C.ar  144  TYR144      0.1957
     90  OH        18.4770  -53.1950  -34.7050 O.3   144  TYR144     -0.2866
     91  N         10.4720  -48.6010  -33.2070 N.3   193  TRP193     -0.1241
     92  CA        10.8970  -49.2150  -34.4800 C.3   193  TRP193      0.1605
     93  C         11.6180  -50.5160  -34.1420 C.2   193  TRP193      0.2264
     94  O         12.7620  -50.5140  -33.7380 O.2   193  TRP193     -0.2867
     95  CB        11.8160  -48.2670  -35.2230 C.3   193  TRP193      0.0550
     96  CG        11.9760  -48.6020  -36.6500 C.ar  193  TRP193      0.0003
     97  CD1       11.2370  -48.1130  -37.6730 C.ar  193  TRP193      0.0946
     98  CD2       12.9430  -49.4660  -37.2410 C.ar  193  TRP193      0.0152
     99  NE1       11.6740  -48.5990  -38.8610 N.ar  193  TRP193     -0.2442
    100  CE2       12.7330  -49.4280  -38.6450 C.ar  193  TRP193      0.0810
    101  CE3       13.9530  -50.2730  -36.7380 C.ar  193  TRP193      0.0012
    102  CZ2       13.5150  -50.1580  -39.5510 C.ar  193  TRP193      0.0191
    103  CZ3       14.7570  -50.9740  -37.6430 C.ar  193  TRP193      0.0001
    104  CH2       14.5100  -50.9270  -39.0310 C.ar  193  TRP193      0.0015
    105  N         13.3220  -54.1320  -34.6480 N.3   195  ASP195     -0.1239
    106  CA        14.2270  -54.8580  -35.5450 C.3   195  ASP195      0.1674
    107  C         14.4430  -56.2320  -34.9000 C.2   195  ASP195      0.2266
    108  O         14.0440  -56.4640  -33.7510 O.2   195  ASP195     -0.2867
    109  CB        15.5740  -54.1170  -35.6660 C.3   195  ASP195      0.1410
    110  CG        16.3170  -54.4170  -36.9830 C.2   195  ASP195      0.3668
    111  OD1       15.8070  -55.2300  -37.7940 O.co2 195  ASP195     -0.2456
    112  OD2       17.4030  -53.8310  -37.1810 O.co2 195  ASP195     -0.2456
    113  N         12.8260  -61.3810  -37.1580 N.3   198  TRP198     -0.1241
    114  CA        12.6870  -62.2310  -38.3640 C.3   198  TRP198      0.1605
    115  C         12.8340  -63.7200  -38.0460 C.2   198  TRP198      0.2264
    116  O         12.4030  -64.5520  -38.8380 O.2   198  TRP198     -0.2867
    117  CB        13.7200  -61.8390  -39.4300 C.3   198  TRP198      0.0550
    118  CG        15.1240  -61.7800  -38.8740 C.ar  198  TRP198      0.0003
    119  CD1       15.9080  -62.8390  -38.5680 C.ar  198  TRP198      0.0946
    120  CD2       15.8900  -60.6140  -38.5550 C.ar  198  TRP198      0.0152
    121  NE1       17.1300  -62.4040  -38.0980 N.ar  198  TRP198     -0.2442
    122  CE2       17.1400  -61.0430  -38.0740 C.ar  198  TRP198      0.0810
    123  CE3       15.6540  -59.2580  -38.6650 C.ar  198  TRP198      0.0012
    124  CZ2       18.1390  -60.1680  -37.6720 C.ar  198  TRP198      0.0191
    125  CZ3       16.6620  -58.3850  -38.2770 C.ar  198  TRP198      0.0001
    126  CH2       17.8840  -58.8490  -37.7820 C.ar  198  TRP198      0.0015
    127  N          7.6240  -53.8890  -39.0190 N.3   228  ARG228     -0.1245
    128  CA         8.6510  -54.9360  -38.8630 C.3   228  ARG228      0.1563
    129  C          8.4830  -55.7430  -37.5400 C.2   228  ARG228      0.2260
    130  O          8.9250  -56.8520  -37.4610 O.2   228  ARG228     -0.2867
    131  CB        10.0400  -54.3400  -38.9310 C.3   228  ARG228      0.0307
    132  CG        11.1190  -55.3960  -39.0570 C.3   228  ARG228      0.0489
    133  CD        12.5170  -54.8410  -39.2430 C.3   228  ARG228      0.2205
    134  NE        12.6450  -54.0390  -40.4590 N.pl3 228  ARG228     -0.0865
    135  CZ        13.7910  -53.7330  -41.0380 C.cat 228  ARG228      0.5346
    136  NH1       14.9590  -54.2250  -40.5610 N.pl3 228  ARG228      0.1354
    137  NH2       13.7770  -52.9760  -42.1360 N.pl3 228  ARG228      0.1354
    138  N         15.0240  -50.8350  -46.4730 N.3   254  GLU254     -0.1245
    139  CA        16.2890  -50.6420  -45.7650 C.3   254  GLU254      0.1567
    140  C         17.4480  -50.6520  -46.7830 C.2   254  GLU254      0.2260
    141  O         17.6990  -51.6580  -47.4290 O.2   254  GLU254     -0.2867
    142  CB        16.4340  -51.7790  -44.7640 C.3   254  GLU254      0.0388
    143  CG        17.6640  -51.6830  -43.8790 C.3   254  GLU254      0.1160
    144  CD        17.6300  -52.6760  -42.7310 C.2   254  GLU254      0.3649
    145  OE1       16.5430  -52.9350  -42.1810 O.co2 254  GLU254     -0.2457
    146  OE2       18.6810  -53.2430  -42.3870 O.co2 254  GLU254     -0.2457
    147  N         15.0260  -46.3040  -44.4520 N.3   274  CYS274     -0.1235
    148  CA        16.2800  -45.9530  -43.8050 C.3   274  CYS274      0.1677
    149  C         17.4520  -46.2990  -44.7350 C.2   274  CYS274      0.2270
    150  O         17.3330  -47.0980  -45.6720 O.2   274  CYS274     -0.2867
    151  CB        16.4140  -46.6260  -42.4590 C.3   274  CYS274      0.0956
    152  SG        16.1260  -48.3870  -42.4550 S.3   274  CYS274     -0.0801
    153  N         26.1280  -49.4090  -40.1750 N.3   282  TRP282     -0.1241
    154  CA        25.1890  -48.6470  -39.3310 C.3   282  TRP282      0.1605
    155  C         25.8950  -48.1420  -38.0890 C.2   282  TRP282      0.2264
    156  O         25.9450  -46.9480  -37.8490 O.2   282  TRP282     -0.2867
    157  CB        23.9740  -49.4840  -38.9820 C.3   282  TRP282      0.0550
    158  CG        23.1990  -49.9370  -40.1630 C.ar  282  TRP282      0.0003
    159  CD1       23.4270  -51.0370  -40.9020 C.ar  282  TRP282      0.0946
    160  CD2       22.0340  -49.3100  -40.7290 C.ar  282  TRP282      0.0152
    161  NE1       22.4870  -51.1630  -41.8870 N.ar  282  TRP282     -0.2442
    162  CE2       21.6090  -50.1240  -41.8040 C.ar  282  TRP282      0.0810
    163  CE3       21.3200  -48.1520  -40.4370 C.ar  282  TRP282      0.0012
    164  CZ2       20.4960  -49.8110  -42.6040 C.ar  282  TRP282      0.0191
    165  CZ3       20.2020  -47.8410  -41.2090 C.ar  282  TRP282      0.0001
    166  CH2       19.8090  -48.6660  -42.3010 C.ar  282  TRP282      0.0015
@<TRIPOS>BOND
     1   141   140    2
     2   140   139    1
     3   138   139    1
     4   139   142    1
     5   150   149    2
     6   142   143    1
     7   149   148    1
     8   147   148    1
     9   143   144    1
    10   148   151    1
    11   144   146   ar
    12   144   145   ar
    13   164   166   ar
    14   164   162   ar
    15   151   152    1
    16   166   165   ar
    17   137   135    1
    18   161   162   ar
    19   161   159   ar
    20   162   160   ar
    21   165   163   ar
    22   135   136    1
    23   135   134    2
    24    58    57   ar
    25    58    56   ar
    26   159   158   ar
    27   160   163   ar
    28   160   158   ar
    29    57    55   ar
    30    56    54   ar
    31   134   133    1
    32   153   154    1
    33   158   157    1
    34    55    52   ar
    35    54    52   ar
    36    54    53   ar
    37    52    50   ar
    38    53    51   ar
    39   102   104   ar
    40   102   100   ar
    41   117   118    1
    42   117   114    1
    43   154   157    1
    44   154   155    1
    45   133   132    1
    46    50    51   ar
    47    50    49    1
    48   132   131    1
    49   104   103   ar
    50   127   128    1
    51   131   128    1
    52   118   119   ar
    53   118   120   ar
    54   128   129    1
    55    99   100   ar
    56    99    97   ar
    57   116   115    2
    58     8    10   ar
    59     8     6   ar
    60   123   120   ar
    61   123   125   ar
    62    30    28   ar
    63   100    98   ar
    64    49    46    1
    65   119   121   ar
    66   120   122   ar
    67    10    11   ar
    68   114   115    1
    69   114   113    1
    70   125   126   ar
    71     5     6    1
    72     5     2    1
    73    29    28   ar
    74   121   122   ar
    75   155   156    2
    76   122   124   ar
    77     1     2    1
    78    39    37   ar
    79    39    40   ar
    80    46    47    1
    81    46    45    1
    82     6     7   ar
    83    37    36   ar
    84    42    40   ar
    85    42    44   ar
    86    48    47    2
    87    40    38   ar
    88    28    27    1
    89   111   110   ar
    90   126   124   ar
    91    36    38   ar
    92    36    35    1
    93    44    43   ar
    94    38    41   ar
    95    35    32    1
    96    97    96   ar
    97   103   101   ar
    98    41    43   ar
    99   129   130    2
   100     2     3    1
   101    98   101   ar
   102    98    96   ar
   103    11     9   ar
   104   112   110   ar
   105     4     3    2
   106    20    18   ar
   107    20    21   ar
   108   110   109    1
   109    96    95    1
   110    18    17   ar
   111     7     9   ar
   112    21    19   ar
   113    22    23    1
   114    27    26    1
   115    32    31    1
   116    32    33    1
   117    31    24   am
   118    34    33    2
   119    17    19   ar
   120    17    16    1
   121    78    76   ar
   122    78    77   ar
   123   109   106    1
   124   106   107    1
   125   106   105    1
   126    26    23    1
   127    23    24    1
   128    24    25    2
   129    95    92    1
   130    16    13    1
   131    88    86   ar
   132    88    89   ar
   133    68    67   ar
   134    68    66   ar
   135    76    74   ar
   136    77    75   ar
   137   107   108    2
   138    67    65   ar
   139    86    84   ar
   140    90    89    1
   141    12    13    1
   142    92    93    1
   143    92    91    1
   144    89    87   ar
   145    93    94    2
   146    13    14    1
   147    66    64   ar
   148    75    74   ar
   149    74    73    1
   150    15    14    2
   151    65    64   ar
   152    84    83    1
   153    84    85   ar
   154    83    80    1
   155    87    85   ar
   156    64    63    1
   157    73    70    1
   158    80    79    1
   159    80    81    1
   160    63    60    1
   161    69    70    1
   162    69    61   am
   163    70    71    1
   164    81    82    2
   165    60    61    1
   166    60    59    1
   167    61    62    2
   168    71    72    2
