@<TRIPOS>MOLECULE
tmp/5i5sB01.pdb
 119 114 0 0 0
SMALL
GASTEIGER

@<TRIPOS>ATOM
      1  N         28.3830   33.0390   34.3030 N.3    25  PHE25      -0.1241
      2  CA        27.3520   33.9580   34.7940 C.3    25  PHE25       0.1605
      3  C         25.9360   33.4250   34.5920 C.2    25  PHE25       0.2264
      4  O         25.5690   33.0780   33.4920 O.2    25  PHE25      -0.2867
      5  CB        27.4690   35.3240   34.1030 C.3    25  PHE25       0.0534
      6  CG        26.5050   36.3500   34.6310 C.ar   25  PHE25      -0.0203
      7  CD1       25.1940   36.3970   34.1680 C.ar   25  PHE25      -0.0042
      8  CD2       26.9110   37.2740   35.5920 C.ar   25  PHE25      -0.0042
      9  CE1       24.3100   37.3360   34.6540 C.ar   25  PHE25      -0.0003
     10  CE2       26.0270   38.2220   36.0820 C.ar   25  PHE25      -0.0003
     11  CZ        24.7260   38.2500   35.6120 C.ar   25  PHE25      -0.0000
     12  N         12.1450   42.2020   36.5670 N.3    70  PHE70      -0.1241
     13  CA        13.2470   41.6630   37.3450 C.3    70  PHE70       0.1605
     14  C         14.2160   42.7150   37.8390 C.2    70  PHE70       0.2264
     15  O         14.1600   43.8900   37.4730 O.2    70  PHE70      -0.2867
     16  CB        14.0030   40.6070   36.5550 C.3    70  PHE70       0.0534
     17  CG        14.7850   41.1540   35.3990 C.ar   70  PHE70      -0.0203
     18  CD1       14.1470   41.4930   34.2050 C.ar   70  PHE70      -0.0042
     19  CD2       16.1610   41.3020   35.4880 C.ar   70  PHE70      -0.0042
     20  CE1       14.8610   41.9890   33.1290 C.ar   70  PHE70      -0.0003
     21  CE2       16.8940   41.8090   34.4140 C.ar   70  PHE70      -0.0003
     22  CZ        16.2390   42.1440   33.2300 C.ar   70  PHE70      -0.0000
     23  N         18.5520   42.9610   39.3960 N.3    72  GLY72      -0.1225
     24  CA        19.8590   42.3560   39.4040 C.3    72  GLY72       0.1811
     25  C         20.7420   43.2070   40.2770 C.2    72  GLY72       0.2280
     26  O         20.8740   44.4170   40.0620 O.2    72  GLY72      -0.2866
     27  N         25.3470   36.9730   42.5040 N.3   136  TYR136     -0.1241
     28  CA        24.3270   37.7190   41.7600 C.3   136  TYR136      0.1605
     29  C         22.9590   37.3840   42.3370 C.2   136  TYR136      0.2264
     30  O         22.6130   36.2110   42.5380 O.2   136  TYR136     -0.2867
     31  CB        24.3860   37.3800   40.2890 C.3   136  TYR136      0.0534
     32  CG        23.5240   38.2560   39.4140 C.ar  136  TYR136     -0.0201
     33  CD1       23.8700   39.5810   39.1520 C.ar  136  TYR136     -0.0009
     34  CD2       22.3620   37.7600   38.8360 C.ar  136  TYR136     -0.0009
     35  CE1       23.0790   40.3790   38.3380 C.ar  136  TYR136      0.0417
     36  CE2       21.5750   38.5510   38.0260 C.ar  136  TYR136      0.0417
     37  CZ        21.9290   39.8560   37.7760 C.ar  136  TYR136      0.1957
     38  OH        21.1210   40.6280   36.9560 O.3   136  TYR136     -0.2866
     39  N         18.9560   37.7840   41.8310 N.3   138  ARG138     -0.1245
     40  CA        17.9100   37.9710   40.8010 C.3   138  ARG138      0.1563
     41  C         16.5260   37.8520   41.4170 C.2   138  ARG138      0.2260
     42  O         15.9820   36.7440   41.5570 O.2   138  ARG138     -0.2867
     43  CB        18.0990   36.9400   39.6810 C.3   138  ARG138      0.0307
     44  CG        17.0100   36.8630   38.6020 C.3   138  ARG138      0.0489
     45  CD        16.6490   38.2000   37.9660 C.3   138  ARG138      0.2205
     46  NE        17.7450   38.8320   37.2400 N.pl3 138  ARG138     -0.0865
     47  CZ        18.0870   38.5960   35.9810 C.cat 138  ARG138      0.5346
     48  NH1       17.4340   37.7100   35.2460 N.pl3 138  ARG138      0.1354
     49  NH2       19.1120   39.2460   35.4420 N.pl3 138  ARG138      0.1354
     50  N         32.2040   38.7830   33.6530 N.3   168  TYR168     -0.1241
     51  CA        31.2310   38.6840   32.5570 C.3   168  TYR168      0.1605
     52  C         31.9300   38.9650   31.2260 C.2   168  TYR168      0.2264
     53  O         32.0190   38.0950   30.3660 O.2   168  TYR168     -0.2867
     54  CB        30.0890   39.6840   32.7700 C.3   168  TYR168      0.0534
     55  CG        28.9540   39.5680   31.7690 C.ar  168  TYR168     -0.0201
     56  CD1       29.0470   40.1610   30.5050 C.ar  168  TYR168     -0.0009
     57  CD2       27.7830   38.8790   32.0920 C.ar  168  TYR168     -0.0009
     58  CE1       28.0130   40.0630   29.5910 C.ar  168  TYR168      0.0417
     59  CE2       26.7430   38.7760   31.1850 C.ar  168  TYR168      0.0417
     60  CZ        26.8630   39.3700   29.9380 C.ar  168  TYR168      0.1957
     61  OH        25.8400   39.2750   29.0300 O.3   168  TYR168     -0.2866
     62  N         12.8160   47.8860   34.3250 N.3   193  LYS193     -0.1245
     63  CA        13.5210   46.6500   34.1100 C.3   193  LYS193      0.1561
     64  C         12.5170   45.5200   33.8890 C.2   193  LYS193      0.2260
     65  O         12.3850   44.5990   34.6960 O.2   193  LYS193     -0.2867
     66  CB        14.5110   46.3750   35.2620 C.3   193  LYS193      0.0271
     67  CG        15.7990   45.7110   34.8090 C.3   193  LYS193      0.0035
     68  CD        16.9040   45.7490   35.8460 C.3   193  LYS193      0.0206
     69  CE        18.2110   45.1990   35.2790 C.3   193  LYS193      0.1093
     70  NZ        18.7970   46.1190   34.2720 N.3   193  LYS193     -0.1314
     71  N         13.9380   43.0550   26.8490 N.3   198  TYR198     -0.1241
     72  CA        15.1400   42.2370   26.6020 C.3   198  TYR198      0.1605
     73  C         14.9790   41.1790   25.5090 C.2   198  TYR198      0.2264
     74  O         15.8760   41.0070   24.6890 O.2   198  TYR198     -0.2867
     75  CB        15.6790   41.6590   27.9370 C.3   198  TYR198      0.0534
     76  CG        15.9240   42.8190   28.8790 C.ar  198  TYR198     -0.0201
     77  CD1       14.9100   43.2810   29.7060 C.ar  198  TYR198     -0.0009
     78  CD2       17.1230   43.5340   28.8570 C.ar  198  TYR198     -0.0009
     79  CE1       15.0850   44.3830   30.5230 C.ar  198  TYR198      0.0417
     80  CE2       17.3070   44.6460   29.6660 C.ar  198  TYR198      0.0417
     81  CZ        16.2760   45.0720   30.4880 C.ar  198  TYR198      0.1957
     82  OH        16.3960   46.1810   31.2920 O.3   198  TYR198     -0.2866
     83  N         23.1820   45.9480   27.8440 N.3   231  THR231     -0.1203
     84  CA        22.3640   46.1820   29.0230 C.3   231  THR231      0.1994
     85  C         23.0910   47.1350   29.9920 C.2   231  THR231      0.2617
     86  O         22.9170   47.0550   31.1840 O.2   231  THR231     -0.2717
     87  CB        22.0950   44.8640   29.7750 C.3   231  THR231      0.1784
     88  OG1       23.3450   44.3010   30.1650 O.3   231  THR231     -0.2211
     89  CG2       21.3120   43.8660   28.8850 C.3   231  THR231      0.0376
     90  N         23.9180   48.0150   29.4550 N.am  232  MET232     -0.1979
     91  CA        24.6970   48.9260   30.2660 C.3   232  MET232      0.1605
     92  C         24.4400   50.3540   29.8640 C.2   232  MET232      0.2287
     93  O         24.1610   50.6540   28.6880 O.2   232  MET232     -0.2864
     94  CB        26.1850   48.6450   30.0810 C.3   232  MET232      0.0413
     95  CG        26.5700   47.2390   30.4720 C.3   232  MET232      0.0598
     96  SD        28.3450   47.0210   30.3320 S.3   232  MET232     -0.1393
     97  CE        28.5910   46.9830   28.5580 C.3   232  MET232      0.0692
     98  N         27.2050   48.6840   34.4640 N.3   303  GLY303     -0.1210
     99  CA        26.0890   47.8300   34.8390 C.3   303  GLY303      0.1956
    100  C         26.5490   46.8970   35.9280 C.2   303  GLY303      0.2613
    101  O         27.7400   46.7660   36.1420 O.2   303  GLY303     -0.2717
    102  N         25.6220   46.2200   36.5870 N.am  304  THR304     -0.1938
    103  CA        25.9750   45.3120   37.6840 C.3   304  THR304      0.2028
    104  C         26.8550   44.1410   37.2530 C.2   304  THR304      0.2642
    105  O         27.8080   43.8030   37.9530 O.2   304  THR304     -0.2714
    106  CB        24.7060   44.8030   38.3910 C.3   304  THR304      0.1808
    107  OG1       23.9950   45.9320   38.9130 O.3   304  THR304     -0.2208
    108  CG2       25.0470   43.8550   39.5250 C.3   304  THR304      0.0379
    109  N         26.5650   43.5490   36.0940 N.am  305  ALA305     -0.1963
    110  CA        27.3170   42.3950   35.6020 C.3   305  ALA305      0.1728
    111  C         28.7700   42.6770   35.2540 C.2   305  ALA305      0.2616
    112  O         29.6400   41.9020   35.6380 O.2   305  ALA305     -0.2715
    113  CB        26.6200   41.7700   34.4060 C.3   305  ALA305      0.0334
    114  N         29.0250   43.7680   34.5310 N.am  306  CYS306     -0.1968
    115  CA        30.3870   44.1230   34.1070 C.3   306  CYS306      0.1712
    116  C         31.0370   45.2140   34.9690 C.2   306  CYS306      0.2296
    117  O         32.2620   45.3600   34.9740 O.2   306  CYS306     -0.2864
    118  CB        30.3800   44.5690   32.6380 C.3   306  CYS306      0.0983
    119  SG        29.8120   43.3000   31.4680 S.3   306  CYS306     -0.0798
@<TRIPOS>BOND
     1    74    73    2
     2    73    72    1
     3    72    71    1
     4    72    75    1
     5    83    84    1
     6    75    76    1
     7    97    96    1
     8    93    92    2
     9    78    76   ar
    10    78    80   ar
    11    76    77   ar
    12    89    87    1
    13    84    87    1
    14    84    85    1
    15    61    60    1
    16    90    85   am
    17    90    91    1
    18    58    60   ar
    19    58    56   ar
    20    80    81   ar
    21    77    79   ar
    22    87    88    1
    23    92    91    1
    24    60    59   ar
    25    85    86    2
    26    94    91    1
    27    94    95    1
    28    96    95    1
    29    53    52    2
    30    81    79   ar
    31    81    82    1
    32    56    55   ar
    33    59    57   ar
    34    52    51    1
    35   119   118    1
    36    55    57   ar
    37    55    54    1
    38    51    54    1
    39    51    50    1
    40   118   115    1
    41    20    22   ar
    42    20    18   ar
    43    22    21   ar
    44     4     3    2
    45    64    63    1
    46    64    65    2
    47     5     6    1
    48     5     2    1
    49   115   114    1
    50   115   116    1
    51    63    62    1
    52    63    66    1
    53     7     6   ar
    54     7     9   ar
    55    18    17   ar
    56    70    69    1
    57     1     2    1
    58   113   110    1
    59    21    19   ar
    60    98    99    1
    61   114   111   am
    62     3     2    1
    63     6     8   ar
    64     9    11   ar
    65    67    66    1
    66    67    68    1
    67    99   100    1
    68   116   117    2
    69    48    47    1
    70   111   110    1
    71   111   112    2
    72    69    68    1
    73    17    19   ar
    74    17    16    1
    75    49    47    1
    76     8    10   ar
    77   110   109    1
    78    11    10   ar
    79   100   101    2
    80   100   102   am
    81    47    46    2
    82   109   104   am
    83    16    13    1
    84    12    13    1
    85   102   103    1
    86    38    37    1
    87    46    45    1
    88   104   103    1
    89   104   105    2
    90    13    14    1
    91    15    14    2
    92   103   106    1
    93    37    36   ar
    94    37    35   ar
    95    45    44    1
    96    36    34   ar
    97    35    33   ar
    98   106   107    1
    99   106   108    1
   100    44    43    1
   101    34    32   ar
   102    33    32   ar
   103    23    24    1
   104    24    25    1
   105    32    31    1
   106    43    40    1
   107    26    25    2
   108    31    28    1
   109    40    41    1
   110    40    39    1
   111    41    42    2
   112    28    29    1
   113    28    27    1
   114    29    30    2
