@<TRIPOS>MOLECULE
tmp/5i5tA01.pdb
 121 117 0 0 0
SMALL
GASTEIGER

@<TRIPOS>ATOM
      1  N        -14.8050   35.7680   28.3800 N.3    26  PHE26      -0.1241
      2  CA       -13.6880   35.5220   27.4570 C.3    26  PHE26       0.1605
      3  C        -12.3540   35.2070   28.1400 C.2    26  PHE26       0.2264
      4  O        -11.8450   36.0030   28.9290 O.2    26  PHE26      -0.2867
      5  CB       -13.4630   36.6940   26.4870 C.3    26  PHE26       0.0534
      6  CG       -12.4390   36.3890   25.4260 C.ar   26  PHE26      -0.0203
      7  CD1      -11.0810   36.4980   25.6980 C.ar   26  PHE26      -0.0042
      8  CD2      -12.8350   35.9560   24.1700 C.ar   26  PHE26      -0.0042
      9  CE1      -10.1420   36.1820   24.7380 C.ar   26  PHE26      -0.0003
     10  CE2      -11.9060   35.6500   23.2020 C.ar   26  PHE26      -0.0003
     11  CZ       -10.5570   35.7570   23.4870 C.ar   26  PHE26      -0.0000
     12  N          2.5540   34.6450   21.2520 N.3    71  PHE71      -0.1241
     13  CA         1.3100   33.8960   21.2510 C.3    71  PHE71       0.1605
     14  C          0.5130   34.1600   19.9900 C.2    71  PHE71       0.2264
     15  O          0.8190   35.0580   19.2010 O.2    71  PHE71      -0.2867
     16  CB         0.4540   34.2510   22.4650 C.3    71  PHE71       0.0534
     17  CG        -0.0550   35.6740   22.4760 C.ar   71  PHE71      -0.0203
     18  CD1        0.7810   36.7240   22.8490 C.ar   71  PHE71      -0.0042
     19  CD2       -1.3810   35.9590   22.1460 C.ar   71  PHE71      -0.0042
     20  CE1        0.3240   38.0280   22.8590 C.ar   71  PHE71      -0.0003
     21  CE2       -1.8530   37.2620   22.1630 C.ar   71  PHE71      -0.0003
     22  CZ        -1.0010   38.3040   22.5360 C.ar   71  PHE71      -0.0000
     23  N        -11.9710   29.7770   21.0770 N.3   137  TYR137     -0.1241
     24  CA       -10.7470   30.5600   20.9510 C.3   137  TYR137      0.1605
     25  C         -9.5370   29.6530   21.1800 C.2   137  TYR137      0.2264
     26  O         -9.4520   28.9490   22.1810 O.2   137  TYR137     -0.2867
     27  CB       -10.7580   31.7040   21.9590 C.3   137  TYR137      0.0534
     28  CG        -9.5870   32.6380   21.8530 C.ar  137  TYR137     -0.0201
     29  CD1       -9.5520   33.6170   20.8740 C.ar  137  TYR137     -0.0009
     30  CD2       -8.5310   32.5700   22.7490 C.ar  137  TYR137     -0.0009
     31  CE1       -8.4840   34.4970   20.7770 C.ar  137  TYR137      0.0417
     32  CE2       -7.4550   33.4510   22.6590 C.ar  137  TYR137      0.0417
     33  CZ        -7.4360   34.4100   21.6630 C.ar  137  TYR137      0.1957
     34  OH        -6.3750   35.2810   21.5610 O.3   137  TYR137     -0.2866
     35  N         -5.4970   29.4620   21.6320 N.3   139  ARG139     -0.1245
     36  CA        -4.3220   30.2150   22.0860 C.3   139  ARG139      0.1563
     37  C         -3.0170   29.4210   22.0350 C.2   139  ARG139      0.2260
     38  O         -2.6420   28.7640   23.0120 O.2   139  ARG139     -0.2867
     39  CB        -4.5700   30.6850   23.5250 C.3   139  ARG139      0.0307
     40  CG        -3.4030   31.3450   24.2590 C.3   139  ARG139      0.0489
     41  CD        -2.7180   32.4570   23.4600 C.3   139  ARG139      0.2205
     42  NE        -3.5980   33.5780   23.1420 N.pl3 139  ARG139     -0.0865
     43  CZ        -3.8320   34.6220   23.9400 C.cat 139  ARG139      0.5346
     44  NH1       -3.2580   34.7180   25.1280 N.pl3 139  ARG139      0.1354
     45  NH2       -4.6420   35.5900   23.5430 N.pl3 139  ARG139      0.1354
     46  N        -16.5410   39.2640   23.5230 N.3   169  TYR169     -0.1241
     47  CA       -15.3730   39.7390   24.2590 C.3   169  TYR169      0.1605
     48  C        -15.7490   40.6680   25.4290 C.2   169  TYR169      0.2264
     49  O        -15.1530   40.5840   26.5070 O.2   169  TYR169     -0.2867
     50  CB       -14.3930   40.4210   23.3120 C.3   169  TYR169      0.0534
     51  CG       -13.1450   40.8850   24.0050 C.ar  169  TYR169     -0.0201
     52  CD1      -12.3250   39.9850   24.6710 C.ar  169  TYR169     -0.0009
     53  CD2      -12.7800   42.2170   23.9940 C.ar  169  TYR169     -0.0009
     54  CE1      -11.1780   40.4020   25.3130 C.ar  169  TYR169      0.0417
     55  CE2      -11.6290   42.6520   24.6280 C.ar  169  TYR169      0.0417
     56  CZ       -10.8300   41.7360   25.2840 C.ar  169  TYR169      0.1957
     57  OH        -9.6840   42.1530   25.9110 O.3   169  TYR169     -0.2866
     58  N          3.2860   39.6310   17.3960 N.3   198  LYS198     -0.1245
     59  CA         2.3850   39.3080   18.5050 C.3   198  LYS198      0.1561
     60  C          3.1960   38.7280   19.6680 C.2   198  LYS198      0.2260
     61  O          3.1330   37.5310   19.9800 O.2   198  LYS198     -0.2867
     62  CB         1.2770   38.3580   18.0330 C.3   198  LYS198      0.0271
     63  CG        -0.0310   38.5480   18.7620 C.3   198  LYS198      0.0035
     64  CD        -1.1700   37.9290   17.9860 C.3   198  LYS198      0.0206
     65  CE        -2.5110   38.2440   18.6070 C.3   198  LYS198      0.1093
     66  NZ        -2.9600   39.6290   18.3220 N.3   198  LYS198     -0.1314
     67  N          2.1180   43.7980   25.3100 N.3   203  TYR203     -0.1241
     68  CA         0.8150   43.8800   25.9980 C.3   203  TYR203      0.1605
     69  C          0.8720   44.3320   27.4570 C.2   203  TYR203      0.2264
     70  O          0.0670   45.1730   27.8660 O.2   203  TYR203     -0.2867
     71  CB         0.0440   42.5720   25.8020 C.3   203  TYR203      0.0534
     72  CG        -0.1100   42.3360   24.3380 C.ar  203  TYR203     -0.0201
     73  CD1        0.9100   41.7240   23.6110 C.ar  203  TYR203     -0.0009
     74  CD2       -1.2150   42.8060   23.6560 C.ar  203  TYR203     -0.0009
     75  CE1        0.8200   41.5770   22.2530 C.ar  203  TYR203      0.0417
     76  CE2       -1.3230   42.6440   22.2960 C.ar  203  TYR203      0.0417
     77  CZ        -0.2930   42.0320   21.6060 C.ar  203  TYR203      0.1957
     78  OH        -0.3620   41.8730   20.2620 O.3   203  TYR203     -0.2866
     79  N         -6.5590   46.1890   21.4140 N.3   236  THR236     -0.1203
     80  CA        -5.8270   45.1360   20.7650 C.3   236  THR236      0.1994
     81  C         -6.3980   44.8720   19.3620 C.2   236  THR236      0.2617
     82  O         -6.2540   43.7760   18.8530 O.2   236  THR236     -0.2717
     83  CB        -5.9230   43.8220   21.5660 C.3   236  THR236      0.1784
     84  OG1       -7.3050   43.4840   21.7390 O.3   236  THR236     -0.2211
     85  CG2       -5.2170   43.9540   22.9270 C.3   236  THR236      0.0376
     86  N         -7.0480   45.8690   18.7610 N.am  237  MET237     -0.1979
     87  CA        -7.6730   45.7260   17.4510 C.3   237  MET237      0.1605
     88  C         -7.1200   46.7100   16.4460 C.2   237  MET237      0.2287
     89  O         -6.7010   47.8120   16.8060 O.2   237  MET237     -0.2864
     90  CB        -9.1730   45.9900   17.5300 C.3   237  MET237      0.0413
     91  CG        -9.9490   44.9620   18.3300 C.3   237  MET237      0.0598
     92  SD       -11.6600   45.4760   18.5130 S.3   237  MET237     -0.1393
     93  CE       -11.5430   46.8070   19.6880 C.3   237  MET237      0.0692
     94  N        -11.1310   45.8490   14.4310 N.3   307  SER307     -0.1202
     95  CA       -11.2340   44.4600   14.0310 C.3   307  SER307      0.2020
     96  C        -10.2330   43.5920   14.7780 C.2   307  SER307      0.2619
     97  O         -9.1130   44.0100   15.0620 O.2   307  SER307     -0.2717
     98  CB       -10.9600   44.3190   12.5410 C.3   307  SER307      0.2103
     99  OG        -9.5640   44.3830   12.2780 O.3   307  SER307     -0.2182
    100  N        -10.6140   42.3570   15.0540 N.am  308  GLY308     -0.1942
    101  CA        -9.7200   41.4370   15.7360 C.3   308  GLY308      0.2014
    102  C        -10.4710   40.1920   16.0610 C.2   308  GLY308      0.2640
    103  O        -11.6860   40.2300   16.1920 O.2   308  GLY308     -0.2714
    104  N         -9.7630   39.0850   16.2010 N.am  309  THR309     -0.1936
    105  CA       -10.4360   37.8050   16.3960 C.3   309  THR309      0.2028
    106  C        -11.4940   37.8290   17.5090 C.2   309  THR309      0.2642
    107  O        -12.5960   37.2980   17.3180 O.2   309  THR309     -0.2714
    108  CB        -9.4190   36.6910   16.6350 C.3   309  THR309      0.1808
    109  OG1       -8.6000   36.5600   15.4690 O.3   309  THR309     -0.2208
    110  CG2      -10.1070   35.3590   16.8860 C.3   309  THR309      0.0379
    111  N        -11.1900   38.4830   18.6350 N.am  310  ALA310     -0.1963
    112  CA       -12.0860   38.4810   19.7970 C.3   310  ALA310      0.1728
    113  C        -13.3310   39.3500   19.6100 C.2   310  ALA310      0.2616
    114  O        -14.4080   39.0510   20.1440 O.2   310  ALA310     -0.2715
    115  CB       -11.3280   38.8900   21.0610 C.3   310  ALA310      0.0334
    116  N        -13.1820   40.4490   18.8880 N.am  311  CYS311     -0.1968
    117  CA       -14.3270   41.2830   18.5320 C.3   311  CYS311      0.1712
    118  C        -14.1370   41.5930   17.0630 C.2   311  CYS311      0.2296
    119  O        -13.5230   42.6030   16.6990 O.2   311  CYS311     -0.2864
    120  CB       -14.3650   42.5570   19.3710 C.3   311  CYS311      0.0983
    121  SG       -15.9530   43.3960   19.2490 S.3   311  CYS311     -0.0798
@<TRIPOS>BOND
     1    99    98    1
     2    98    95    1
     3    95    94    1
     4    95    96    1
     5    96   100   am
     6    96    97    2
     7   100   101    1
     8   109   108    1
     9   101   102    1
    10   102   103    2
    11   102   104   am
    12   104   105    1
    13   105   108    1
    14   105   106    1
    15    88    89    2
    16    88    87    1
    17   108   110    1
    18   119   118    2
    19   118   117    1
    20   107   106    2
    21    58    59    1
    22    87    90    1
    23    87    86    1
    24   106   111   am
    25    90    91    1
    26    64    65    1
    27    64    63    1
    28    62    59    1
    29    62    63    1
    30    66    65    1
    31    91    92    1
    32    59    60    1
    33    92    93    1
    34   117   116    1
    35   117   120    1
    36   111   112    1
    37    86    81   am
    38    82    81    2
    39   116   113   am
    40    15    14    2
    41   121   120    1
    42    81    80    1
    43   113   112    1
    44   113   114    2
    45    60    61    2
    46   112   115    1
    47    14    13    1
    48    78    77    1
    49    80    79    1
    50    80    83    1
    51    31    29   ar
    52    31    33   ar
    53    29    28   ar
    54    24    23    1
    55    24    25    1
    56    24    27    1
    57    25    26    2
    58    13    12    1
    59    13    16    1
    60    34    33    1
    61    83    84    1
    62    83    85    1
    63    77    75   ar
    64    77    76   ar
    65    35    36    1
    66    33    32   ar
    67    28    27    1
    68    28    30   ar
    69    37    36    1
    70    37    38    2
    71    36    39    1
    72    19    21   ar
    73    19    17   ar
    74    21    22   ar
    75    75    73   ar
    76    76    74   ar
    77    16    17    1
    78    17    18   ar
    79    22    20   ar
    80    32    30   ar
    81    18    20   ar
    82    42    41    1
    83    42    43    2
    84    10    11   ar
    85    10     8   ar
    86    50    51    1
    87    50    47    1
    88    41    40    1
    89    11     9   ar
    90    46    47    1
    91    39    40    1
    92    45    43    1
    93    73    72   ar
    94    74    72   ar
    95    43    44    1
    96    53    51   ar
    97    53    55   ar
    98    51    52   ar
    99     8     6   ar
   100    47    48    1
   101    72    71    1
   102    55    56   ar
   103    52    54   ar
   104     9     7   ar
   105    56    54   ar
   106    56    57    1
   107    67    68    1
   108     6     7   ar
   109     6     5    1
   110    48    49    2
   111    71    68    1
   112    68    69    1
   113     5     2    1
   114    69    70    2
   115     2     3    1
   116     2     1    1
   117     3     4    2
