@<TRIPOS>MOLECULE
tmp/5i5uA01.pdb
 115 111 0 0 0
SMALL
GASTEIGER

@<TRIPOS>ATOM
      1  N        -14.7410   35.6710   28.3680 N.3    28  PHE28      -0.1241
      2  CA       -13.6680   35.4090   27.4230 C.3    28  PHE28       0.1605
      3  C        -12.3660   35.0360   28.1210 C.2    28  PHE28       0.2264
      4  O        -11.8790   35.7830   28.9550 O.2    28  PHE28      -0.2867
      5  CB       -13.4200   36.6040   26.4920 C.3    28  PHE28       0.0534
      6  CG       -12.4040   36.3270   25.4250 C.ar   28  PHE28      -0.0203
      7  CD1      -11.0420   36.4510   25.6900 C.ar   28  PHE28      -0.0042
      8  CD2      -12.8030   35.9350   24.1590 C.ar   28  PHE28      -0.0042
      9  CE1      -10.1040   36.1870   24.7220 C.ar   28  PHE28      -0.0003
     10  CE2      -11.8710   35.6670   23.1860 C.ar   28  PHE28      -0.0003
     11  CZ       -10.5160   35.7900   23.4680 C.ar   28  PHE28      -0.0000
     12  N          2.5750   34.6120   21.0640 N.3    73  PHE73      -0.1241
     13  CA         1.3290   33.8750   21.0830 C.3    73  PHE73       0.1605
     14  C          0.5250   34.1280   19.8400 C.2    73  PHE73       0.2264
     15  O          0.8550   34.9800   19.0290 O.2    73  PHE73      -0.2867
     16  CB         0.5190   34.2170   22.3340 C.3    73  PHE73       0.0534
     17  CG         0.0040   35.6340   22.3730 C.ar   73  PHE73      -0.0203
     18  CD1        0.8510   36.6840   22.7190 C.ar   73  PHE73      -0.0042
     19  CD2       -1.3280   35.9180   22.0860 C.ar   73  PHE73      -0.0042
     20  CE1        0.4040   37.9860   22.7430 C.ar   73  PHE73      -0.0003
     21  CE2       -1.7910   37.2240   22.1350 C.ar   73  PHE73      -0.0003
     22  CZ        -0.9210   38.2590   22.4690 C.ar   73  PHE73      -0.0000
     23  N        -12.0420   29.7410   21.0390 N.3   139  TYR139     -0.1241
     24  CA       -10.8140   30.5180   20.9370 C.3   139  TYR139      0.1605
     25  C         -9.5950   29.6380   21.2110 C.2   139  TYR139      0.2264
     26  O         -9.4790   29.0250   22.2710 O.2   139  TYR139     -0.2867
     27  CB       -10.8620   31.6820   21.9150 C.3   139  TYR139      0.0534
     28  CG        -9.7020   32.6300   21.8060 C.ar  139  TYR139     -0.0201
     29  CD1       -9.6550   33.5840   20.8130 C.ar  139  TYR139     -0.0009
     30  CD2       -8.6580   32.5900   22.7230 C.ar  139  TYR139     -0.0009
     31  CE1       -8.5790   34.4530   20.7200 C.ar  139  TYR139      0.0417
     32  CE2       -7.5970   33.4600   22.6350 C.ar  139  TYR139      0.0417
     33  CZ        -7.5620   34.3850   21.6300 C.ar  139  TYR139      0.1957
     34  OH        -6.5010   35.2440   21.5550 O.3   139  TYR139     -0.2866
     35  N         -5.4810   29.3860   21.4820 N.3   141  ARG141     -0.1245
     36  CA        -4.3010   30.1260   21.8890 C.3   141  ARG141      0.1563
     37  C         -2.9870   29.3180   21.8400 C.2   141  ARG141      0.2260
     38  O         -2.5910   28.6860   22.8170 O.2   141  ARG141     -0.2867
     39  CB        -4.5630   30.6490   23.3000 C.3   141  ARG141      0.0307
     40  CG        -3.4010   31.2840   24.0320 C.3   141  ARG141      0.0489
     41  CD        -2.7380   32.4080   23.2500 C.3   141  ARG141      0.2205
     42  NE        -3.6210   33.5470   22.9700 N.pl3 141  ARG141     -0.0865
     43  CZ        -3.8640   34.5580   23.7970 C.cat 141  ARG141      0.5346
     44  NH1       -3.3240   34.5930   25.0010 N.pl3 141  ARG141      0.1354
     45  NH2       -4.6710   35.5400   23.4220 N.pl3 141  ARG141      0.1354
     46  N        -16.6390   39.1100   23.4440 N.3   171  TYR171     -0.1241
     47  CA       -15.4360   39.6460   24.0820 C.3   171  TYR171      0.1605
     48  C        -15.8020   40.8280   24.9830 C.2   171  TYR171      0.2264
     49  O        -15.4600   40.8330   26.1690 O.2   171  TYR171     -0.2867
     50  CB       -14.3820   40.0470   23.0470 C.3   171  TYR171      0.0534
     51  CG       -13.1120   40.5740   23.6800 C.ar  171  TYR171     -0.0201
     52  CD1      -12.2900   39.7360   24.4320 C.ar  171  TYR171     -0.0009
     53  CD2      -12.7340   41.9030   23.5320 C.ar  171  TYR171     -0.0009
     54  CE1      -11.1310   40.2060   25.0270 C.ar  171  TYR171      0.0417
     55  CE2      -11.5650   42.3850   24.1120 C.ar  171  TYR171      0.0417
     56  CZ       -10.7680   41.5320   24.8620 C.ar  171  TYR171      0.1957
     57  OH        -9.6120   42.0110   25.4420 O.3   171  TYR171     -0.2866
     58  N          3.1620   39.5110   17.2770 N.3   200  LYS200     -0.1245
     59  CA         2.2770   39.2280   18.4050 C.3   200  LYS200      0.1561
     60  C          3.1170   38.6250   19.5340 C.2   200  LYS200      0.2260
     61  O          3.0800   37.4130   19.7960 O.2   200  LYS200     -0.2867
     62  CB         1.1440   38.3060   17.9690 C.3   200  LYS200      0.0271
     63  CG        -0.1560   38.5210   18.6970 C.3   200  LYS200      0.0035
     64  CD        -1.2740   37.8230   17.9570 C.3   200  LYS200      0.0206
     65  CE        -2.6370   38.1110   18.5630 C.3   200  LYS200      0.1093
     66  NZ        -3.0760   39.5320   18.4720 N.3   200  LYS200     -0.1314
     67  N          2.1110   43.7120   25.1190 N.3   205  TYR205     -0.1241
     68  CA         0.8050   43.8180   25.7910 C.3   205  TYR205      0.1605
     69  C          0.8390   44.2420   27.2660 C.2   205  TYR205      0.2264
     70  O         -0.0110   45.0180   27.7030 O.2   205  TYR205     -0.2867
     71  CB         0.0010   42.5320   25.5510 C.3   205  TYR205      0.0534
     72  CG        -0.1430   42.3310   24.0730 C.ar  205  TYR205     -0.0201
     73  CD1       -1.1410   42.9650   23.3680 C.ar  205  TYR205     -0.0009
     74  CD2        0.8040   41.6000   23.3590 C.ar  205  TYR205     -0.0009
     75  CE1       -1.2290   42.8390   22.0010 C.ar  205  TYR205      0.0417
     76  CE2        0.7220   41.4660   21.9950 C.ar  205  TYR205      0.0417
     77  CZ        -0.2910   42.0850   21.3270 C.ar  205  TYR205      0.1957
     78  OH        -0.3540   41.9620   19.9620 O.3   205  TYR205     -0.2866
     79  N         -6.6840   45.9920   21.2380 N.3   238  THR238     -0.1203
     80  CA        -5.9980   44.9130   20.5250 C.3   238  THR238      0.1994
     81  C         -6.6460   44.6690   19.1520 C.2   238  THR238      0.2617
     82  O         -6.6450   43.5610   18.6840 O.2   238  THR238     -0.2717
     83  CB        -6.0840   43.5950   21.3000 C.3   238  THR238      0.1784
     84  OG1       -7.4680   43.3250   21.5950 O.3   238  THR238     -0.2211
     85  CG2       -5.2510   43.6700   22.5780 C.3   238  THR238      0.0376
     86  N         -7.2170   45.7010   18.5350 N.am  239  MET239     -0.1979
     87  CA        -7.8550   45.6010   17.2280 C.3   239  MET239      0.1605
     88  C         -7.2290   46.5530   16.2320 C.2   239  MET239      0.2287
     89  O         -6.7200   47.5980   16.6160 O.2   239  MET239     -0.2864
     90  CB        -9.3220   45.9920   17.3130 C.3   239  MET239      0.0413
     91  CG       -10.1310   45.0530   18.1700 C.3   239  MET239      0.0598
     92  SD       -11.7920   45.6590   18.4530 S.3   239  MET239     -0.1393
     93  CE       -11.5760   47.1070   19.4770 C.3   239  MET239      0.0692
     94  N        -10.6310   42.2710   14.7900 N.3   310  GLY310     -0.1210
     95  CA        -9.7220   41.3200   15.4000 C.3   310  GLY310      0.1956
     96  C        -10.4770   40.0590   15.7150 C.2   310  GLY310      0.2613
     97  O        -11.6970   40.0480   15.7250 O.2   310  GLY310     -0.2717
     98  N         -9.7680   38.9900   16.0180 N.am  311  THR311     -0.1938
     99  CA       -10.4410   37.7180   16.2250 C.3   311  THR311      0.2028
    100  C        -11.4930   37.7270   17.3350 C.2   311  THR311      0.2642
    101  O        -12.6070   37.2320   17.1260 O.2   311  THR311     -0.2714
    102  CB        -9.4230   36.6180   16.4780 C.3   311  THR311      0.1808
    103  OG1       -8.5860   36.5110   15.3220 O.3   311  THR311     -0.2208
    104  CG2      -10.1020   35.2870   16.7580 C.3   311  THR311      0.0379
    105  N        -11.1620   38.3040   18.4880 N.am  312  ALA312     -0.1963
    106  CA       -12.0740   38.3000   19.6380 C.3   312  ALA312      0.1728
    107  C        -13.3690   39.0730   19.3800 C.2   312  ALA312      0.2616
    108  O        -14.4690   38.5530   19.6180 O.2   312  ALA312     -0.2715
    109  CB       -11.3780   38.8200   20.8920 C.3   312  ALA312      0.0334
    110  N        -13.2630   40.3070   18.8920 N.am  313  CYS313     -0.1968
    111  CA       -14.4730   41.1010   18.6380 C.3   313  CYS313      0.1712
    112  C        -14.9770   40.9830   17.2060 C.2   313  CYS313      0.2296
    113  O        -16.1720   41.1210   16.9650 O.2   313  CYS313     -0.2864
    114  CB       -14.2900   42.5740   18.9910 C.3   313  CYS313      0.0983
    115  SG       -15.9020   43.3710   19.1910 S.3   313  CYS313     -0.0798
@<TRIPOS>BOND
     1    94    95    1
     2   103   102    1
     3    95    96    1
     4    96    97    2
     5    96    98   am
     6    98    99    1
     7    99   102    1
     8    99   100    1
     9    88    89    2
    10    88    87    1
    11   102   104    1
    12   113   112    2
    13   101   100    2
    14   112   111    1
    15    87    90    1
    16    87    86    1
    17    58    59    1
    18    90    91    1
    19   100   105   am
    20    64    65    1
    21    64    63    1
    22    62    59    1
    23    62    63    1
    24    91    92    1
    25    59    60    1
    26    92    93    1
    27    66    65    1
    28   105   106    1
    29    86    81   am
    30   111   110    1
    31   111   114    1
    32    82    81    2
    33   110   107   am
    34   114   115    1
    35    15    14    2
    36    81    80    1
    37   107   108    2
    38   107   106    1
    39    60    61    2
    40   106   109    1
    41    14    13    1
    42    78    77    1
    43    80    79    1
    44    80    83    1
    45    31    29   ar
    46    31    33   ar
    47    29    28   ar
    48    24    23    1
    49    24    25    1
    50    24    27    1
    51    12    13    1
    52    13    16    1
    53    25    26    2
    54    83    84    1
    55    83    85    1
    56    77    76   ar
    57    77    75   ar
    58    35    36    1
    59    34    33    1
    60    33    32   ar
    61    28    27    1
    62    28    30   ar
    63    37    36    1
    64    37    38    2
    65    36    39    1
    66    76    74   ar
    67    75    73   ar
    68    19    21   ar
    69    19    17   ar
    70    21    22   ar
    71    16    17    1
    72    17    18   ar
    73    22    20   ar
    74    32    30   ar
    75    18    20   ar
    76    42    41    1
    77    42    43    2
    78    50    51    1
    79    50    47    1
    80    10    11   ar
    81    10     8   ar
    82    41    40    1
    83    39    40    1
    84    74    72   ar
    85    73    72   ar
    86    45    43    1
    87    46    47    1
    88    11     9   ar
    89    53    51   ar
    90    53    55   ar
    91    51    52   ar
    92    43    44    1
    93    72    71    1
    94    47    48    1
    95    55    56   ar
    96     8     6   ar
    97    52    54   ar
    98     9     7   ar
    99    56    54   ar
   100    56    57    1
   101    48    49    2
   102    67    68    1
   103     6     7   ar
   104     6     5    1
   105    71    68    1
   106    68    69    1
   107     5     2    1
   108    69    70    2
   109     2     3    1
   110     2     1    1
   111     3     4    2
