@<TRIPOS>MOLECULE
tmp/5i5vA01.pdb
 83 79 0 0 0
SMALL
GASTEIGER

@<TRIPOS>ATOM
      1  N        -14.8520   35.1880   28.4100 N.3    25  PHE25      -0.1241
      2  CA       -13.6870   34.8690   27.5950 C.3    25  PHE25       0.1605
      3  C        -12.4300   34.4990   28.3830 C.2    25  PHE25       0.2264
      4  O        -12.0940   35.1350   29.3800 O.2    25  PHE25      -0.2867
      5  CB       -13.3140   35.9870   26.6240 C.3    25  PHE25       0.0534
      6  CG       -12.0220   35.7090   25.9110 C.ar   25  PHE25      -0.0203
      7  CD1      -11.9720   34.7430   24.9230 C.ar   25  PHE25      -0.0042
      8  CD2      -10.8420   36.3290   26.2990 C.ar   25  PHE25      -0.0042
      9  CE1      -10.7820   34.4330   24.2930 C.ar   25  PHE25      -0.0003
     10  CE2       -9.6460   36.0300   25.6700 C.ar   25  PHE25      -0.0003
     11  CZ        -9.6140   35.0830   24.6640 C.ar   25  PHE25      -0.0000
     12  N        -10.1210   30.6340   15.7510 N.3    74  LYS74      -0.1245
     13  CA       -11.3750   30.0420   16.1660 C.3    74  LYS74       0.1561
     14  C        -11.8080   28.8550   15.3120 C.2    74  LYS74       0.2260
     15  O        -11.5430   28.8030   14.1010 O.2    74  LYS74      -0.2867
     16  CB       -12.4780   31.1020   16.1890 C.3    74  LYS74       0.0271
     17  CG       -12.4700   31.9530   17.4430 C.3    74  LYS74       0.0035
     18  CD       -13.4980   33.0640   17.3840 C.3    74  LYS74       0.0206
     19  CE       -13.6980   33.7040   18.7410 C.3    74  LYS74       0.1093
     20  NZ       -14.7260   34.7810   18.7440 N.3    74  LYS74      -0.1314
     21  N        -12.0570   28.8980   21.0290 N.3   136  TYR136     -0.1241
     22  CA       -10.8650   29.7310   20.8330 C.3   136  TYR136      0.1605
     23  C         -9.6280   28.8850   21.0560 C.2   136  TYR136      0.2264
     24  O         -9.5220   28.1900   22.0760 O.2   136  TYR136     -0.2867
     25  CB       -10.8950   30.9120   21.7890 C.3   136  TYR136      0.0534
     26  CG        -9.7650   31.8950   21.5850 C.ar  136  TYR136     -0.0201
     27  CD1       -9.7990   32.8300   20.5440 C.ar  136  TYR136     -0.0009
     28  CD2       -8.6710   31.9010   22.4430 C.ar  136  TYR136     -0.0009
     29  CE1       -8.7530   33.7260   20.3600 C.ar  136  TYR136      0.0417
     30  CE2       -7.6340   32.8050   22.2810 C.ar  136  TYR136      0.0417
     31  CZ        -7.6730   33.7150   21.2440 C.ar  136  TYR136      0.1957
     32  OH        -6.6270   34.6170   21.1120 O.3   136  TYR136     -0.2866
     33  N         -5.5260   28.7000   21.3630 N.3   138  ARG138     -0.1245
     34  CA        -4.3670   29.4920   21.8090 C.3   138  ARG138      0.1563
     35  C         -3.0740   28.7010   21.7940 C.2   138  ARG138      0.2260
     36  O         -2.7140   28.0970   22.7960 O.2   138  ARG138     -0.2867
     37  CB        -4.6400   30.0150   23.2270 C.3   138  ARG138      0.0307
     38  CG        -3.4880   30.7130   23.9520 C.3   138  ARG138      0.0489
     39  CD        -2.8670   31.8750   23.1810 C.3   138  ARG138      0.2205
     40  NE        -3.7910   32.9760   22.9070 N.pl3 138  ARG138     -0.0865
     41  CZ        -3.9930   34.0470   23.6800 C.cat 138  ARG138      0.5346
     42  NH1       -3.3590   34.2130   24.8180 N.pl3 138  ARG138      0.1354
     43  NH2       -4.8490   34.9680   23.3080 N.pl3 138  ARG138      0.1354
     44  N        -15.9600   29.7810   23.8380 N.3   165  VAL165     -0.1231
     45  CA       -16.3270   31.1650   24.1040 C.3   165  VAL165      0.1692
     46  C        -17.7570   31.4470   23.6680 C.2   165  VAL165      0.2593
     47  O        -18.2470   30.8780   22.6900 O.2   165  VAL165     -0.2718
     48  CB       -15.3340   32.1710   23.4680 C.3   165  VAL165      0.0266
     49  CG1      -13.9220   31.9290   24.0000 C.3   165  VAL165      0.0020
     50  CG2      -15.3370   32.0890   21.9530 C.3   165  VAL165      0.0020
     51  N        -18.4250   32.3190   24.4190 N.am  166  GLY166     -0.1942
     52  CA       -19.7840   32.7240   24.0850 C.3   166  GLY166      0.2014
     53  C        -19.7490   33.7320   22.9560 C.2   166  GLY166      0.2639
     54  O        -18.6770   34.0600   22.4340 O.2   166  GLY166     -0.2714
     55  N        -20.9270   34.2220   22.5810 N.am  167  ALA167     -0.1963
     56  CA       -21.0450   35.2500   21.5520 C.3   167  ALA167      0.1728
     57  C        -20.4150   36.5620   22.0370 C.2   167  ALA167      0.2616
     58  O        -20.5790   36.9340   23.2040 O.2   167  ALA167     -0.2715
     59  CB       -22.5070   35.4630   21.1870 C.3   167  ALA167      0.0334
     60  N        -19.6800   37.2430   21.1540 N.am  168  TYR168     -0.1974
     61  CA       -19.0820   38.5470   21.4910 C.3   168  TYR168      0.1639
     62  C        -20.1820   39.5830   21.7100 C.2   168  TYR168      0.2290
     63  O        -20.0420   40.4720   22.5530 O.2   168  TYR168     -0.2864
     64  CB       -18.1350   39.0480   20.3900 C.3   168  TYR168      0.0560
     65  CG       -17.3960   40.3200   20.7730 C.ar  168  TYR168     -0.0198
     66  CD1      -17.9340   41.5760   20.4970 C.ar  168  TYR168     -0.0009
     67  CD2      -16.1660   40.2640   21.4310 C.ar  168  TYR168     -0.0009
     68  CE1      -17.2620   42.7380   20.8510 C.ar  168  TYR168      0.0417
     69  CE2      -15.4890   41.4180   21.7910 C.ar  168  TYR168      0.0417
     70  CZ       -16.0400   42.6530   21.4980 C.ar  168  TYR168      0.1957
     71  OH       -15.3730   43.8020   21.8530 O.3   168  TYR168     -0.2866
     72  N         -6.8280   45.4390   20.7170 N.3   235  THR235     -0.1218
     73  CA        -6.0720   44.4040   20.0230 C.3   235  THR235      0.1862
     74  C         -6.7290   44.0610   18.6630 C.2   235  THR235      0.2287
     75  O         -6.6580   42.9300   18.2090 O.2   235  THR235     -0.2866
     76  CB        -5.9380   43.1180   20.8780 C.3   235  THR235      0.1770
     77  OG1       -7.2430   42.5990   21.2070 O.3   235  THR235     -0.2211
     78  CG2       -5.1480   43.4190   22.1680 C.3   235  THR235      0.0375
     79  N        -11.6060   38.0360   18.1190 N.3   309  ALA309     -0.1245
     80  CA       -12.5580   38.1880   19.2380 C.3   309  ALA309      0.1562
     81  C        -14.0040   38.4840   18.8500 C.2   309  ALA309      0.2260
     82  O        -14.9300   37.8020   19.2980 O.2   309  ALA309     -0.2867
     83  CB       -12.0790   39.2970   20.1680 C.3   309  ALA309      0.0290
@<TRIPOS>BOND
     1    15    14    2
     2    14    13    1
     3    12    13    1
     4    13    16    1
     5    16    17    1
     6    18    17    1
     7    18    19    1
     8    79    80    1
     9    75    74    2
    10    74    73    1
    11    19    20    1
    12    81    80    1
    13    81    82    2
    14    80    83    1
    15    73    72    1
    16    73    76    1
    17    29    27   ar
    18    29    31   ar
    19    64    65    1
    20    64    61    1
    21    66    65   ar
    22    66    68   ar
    23    27    26   ar
    24    65    67   ar
    25    22    21    1
    26    22    23    1
    27    22    25    1
    28    68    70   ar
    29    76    77    1
    30    76    78    1
    31    23    24    2
    32    32    31    1
    33    60    61    1
    34    60    57   am
    35    59    56    1
    36    31    30   ar
    37    33    34    1
    38    67    69   ar
    39    61    62    1
    40    70    69   ar
    41    70    71    1
    42    56    57    1
    43    56    55    1
    44    26    25    1
    45    26    28   ar
    46    62    63    2
    47    35    34    1
    48    35    36    2
    49    34    37    1
    50    50    48    1
    51    57    58    2
    52    30    28   ar
    53    54    53    2
    54    55    53   am
    55    47    46    2
    56    40    39    1
    57    40    41    2
    58    53    52    1
    59    39    38    1
    60    37    38    1
    61    43    41    1
    62    48    49    1
    63    48    45    1
    64    46    45    1
    65    46    51   am
    66    41    42    1
    67    44    45    1
    68    52    51    1
    69     9    11   ar
    70     9     7   ar
    71    11    10   ar
    72     7     6   ar
    73    10     8   ar
    74     6     8   ar
    75     6     5    1
    76     5     2    1
    77     2     3    1
    78     2     1    1
    79     3     4    2
