@<TRIPOS>MOLECULE
tmp/5i5wB00.pdb
 113 107 0 0 0
SMALL
GASTEIGER

@<TRIPOS>ATOM
      1  N         28.3910   32.8070   33.0910 N.3    26  PHE26      -0.1241
      2  CA        27.3450   33.5150   33.8320 C.3    26  PHE26       0.1605
      3  C         25.9440   32.9660   33.5790 C.2    26  PHE26       0.2264
      4  O         25.5550   32.7340   32.4220 O.2    26  PHE26      -0.2867
      5  CB        27.3430   35.0150   33.4970 C.3    26  PHE26       0.0534
      6  CG        26.0890   35.7290   33.9430 C.ar   26  PHE26      -0.0203
      7  CD1       25.8290   35.9200   35.2930 C.ar   26  PHE26      -0.0042
      8  CD2       25.1640   36.1810   33.0170 C.ar   26  PHE26      -0.0042
      9  CE1       24.6860   36.5560   35.7120 C.ar   26  PHE26      -0.0003
     10  CE2       24.0120   36.8170   33.4310 C.ar   26  PHE26      -0.0003
     11  CZ        23.7750   37.0080   34.7810 C.ar   26  PHE26      -0.0000
     12  N         12.2230   42.0270   36.4170 N.3    71  PHE71      -0.1241
     13  CA        13.3530   41.5070   37.1640 C.3    71  PHE71       0.1605
     14  C         14.2990   42.5920   37.6250 C.2    71  PHE71       0.2264
     15  O         14.1560   43.7570   37.2930 O.2    71  PHE71      -0.2867
     16  CB        14.1290   40.4780   36.3370 C.3    71  PHE71       0.0534
     17  CG        14.8220   41.0500   35.1420 C.ar   71  PHE71      -0.0203
     18  CD1       14.1170   41.3370   33.9870 C.ar   71  PHE71      -0.0042
     19  CD2       16.1840   41.2930   35.1610 C.ar   71  PHE71      -0.0042
     20  CE1       14.7500   41.8690   32.8750 C.ar   71  PHE71      -0.0003
     21  CE2       16.8260   41.8230   34.0530 C.ar   71  PHE71      -0.0003
     22  CZ        16.1080   42.1110   32.9060 C.ar   71  PHE71      -0.0000
     23  N         24.6310   42.7180   42.7610 N.3    75  LYS75      -0.1245
     24  CA        25.6720   41.8560   43.2840 C.3    75  LYS75       0.1561
     25  C         25.9560   42.0340   44.7680 C.2    75  LYS75       0.2260
     26  O         25.8040   43.1330   45.3450 O.2    75  LYS75      -0.2867
     27  CB        26.9720   42.0550   42.5170 C.3    75  LYS75       0.0271
     28  CG        27.0020   41.3700   41.1630 C.3    75  LYS75       0.0035
     29  CD        28.2260   41.7960   40.3990 C.3    75  LYS75       0.0206
     30  CE        28.2930   41.1610   39.0300 C.3    75  LYS75       0.1093
     31  NZ        29.4550   41.7500   38.3200 N.3    75  LYS75      -0.1314
     32  N         25.5660   37.0590   42.1770 N.3   137  TYR137     -0.1241
     33  CA        24.5460   37.7980   41.4630 C.3   137  TYR137      0.1605
     34  C         23.2320   37.3760   42.0700 C.2   137  TYR137      0.2264
     35  O         23.0270   36.1970   42.3280 O.2   137  TYR137     -0.2867
     36  CB        24.5890   37.4550   39.9820 C.3   137  TYR137      0.0534
     37  CG        23.6870   38.2770   39.1180 C.ar  137  TYR137     -0.0201
     38  CD1       23.9900   39.6020   38.8210 C.ar  137  TYR137     -0.0009
     39  CD2       22.5440   37.7290   38.5680 C.ar  137  TYR137     -0.0009
     40  CE1       23.1650   40.3570   38.0110 C.ar  137  TYR137      0.0417
     41  CE2       21.7210   38.4720   37.7520 C.ar  137  TYR137      0.0417
     42  CZ        22.0320   39.7840   37.4720 C.ar  137  TYR137      0.1957
     43  OH        21.2090   40.5010   36.6440 O.3   137  TYR137     -0.2866
     44  N         19.0740   37.6920   41.6100 N.3   139  ARG139     -0.1245
     45  CA        18.0340   37.9140   40.5870 C.3   139  ARG139      0.1563
     46  C         16.6320   37.7870   41.1360 C.2   139  ARG139      0.2260
     47  O         16.0820   36.6800   41.1700 O.2   139  ARG139     -0.2867
     48  CB        18.2160   36.9410   39.4190 C.3   139  ARG139      0.0307
     49  CG        17.0630   36.8850   38.4190 C.3   139  ARG139      0.0489
     50  CD        16.7110   38.2540   37.8330 C.3   139  ARG139      0.2205
     51  NE        17.7860   38.7930   36.9990 N.pl3 139  ARG139     -0.0865
     52  CZ        18.0240   38.4540   35.7300 C.cat 139  ARG139      0.5346
     53  NH1       17.2870   37.5520   35.0840 N.pl3 139  ARG139      0.1354
     54  NH2       19.0340   39.0220   35.0900 N.pl3 139  ARG139      0.1354
     55  N         29.1800   34.2520   40.5180 N.3   166  VAL166     -0.1245
     56  CA        29.7480   34.7200   39.2430 C.3   166  VAL166      0.1561
     57  C         31.2760   34.7620   39.3520 C.2   166  VAL166      0.2260
     58  O         31.8220   35.0930   40.4040 O.2   166  VAL166     -0.2867
     59  CB        29.1650   36.1040   38.7590 C.3   166  VAL166      0.0252
     60  CG1       27.7890   36.3680   39.3480 C.3   166  VAL166      0.0019
     61  CG2       30.0720   37.2770   39.0820 C.3   166  VAL166      0.0019
     62  N         34.6260   38.8830   35.9050 N.3   169  TYR169     -0.1241
     63  CA        34.1190   39.2840   34.5850 C.3   169  TYR169      0.1605
     64  C         35.2360   39.3260   33.5330 C.2   169  TYR169      0.2264
     65  O         35.1500   38.6340   32.5160 O.2   169  TYR169     -0.2867
     66  CB        33.3800   40.6280   34.6370 C.3   169  TYR169      0.0534
     67  CG        32.6860   40.9700   33.3300 C.ar  169  TYR169     -0.0201
     68  CD1       31.3750   40.5610   33.0820 C.ar  169  TYR169     -0.0009
     69  CD2       33.3480   41.6880   32.3360 C.ar  169  TYR169     -0.0009
     70  CE1       30.7440   40.8650   31.8830 C.ar  169  TYR169      0.0417
     71  CE2       32.7270   41.9980   31.1370 C.ar  169  TYR169      0.0417
     72  CZ        31.4270   41.5870   30.9120 C.ar  169  TYR169      0.1957
     73  OH        30.8160   41.9030   29.7160 O.3   169  TYR169     -0.2866
     74  N         12.8830   47.7610   34.1400 N.3   195  LYS195     -0.1245
     75  CA        13.5830   46.5050   33.8830 C.3   195  LYS195      0.1561
     76  C         12.5640   45.4000   33.6570 C.2   195  LYS195      0.2260
     77  O         12.4330   44.4640   34.4280 O.2   195  LYS195     -0.2867
     78  CB        14.5810   46.1760   35.0060 C.3   195  LYS195      0.0271
     79  CG        15.8980   45.6330   34.4870 C.3   195  LYS195      0.0035
     80  CD        16.9870   45.6260   35.5480 C.3   195  LYS195      0.0206
     81  CE        18.3100   45.1700   34.9430 C.3   195  LYS195      0.1093
     82  NZ        18.9010   46.2040   34.0570 N.3   195  LYS195     -0.1314
     83  N         13.9680   42.8680   26.6960 N.3   200  TYR200     -0.1241
     84  CA        15.1680   42.0910   26.4490 C.3   200  TYR200      0.1605
     85  C         15.0430   41.0250   25.3640 C.2   200  TYR200      0.2264
     86  O         15.9730   40.8190   24.5880 O.2   200  TYR200     -0.2867
     87  CB        15.6610   41.5260   27.7850 C.3   200  TYR200      0.0534
     88  CG        15.9960   42.6740   28.6880 C.ar  200  TYR200     -0.0201
     89  CD1       17.2310   43.3200   28.6090 C.ar  200  TYR200     -0.0009
     90  CD2       15.0210   43.2220   29.5190 C.ar  200  TYR200     -0.0009
     91  CE1       17.5040   44.4320   29.4080 C.ar  200  TYR200      0.0417
     92  CE2       15.2750   44.3320   30.2830 C.ar  200  TYR200      0.0417
     93  CZ        16.5130   44.9290   30.2470 C.ar  200  TYR200      0.1957
     94  OH        16.7100   46.0340   31.0610 O.3   200  TYR200     -0.2866
     95  N         23.5010   45.8200   27.5640 N.3   233  THR233     -0.1218
     96  CA        22.6910   46.0350   28.7430 C.3   233  THR233      0.1862
     97  C         23.3800   46.9920   29.6770 C.2   233  THR233      0.2287
     98  O         23.1200   46.9740   30.8630 O.2   233  THR233     -0.2866
     99  CB        22.3200   44.7140   29.4620 C.3   233  THR233      0.1770
    100  OG1       23.4980   43.9380   29.7080 O.3   233  THR233     -0.2211
    101  CG2       21.3220   43.9120   28.6040 C.3   233  THR233      0.0375
    102  N         25.7480   46.3230   36.2530 N.3   306  THR306     -0.1203
    103  CA        26.0840   45.3970   37.3510 C.3   306  THR306      0.1994
    104  C         26.9960   44.2690   36.8660 C.2   306  THR306      0.2617
    105  O         27.9270   43.8590   37.5810 O.2   306  THR306     -0.2717
    106  CB        24.8100   44.8460   38.0500 C.3   306  THR306      0.1784
    107  OG1       24.2870   45.8490   38.9430 O.3   306  THR306     -0.2211
    108  CG2       25.1020   43.5950   38.8520 C.3   306  THR306      0.0376
    109  N         26.7360   43.7850   35.6530 N.am  307  ALA307     -0.1979
    110  CA        27.5500   42.7270   35.0520 C.3   307  ALA307      0.1597
    111  C         29.0300   43.0640   35.0730 C.2   307  ALA307      0.2287
    112  O         29.8580   42.2730   35.5280 O.2   307  ALA307     -0.2864
    113  CB        27.1310   42.5180   33.6110 C.3   307  ALA307      0.0319
@<TRIPOS>BOND
     1    86    85    2
     2    85    84    1
     3    84    83    1
     4    84    87    1
     5    95    96    1
     6    87    88    1
     7   101    99    1
     8    89    88   ar
     9    89    91   ar
    10    88    90   ar
    11    96    99    1
    12    96    97    1
    13    91    93   ar
    14    99   100    1
    15    90    92   ar
    16    97    98    2
    17    73    72    1
    18    93    92   ar
    19    93    94    1
    20    72    71   ar
    21    72    70   ar
    22    71    69   ar
    23    70    68   ar
    24    69    67   ar
    25     4     3    2
    26    65    64    2
    27    20    22   ar
    28    20    18   ar
    29    22    21   ar
    30     8    10   ar
    31     8     6   ar
    32    68    67   ar
    33     1     2    1
    34    67    66    1
    35    10    11   ar
    36     5     2    1
    37     5     6    1
    38    64    63    1
    39     3     2    1
    40   113   110    1
    41    76    75    1
    42    76    77    2
    43    75    74    1
    44    75    78    1
    45     6     7   ar
    46    18    17   ar
    47    21    19   ar
    48    82    81    1
    49    79    78    1
    50    79    80    1
    51    63    66    1
    52    63    62    1
    53    11     9   ar
    54    81    80    1
    55   110   111    1
    56   110   109    1
    57   111   112    2
    58    53    52    1
    59    54    52    1
    60    17    19   ar
    61    17    16    1
    62     7     9   ar
    63   109   104   am
    64    52    51    2
    65   102   103    1
    66    16    13    1
    67    12    13    1
    68    43    42    1
    69   104   103    1
    70   104   105    2
    71    51    50    1
    72    13    14    1
    73    15    14    2
    74   103   106    1
    75    42    41   ar
    76    42    40   ar
    77    41    39   ar
    78    50    49    1
    79    40    38   ar
    80   106   108    1
    81   106   107    1
    82    31    30    1
    83    49    48    1
    84    39    37   ar
    85    59    61    1
    86    59    56    1
    87    59    60    1
    88    38    37   ar
    89    30    29    1
    90    37    36    1
    91    56    57    1
    92    56    55    1
    93    57    58    2
    94    48    45    1
    95    36    33    1
    96    29    28    1
    97    45    46    1
    98    45    44    1
    99    46    47    2
   100    28    27    1
   101    33    34    1
   102    33    32    1
   103    34    35    2
   104    27    24    1
   105    23    24    1
   106    24    25    1
   107    25    26    2
