@<TRIPOS>MOLECULE
tmp/5i5xB01.pdb
 117 111 0 0 0
SMALL
GASTEIGER

@<TRIPOS>ATOM
      1  N         28.5560   32.7540   32.3020 N.3    29  PHE29      -0.1241
      2  CA        27.6270   33.5060   33.1400 C.3    29  PHE29       0.1605
      3  C         26.1970   32.9670   33.0890 C.2    29  PHE29       0.2264
      4  O         25.7080   32.6010   32.0300 O.2    29  PHE29      -0.2867
      5  CB        27.5750   34.9890   32.7680 C.3    29  PHE29       0.0534
      6  CG        26.3830   35.6840   33.3460 C.ar   29  PHE29      -0.0203
      7  CD1       26.3340   35.9620   34.6990 C.ar   29  PHE29      -0.0042
      8  CD2       25.2690   35.9600   32.5670 C.ar   29  PHE29      -0.0042
      9  CE1       25.2260   36.5640   35.2600 C.ar   29  PHE29      -0.0003
     10  CE2       24.1540   36.5590   33.1230 C.ar   29  PHE29      -0.0003
     11  CZ        24.1330   36.8620   34.4710 C.ar   29  PHE29      -0.0000
     12  N         12.3330   42.0190   35.9690 N.3    74  PHE74      -0.1241
     13  CA        13.4460   41.4600   36.7190 C.3    74  PHE74       0.1605
     14  C         14.4190   42.5360   37.1520 C.2    74  PHE74       0.2264
     15  O         14.3520   43.6770   36.7110 O.2    74  PHE74      -0.2867
     16  CB        14.1850   40.4010   35.9030 C.3    74  PHE74       0.0534
     17  CG        14.8970   40.9470   34.6850 C.ar   74  PHE74      -0.0203
     18  CD1       14.1910   41.3410   33.5720 C.ar   74  PHE74      -0.0042
     19  CD2       16.2740   41.0430   34.6610 C.ar   74  PHE74      -0.0042
     20  CE1       14.8390   41.8340   32.4570 C.ar   74  PHE74      -0.0003
     21  CE2       16.9390   41.5400   33.5450 C.ar   74  PHE74      -0.0003
     22  CZ        16.2170   41.9230   32.4350 C.ar   74  PHE74      -0.0000
     23  N         24.6940   42.8420   42.3180 N.3    78  LYS78      -0.1245
     24  CA        25.7600   41.9610   42.7880 C.3    78  LYS78       0.1561
     25  C         26.1060   42.1330   44.2620 C.2    78  LYS78       0.2260
     26  O         25.9600   43.2030   44.8310 O.2    78  LYS78      -0.2867
     27  CB        27.0120   42.1500   41.9450 C.3    78  LYS78       0.0271
     28  CG        26.9770   41.4780   40.5880 C.3    78  LYS78       0.0035
     29  CD        28.1960   41.8070   39.7530 C.3    78  LYS78       0.0206
     30  CE        28.2420   40.9230   38.5250 C.3    78  LYS78       0.1093
     31  NZ        29.3490   41.2490   37.6040 N.3    78  LYS78      -0.1314
     32  N         25.8070   37.0880   41.5110 N.3   140  TYR140     -0.1241
     33  CA        24.7590   37.8420   40.8240 C.3   140  TYR140      0.1605
     34  C         23.4050   37.4520   41.4060 C.2   140  TYR140      0.2264
     35  O         23.1050   36.2650   41.5610 O.2   140  TYR140     -0.2867
     36  CB        24.8180   37.5550   39.3370 C.3   140  TYR140      0.0534
     37  CG        23.8540   38.3590   38.4990 C.ar  140  TYR140     -0.0201
     38  CD1       24.1370   39.6690   38.1480 C.ar  140  TYR140     -0.0009
     39  CD2       22.6880   37.7860   38.0060 C.ar  140  TYR140     -0.0009
     40  CE1       23.2600   40.4070   37.3580 C.ar  140  TYR140      0.0417
     41  CE2       21.8100   38.5110   37.2210 C.ar  140  TYR140      0.0417
     42  CZ        22.1050   39.8130   36.8800 C.ar  140  TYR140      0.1957
     43  OH        21.2340   40.5070   36.0650 O.3   140  TYR140     -0.2866
     44  N         19.3290   37.7250   41.0420 N.3   142  ARG142     -0.1245
     45  CA        18.2840   37.9110   40.0220 C.3   142  ARG142      0.1563
     46  C         16.8800   37.8300   40.6370 C.2   142  ARG142      0.2260
     47  O         16.3030   36.7260   40.7310 O.2   142  ARG142     -0.2867
     48  CB        18.4760   36.8960   38.8950 C.3   142  ARG142      0.0307
     49  CG        17.3410   36.8090   37.8440 C.3   142  ARG142      0.0489
     50  CD        16.9850   38.1430   37.1850 C.3   142  ARG142      0.2205
     51  NE        18.0850   38.6900   36.3990 N.pl3 142  ARG142     -0.0865
     52  CZ        18.3710   38.4030   35.1260 C.cat 142  ARG142      0.5346
     53  NH1       17.6300   37.5500   34.4250 N.pl3 142  ARG142      0.1354
     54  NH2       19.4130   38.9850   34.5400 N.pl3 142  ARG142      0.1354
     55  N         29.4600   34.2210   39.7970 N.3   169  VAL169     -0.1231
     56  CA        30.0130   34.6170   38.5150 C.3   169  VAL169      0.1692
     57  C         31.5150   34.8520   38.6200 C.2   169  VAL169      0.2592
     58  O         32.0160   35.3520   39.6360 O.2   169  VAL169     -0.2718
     59  CB        29.3030   35.8640   37.9320 C.3   169  VAL169      0.0266
     60  CG1       27.7930   35.6830   37.9890 C.3   169  VAL169      0.0020
     61  CG2       29.7090   37.1170   38.6680 C.3   169  VAL169      0.0020
     62  N         32.2150   34.4710   37.5620 N.am  170  GLY170     -0.1957
     63  CA        33.6570   34.6250   37.4840 C.3   170  GLY170      0.1869
     64  C         34.0110   36.0290   37.0490 C.2   170  GLY170      0.2309
     65  O         33.1300   36.8420   36.7500 O.2   170  GLY170     -0.2863
     66  N         34.8380   39.1310   34.9450 N.3   172  TYR172     -0.1241
     67  CA        34.3850   39.5190   33.6040 C.3   172  TYR172      0.1605
     68  C         35.5600   39.6200   32.6270 C.2   172  TYR172      0.2264
     69  O         35.4380   39.2330   31.4610 O.2   172  TYR172     -0.2867
     70  CB        33.6170   40.8380   33.6380 C.3   172  TYR172      0.0534
     71  CG        32.9610   41.1980   32.3190 C.ar  172  TYR172     -0.0201
     72  CD1       33.6450   41.9360   31.3550 C.ar  172  TYR172     -0.0009
     73  CD2       31.6570   40.8060   32.0370 C.ar  172  TYR172     -0.0009
     74  CE1       33.0470   42.2770   30.1510 C.ar  172  TYR172      0.0417
     75  CE2       31.0480   41.1400   30.8320 C.ar  172  TYR172      0.0417
     76  CZ        31.7470   41.8730   29.8900 C.ar  172  TYR172      0.1957
     77  OH        31.1580   42.2180   28.6900 O.3   172  TYR172     -0.2866
     78  N         12.8820   47.7570   33.4990 N.3   201  LYS201     -0.1245
     79  CA        13.5850   46.5210   33.3060 C.3   201  LYS201      0.1561
     80  C         12.5710   45.3860   33.1490 C.2   201  LYS201      0.2260
     81  O         12.4240   44.5120   34.0120 O.2   201  LYS201     -0.2867
     82  CB        14.5840   46.2970   34.4530 C.3   201  LYS201      0.0271
     83  CG        15.7690   45.4550   34.0580 C.3   201  LYS201      0.0035
     84  CD        16.9310   45.5940   35.0270 C.3   201  LYS201      0.0206
     85  CE        17.9980   44.5850   34.6800 C.3   201  LYS201      0.1093
     86  NZ        18.4200   44.6840   33.2550 N.3   201  LYS201     -0.1314
     87  N         13.9830   42.6960   26.1280 N.3   206  TYR206     -0.1241
     88  CA        15.1830   41.9090   25.8600 C.3   206  TYR206      0.1605
     89  C         15.0500   40.8380   24.7720 C.2   206  TYR206      0.2264
     90  O         15.9560   40.6850   23.9380 O.2   206  TYR206     -0.2867
     91  CB        15.6870   41.3140   27.1830 C.3   206  TYR206      0.0534
     92  CG        16.0300   42.4320   28.1180 C.ar  206  TYR206     -0.0201
     93  CD1       17.2740   43.0480   28.0430 C.ar  206  TYR206     -0.0009
     94  CD2       15.0740   42.9700   28.9810 C.ar  206  TYR206     -0.0009
     95  CE1       17.5820   44.1300   28.8590 C.ar  206  TYR206      0.0417
     96  CE2       15.3700   44.0550   29.7800 C.ar  206  TYR206      0.0417
     97  CZ        16.6040   44.6400   29.7020 C.ar  206  TYR206      0.1957
     98  OH        16.8580   45.7230   30.5250 O.3   206  TYR206     -0.2866
     99  N         23.3460   45.7240   26.8630 N.3   239  THR239     -0.1218
    100  CA        22.6140   45.9360   28.1120 C.3   239  THR239      0.1862
    101  C         23.4010   46.8410   29.0740 C.2   239  THR239      0.2287
    102  O         23.4000   46.6340   30.2910 O.2   239  THR239     -0.2866
    103  CB        22.2530   44.6040   28.8260 C.3   239  THR239      0.1770
    104  OG1       23.4430   43.9030   29.2020 O.3   239  THR239     -0.2211
    105  CG2       21.3970   43.7270   27.9430 C.3   239  THR239      0.0375
    106  N         26.0220   46.2610   35.5110 N.3   312  THR312     -0.1203
    107  CA        26.3590   45.3220   36.6000 C.3   312  THR312      0.1994
    108  C         27.2710   44.1730   36.1470 C.2   312  THR312      0.2617
    109  O         28.0890   43.6740   36.9210 O.2   312  THR312     -0.2717
    110  CB        25.0650   44.8230   37.2710 C.3   312  THR312      0.1784
    111  OG1       24.4330   45.9220   37.9090 O.3   312  THR312     -0.2211
    112  CG2       25.3270   43.7390   38.3250 C.3   312  THR312      0.0376
    113  N         27.1450   43.7740   34.8870 N.am  313  ALA313     -0.1979
    114  CA        27.9610   42.6960   34.3280 C.3   313  ALA313      0.1597
    115  C         29.4760   42.9120   34.4560 C.2   313  ALA313      0.2287
    116  O         30.1890   42.0080   34.8720 O.2   313  ALA313     -0.2864
    117  CB        27.5990   42.4850   32.8620 C.3   313  ALA313      0.0319
@<TRIPOS>BOND
     1    90    89    2
     2    89    88    1
     3    88    87    1
     4    88    91    1
     5    99   100    1
     6    91    92    1
     7   105   103    1
     8    93    92   ar
     9    93    95   ar
    10   100   103    1
    11   100   101    1
    12    92    94   ar
    13    77    76    1
    14   103   104    1
    15    95    97   ar
    16    94    96   ar
    17   101   102    2
    18    97    96   ar
    19    97    98    1
    20    76    74   ar
    21    76    75   ar
    22    74    72   ar
    23    75    73   ar
    24    72    71   ar
    25    69    68    2
    26     4     3    2
    27    73    71   ar
    28     1     2    1
    29    71    70    1
    30    22    20   ar
    31    22    21   ar
    32    20    18   ar
    33     8    10   ar
    34     8     6   ar
    35    68    67    1
    36     5     2    1
    37     5     6    1
    38   117   114    1
    39     3     2    1
    40    10    11   ar
    41    80    79    1
    42    80    81    2
    43    86    85    1
    44    79    78    1
    45    79    82    1
    46     6     7   ar
    47    21    19   ar
    48    18    17   ar
    49    67    70    1
    50    67    66    1
    51    83    82    1
    52    83    84    1
    53   114   115    1
    54   114   113    1
    55    53    52    1
    56   115   116    2
    57    11     9   ar
    58    54    52    1
    59    19    17   ar
    60    85    84    1
    61    17    16    1
    62     7     9   ar
    63   113   108   am
    64    52    51    2
    65   106   107    1
    66    16    13    1
    67    12    13    1
    68    43    42    1
    69   108   107    1
    70   108   109    2
    71    51    50    1
    72   107   110    1
    73    15    14    2
    74    13    14    1
    75    65    64    2
    76    42    41   ar
    77    42    40   ar
    78    64    63    1
    79    50    49    1
    80    41    39   ar
    81   110   111    1
    82   110   112    1
    83    40    38   ar
    84    63    62    1
    85    62    57   am
    86    31    30    1
    87    49    48    1
    88    59    60    1
    89    59    56    1
    90    59    61    1
    91    39    37   ar
    92    38    37   ar
    93    37    36    1
    94    56    57    1
    95    56    55    1
    96    30    29    1
    97    57    58    2
    98    48    45    1
    99    36    33    1
   100    29    28    1
   101    45    46    1
   102    45    44    1
   103    28    27    1
   104    46    47    2
   105    33    34    1
   106    33    32    1
   107    34    35    2
   108    27    24    1
   109    23    24    1
   110    24    25    1
   111    25    26    2
