@<TRIPOS>MOLECULE
tmp/5i5yB01.pdb
 138 132 0 0 0
SMALL
GASTEIGER

@<TRIPOS>ATOM
      1  N         43.7020   -6.2840   16.1090 N.3    24  PHE24      -0.1241
      2  CA        42.5180   -7.1010   16.3270 C.3    24  PHE24       0.1605
      3  C         41.4670   -6.9690   15.2200 C.2    24  PHE24       0.2264
      4  O         41.1660   -5.8720   14.7740 O.2    24  PHE24      -0.2867
      5  CB        41.7950   -6.7530   17.6480 C.3    24  PHE24       0.0534
      6  CG        40.4360   -7.3890   17.7430 C.ar   24  PHE24      -0.0203
      7  CD1       40.3220   -8.7520   17.9320 C.ar   24  PHE24      -0.0042
      8  CD2       39.2740   -6.6500   17.5440 C.ar   24  PHE24      -0.0042
      9  CE1       39.0860   -9.3740   17.9660 C.ar   24  PHE24      -0.0003
     10  CE2       38.0230   -7.2630   17.5920 C.ar   24  PHE24      -0.0003
     11  CZ        37.9320   -8.6340   17.7920 C.ar   24  PHE24      -0.0000
     12  N         25.2040  -10.0420   17.6070 N.3    69  PHE69      -0.1241
     13  CA        26.4370  -10.7970   17.4980 C.3    69  PHE69       0.1605
     14  C         26.8430  -11.3860   18.8250 C.2    69  PHE69       0.2264
     15  O         26.3000  -11.0300   19.8730 O.2    69  PHE69      -0.2867
     16  CB        27.5590   -9.9240   16.9400 C.3    69  PHE69       0.0534
     17  CG        27.9860   -8.8000   17.8530 C.ar   69  PHE69      -0.0203
     18  CD1       27.2740   -7.6090   17.8940 C.ar   69  PHE69      -0.0042
     19  CD2       29.1300   -8.9230   18.6410 C.ar   69  PHE69      -0.0042
     20  CE1       27.6830   -6.5620   18.7160 C.ar   69  PHE69      -0.0003
     21  CE2       29.5330   -7.8820   19.4820 C.ar   69  PHE69      -0.0003
     22  CZ        28.8030   -6.7130   19.5240 C.ar   69  PHE69      -0.0000
     23  N         30.6210  -13.0310   20.8570 N.3    71  GLY71      -0.1225
     24  CA        32.0820  -13.0230   20.8680 C.3    71  GLY71       0.1811
     25  C         32.5820  -13.9230   21.9590 C.2    71  GLY71       0.2280
     26  O         32.2460  -13.7460   23.1380 O.2    71  GLY71      -0.2866
     27  N         36.0680  -16.9120   22.8540 N.3    73  LYS73      -0.1245
     28  CA        37.3940  -17.3610   22.4520 C.3    73  LYS73       0.1561
     29  C         37.6410  -18.8480   22.5910 C.2    73  LYS73       0.2260
     30  O         37.1540  -19.4870   23.5350 O.2    73  LYS73      -0.2867
     31  CB        38.4650  -16.6010   23.2260 C.3    73  LYS73       0.0271
     32  CG        38.7330  -15.2250   22.6600 C.3    73  LYS73       0.0035
     33  CD        39.6320  -14.3800   23.5400 C.3    73  LYS73       0.0206
     34  CE        40.0420  -13.0970   22.8240 C.3    73  LYS73       0.1093
     35  NZ        40.9400  -12.2700   23.6840 N.3    73  LYS73      -0.1314
     36  N         39.2870  -15.7230   18.0940 N.3   135  TYR135     -0.1241
     37  CA        38.0230  -15.0710   18.4180 C.3   135  TYR135      0.1605
     38  C         36.9450  -15.5440   17.4650 C.2   135  TYR135      0.2264
     39  O         37.1400  -15.5550   16.2450 O.2   135  TYR135     -0.2867
     40  CB        38.1910  -13.5570   18.3080 C.3   135  TYR135      0.0534
     41  CG        36.9750  -12.7500   18.7050 C.ar  135  TYR135     -0.0201
     42  CD1       36.6610  -12.5310   20.0420 C.ar  135  TYR135     -0.0009
     43  CD2       36.1640  -12.1770   17.7420 C.ar  135  TYR135     -0.0009
     44  CE1       35.5510  -11.7800   20.4080 C.ar  135  TYR135      0.0417
     45  CE2       35.0600  -11.4260   18.0910 C.ar  135  TYR135      0.0417
     46  CZ        34.7550  -11.2360   19.4280 C.ar  135  TYR135      0.1957
     47  OH        33.6640  -10.4750   19.7630 O.3   135  TYR135     -0.2866
     48  N         33.1220  -15.1020   16.0950 N.3   137  ARG137     -0.1245
     49  CA        32.1050  -14.0830   15.9300 C.3   137  ARG137      0.1563
     50  C         30.8750  -14.6300   15.2160 C.2   137  ARG137      0.2260
     51  O         30.8200  -14.6110   13.9810 O.2   137  ARG137     -0.2867
     52  CB        32.7070  -12.9000   15.1700 C.3   137  ARG137      0.0307
     53  CG        31.7350  -11.8170   14.6900 C.3   137  ARG137      0.0489
     54  CD        30.8790  -11.2100   15.7830 C.3   137  ARG137      0.2205
     55  NE        31.6460  -10.5310   16.8500 N.pl3 137  ARG137     -0.0865
     56  CZ        32.0230   -9.2510   16.8180 C.cat 137  ARG137      0.5346
     57  NH1       31.7380   -8.4870   15.7700 N.pl3 137  ARG137      0.1354
     58  NH2       32.7040   -8.7240   17.8310 N.pl3 137  ARG137      0.1354
     59  N         43.8720  -13.9550   17.1310 N.3   164  VAL164     -0.1231
     60  CA        44.2180  -12.7270   17.8150 C.3   164  VAL164      0.1692
     61  C         45.4910  -12.8890   18.6320 C.2   164  VAL164      0.2593
     62  O         45.7770  -13.9570   19.1820 O.2   164  VAL164     -0.2718
     63  CB        43.0660  -12.2170   18.7030 C.3   164  VAL164      0.0266
     64  CG1       41.8080  -12.0100   17.8800 C.3   164  VAL164      0.0020
     65  CG2       42.7840  -13.1860   19.8300 C.3   164  VAL164      0.0020
     66  N         46.2490  -11.8020   18.6970 N.am  165  GLY165     -0.1942
     67  CA        47.4810  -11.7530   19.4580 C.3   165  GLY165      0.2014
     68  C         47.2220  -11.4830   20.9260 C.2   165  GLY165      0.2639
     69  O         46.0770  -11.3120   21.3440 O.2   165  GLY165     -0.2714
     70  N         48.2920  -11.4430   21.7080 N.am  166  ALA166     -0.1963
     71  CA        48.2100  -11.1510   23.1480 C.3   166  ALA166      0.1728
     72  C         47.6700   -9.7450   23.4050 C.2   166  ALA166      0.2616
     73  O         48.0710   -8.7900   22.7400 O.2   166  ALA166     -0.2715
     74  CB        49.5840  -11.3060   23.7860 C.3   166  ALA166      0.0334
     75  N         46.7640   -9.6160   24.3710 N.am  167  TYR167     -0.1974
     76  CA        46.2150   -8.3110   24.7150 C.3   167  TYR167      0.1639
     77  C         47.2790   -7.4810   25.4360 C.2   167  TYR167      0.2290
     78  O         47.3400   -6.2590   25.2750 O.2   167  TYR167     -0.2864
     79  CB        44.9700   -8.4750   25.5930 C.3   167  TYR167      0.0560
     80  CG        44.2500   -7.1820   25.8160 C.ar  167  TYR167     -0.0198
     81  CD1       44.6130   -6.3320   26.8580 C.ar  167  TYR167     -0.0009
     82  CD2       43.2250   -6.7800   24.9680 C.ar  167  TYR167     -0.0009
     83  CE1       43.9490   -5.1340   27.0630 C.ar  167  TYR167      0.0417
     84  CE2       42.5660   -5.5830   25.1710 C.ar  167  TYR167      0.0417
     85  CZ        42.9350   -4.7650   26.2150 C.ar  167  TYR167      0.1957
     86  OH        42.2780   -3.5580   26.4110 O.3   167  TYR167     -0.2866
     87  N         23.4870   -8.0310   23.3100 N.3   196  LYS196     -0.1245
     88  CA        24.6320   -7.7630   22.4410 C.3   196  LYS196      0.1561
     89  C         24.1520   -7.5030   21.0120 C.2   196  LYS196      0.2260
     90  O         24.3150   -8.3290   20.1100 O.2   196  LYS196     -0.2867
     91  CB        25.6470   -8.8980   22.5540 C.3   196  LYS196      0.0271
     92  CG        27.0940   -8.4070   22.5540 C.3   196  LYS196      0.0035
     93  CD        28.0480   -9.5130   22.9810 C.3   196  LYS196      0.0206
     94  CE        29.4940   -9.0160   23.0730 C.3   196  LYS196      0.1093
     95  NZ        29.7460   -8.0680   24.1830 N.3   196  LYS196     -0.1314
     96  N         26.5510   -0.3130   19.7280 N.3   201  TYR201     -0.1241
     97  CA        27.9950   -0.0550   19.5550 C.3   201  TYR201      0.1605
     98  C         28.3180    1.0980   18.6070 C.2   201  TYR201      0.2264
     99  O         29.2250    1.8990   18.8790 O.2   201  TYR201     -0.2867
    100  CB        28.7090   -1.3770   19.1920 C.3   201  TYR201      0.0534
    101  CG        28.4370   -2.3780   20.2800 C.ar  201  TYR201     -0.0201
    102  CD1       29.2220   -2.4140   21.4290 C.ar  201  TYR201     -0.0009
    103  CD2       27.3170   -3.2110   20.2280 C.ar  201  TYR201     -0.0009
    104  CE1       28.9510   -3.2850   22.4640 C.ar  201  TYR201      0.0417
    105  CE2       27.0320   -4.0790   21.2670 C.ar  201  TYR201      0.0417
    106  CZ        27.8360   -4.1100   22.3780 C.ar  201  TYR201      0.1957
    107  OH        27.5250   -4.9560   23.4070 O.3   201  TYR201     -0.2866
    108  N         33.6860   -1.5180   26.4890 N.3   234  THR234     -0.1203
    109  CA        32.9090   -2.7410   26.3150 C.3   234  THR234      0.1994
    110  C         33.3670   -3.8260   27.3400 C.2   234  THR234      0.2617
    111  O         33.4000   -5.0280   27.0480 O.2   234  THR234     -0.2717
    112  CB        33.0110   -3.2640   24.8760 C.3   234  THR234      0.1784
    113  OG1       34.3830   -3.5160   24.5590 O.3   234  THR234     -0.2211
    114  CG2       32.4350   -2.2320   23.8740 C.3   234  THR234      0.0376
    115  N         33.6990   -3.3760   28.5400 N.am  235  MET235     -0.1979
    116  CA        34.0580   -4.2480   29.6640 C.3   235  MET235      0.1605
    117  C         33.1050   -4.0120   30.8270 C.2   235  MET235      0.2287
    118  O         32.6590   -2.8930   31.0590 O.2   235  MET235     -0.2864
    119  CB        35.4710   -3.9600   30.1650 C.3   235  MET235      0.0413
    120  CG        36.5770   -4.2140   29.1620 C.3   235  MET235      0.0598
    121  SD        38.2060   -3.9830   29.8950 S.3   235  MET235     -0.1393
    122  CE        38.2060   -2.2440   30.2310 C.3   235  MET235      0.0692
    123  N         36.1280   -8.8410   30.3510 N.3   306  GLY306     -0.1210
    124  CA        35.6670   -9.0550   28.9870 C.3   306  GLY306      0.1956
    125  C         36.5180  -10.0550   28.2350 C.2   306  GLY306      0.2613
    126  O         37.6730  -10.3010   28.5900 O.2   306  GLY306     -0.2717
    127  N         35.9360  -10.6370   27.1920 N.am  307  THR307     -0.1938
    128  CA        36.6260  -11.6120   26.3430 C.3   307  THR307      0.2028
    129  C         37.9010  -11.0380   25.7160 C.2   307  THR307      0.2642
    130  O         38.8910  -11.7580   25.5650 O.2   307  THR307     -0.2714
    131  CB        35.6650  -12.1280   25.2480 C.3   307  THR307      0.1808
    132  OG1       34.6120  -12.8720   25.8710 O.3   307  THR307     -0.2208
    133  CG2       36.3680  -13.0230   24.2250 C.3   307  THR307      0.0379
    134  N         37.8940   -9.7360   25.4090 N.am  308  ALA308     -0.1977
    135  CA        39.0530   -9.0760   24.7810 C.3   308  ALA308      0.1597
    136  C         40.3500   -9.2330   25.5660 C.2   308  ALA308      0.2287
    137  O         41.3690   -9.6040   24.9850 O.2   308  ALA308     -0.2864
    138  CB        38.7590   -7.5900   24.5370 C.3   308  ALA308      0.0319
@<TRIPOS>BOND
     1    51    50    2
     2    53    52    1
     3    53    54    1
     4     4     3    2
     5    52    49    1
     6    50    49    1
     7     3     2    1
     8    57    56    1
     9    54    55    1
    10    49    48    1
    11     1     2    1
    12    39    38    2
    13     2     5    1
    14    56    55    2
    15    56    58    1
    16    16    13    1
    17    16    17    1
    18    59    60    1
    19    38    37    1
    20    13    12    1
    21    13    14    1
    22     8    10   ar
    23     8     6   ar
    24    10    11   ar
    25     5     6    1
    26    43    45   ar
    27    43    41   ar
    28     6     7   ar
    29    11     9   ar
    30    60    61    1
    31    60    63    1
    32    17    18   ar
    33    17    19   ar
    34    64    63    1
    35    18    20   ar
    36     7     9   ar
    37    45    46   ar
    38    36    37    1
    39    40    37    1
    40    40    41    1
    41    98    99    2
    42    98    97    1
    43    61    66   am
    44    61    62    2
    45    19    21   ar
    46    66    67    1
    47    63    65    1
    48    41    42   ar
    49    20    22   ar
    50    14    15    2
    51   100    97    1
    52   100   101    1
    53    46    47    1
    54    46    44   ar
    55    67    68    1
    56    21    22   ar
    57    97    96    1
    58    42    44   ar
    59    90    89    2
    60   103   101   ar
    61   103   105   ar
    62   101   102   ar
    63    23    24    1
    64    24    25    1
    65    68    69    2
    66    68    70   am
    67    89    88    1
    68   105   106   ar
    69   102   104   ar
    70    70    71    1
    71    25    26    2
    72   106   104   ar
    73   106   107    1
    74    88    91    1
    75    88    87    1
    76    28    29    1
    77    28    27    1
    78    28    31    1
    79    92    91    1
    80    92    93    1
    81    29    30    2
    82    32    31    1
    83    32    33    1
    84    73    72    2
    85    34    33    1
    86    34    35    1
    87    93    94    1
    88    94    95    1
    89    71    72    1
    90    71    74    1
    91    72    75   am
    92   114   112    1
    93   133   131    1
    94    75    76    1
    95   138   135    1
    96   113   112    1
    97    76    77    1
    98    76    79    1
    99   135   134    1
   100   135   136    1
   101   112   109    1
   102    82    84   ar
   103    82    80   ar
   104   137   136    2
   105    84    85   ar
   106   131   132    1
   107   131   128    1
   108    78    77    2
   109   134   129   am
   110   130   129    2
   111    79    80    1
   112   129   128    1
   113    80    81   ar
   114    85    86    1
   115    85    83   ar
   116   109   108    1
   117   109   110    1
   118   128   127    1
   119    81    83   ar
   120   111   110    2
   121   127   125   am
   122   110   115   am
   123   125   126    2
   124   125   124    1
   125   115   116    1
   126   124   123    1
   127   120   121    1
   128   120   119    1
   129   116   119    1
   130   116   117    1
   131   121   122    1
   132   117   118    2
