@<TRIPOS>MOLECULE
tmp/5i5zA00.pdb
 182 174 0 0 0
SMALL
GASTEIGER

@<TRIPOS>ATOM
      1  N         37.3740   62.9080   46.5540 N.3    30  VAL30      -0.1231
      2  CA        38.2470   61.7570   46.3580 C.3    30  VAL30       0.1692
      3  C         37.7460   60.4680   47.0670 C.2    30  VAL30       0.2592
      4  O         38.1980   59.3670   46.7400 O.2    30  VAL30      -0.2718
      5  CB        39.7070   62.1430   46.7550 C.3    30  VAL30       0.0266
      6  CG1       39.8690   62.3170   48.2750 C.3    30  VAL30       0.0020
      7  CG2       40.6940   61.1440   46.2250 C.3    30  VAL30       0.0020
      8  N         36.8120   60.6040   48.0110 N.am   31  GLY31      -0.1957
      9  CA        36.1690   59.4640   48.6550 C.3    31  GLY31       0.1869
     10  C         34.7080   59.7300   48.9680 C.2    31  GLY31       0.2309
     11  O         34.3200   60.8720   49.2320 O.2    31  GLY31      -0.2863
     12  N         30.8290   56.8040   55.8770 N.3    35  TYR35      -0.1241
     13  CA        31.5010   57.9470   56.5320 C.3    35  TYR35       0.1605
     14  C         31.1100   59.3590   56.0700 C.2    35  TYR35       0.2264
     15  O         31.2650   60.3220   56.8310 O.2    35  TYR35      -0.2867
     16  CB        33.0270   57.7970   56.3870 C.3    35  TYR35       0.0534
     17  CG        33.5350   57.6670   54.9500 C.ar   35  TYR35      -0.0201
     18  CD1       33.7430   58.8000   54.1430 C.ar   35  TYR35      -0.0009
     19  CD2       33.8350   56.4080   54.4060 C.ar   35  TYR35      -0.0009
     20  CE1       34.2200   58.6770   52.8270 C.ar   35  TYR35       0.0417
     21  CE2       34.3130   56.2800   53.0940 C.ar   35  TYR35       0.0417
     22  CZ        34.5010   57.4160   52.3130 C.ar   35  TYR35       0.1957
     23  OH        34.9690   57.2840   51.0250 O.3    35  TYR35      -0.2866
     24  N         34.8610   62.7970   51.2460 N.3    38  VAL38      -0.1245
     25  CA        36.2470   63.2630   51.4630 C.3    38  VAL38       0.1561
     26  C         36.7810   63.9950   50.2280 C.2    38  VAL38       0.2260
     27  O         36.6560   63.5040   49.1100 O.2    38  VAL38      -0.2867
     28  CB        37.1850   62.1030   51.8590 C.3    38  VAL38       0.0252
     29  CG1       38.6280   62.5900   52.0640 C.3    38  VAL38       0.0019
     30  CG2       36.6910   61.4550   53.1400 C.3    38  VAL38       0.0019
     31  N         43.1850   66.8470   53.5100 N.3    53  ALA53      -0.1245
     32  CA        41.9800   66.0290   53.3340 C.3    53  ALA53       0.1562
     33  C         40.8410   66.5890   54.1940 C.2    53  ALA53       0.2260
     34  O         41.0290   66.8480   55.3870 O.2    53  ALA53      -0.2867
     35  CB        42.2600   64.5980   53.7010 C.3    53  ALA53       0.0290
     36  N         37.0070   65.8670   55.4610 N.3    55  LYS55      -0.1245
     37  CA        35.9510   64.8860   55.6510 C.3    55  LYS55       0.1561
     38  C         34.6840   65.6020   56.0940 C.2    55  LYS55       0.2260
     39  O         34.6710   66.2050   57.1660 O.2    55  LYS55      -0.2867
     40  CB        36.3890   63.8810   56.7190 C.3    55  LYS55       0.0271
     41  CG        35.4910   62.6700   56.8930 C.3    55  LYS55       0.0035
     42  CD        36.0040   61.8460   58.0690 C.3    55  LYS55       0.0206
     43  CE        35.4300   60.4580   58.0970 C.3    55  LYS55       0.1093
     44  NZ        36.3980   59.5430   58.7510 N.3    55  LYS55      -0.1314
     45  N         46.5750   58.7060   61.6270 N.3    82  ILE82      -0.1245
     46  CA        46.1910   59.9670   60.9770 C.3    82  ILE82       0.1561
     47  C         45.8760   61.0230   62.0470 C.2    82  ILE82       0.2260
     48  O         45.2810   60.7000   63.0800 O.2    82  ILE82      -0.2867
     49  CB        45.0130   59.7630   59.9650 C.3    82  ILE82       0.0252
     50  CG1       44.9840   60.8840   58.9240 C.3    82  ILE82       0.0019
     51  CG2       43.6500   59.6040   60.6710 C.3    82  ILE82       0.0019
     52  CD1       45.8260   60.5960   57.6920 C.3    82  ILE82       0.0001
     53  N         42.4630   66.8190   57.8890 N.3   100  PHE100     -0.1227
     54  CA        43.6340   65.9420   58.0440 C.3   100  PHE100      0.1736
     55  C         44.6870   66.3060   57.0000 C.2   100  PHE100      0.2595
     56  O         44.3630   66.9450   56.0070 O.2   100  PHE100     -0.2718
     57  CB        43.2500   64.4760   57.8380 C.3   100  PHE100      0.0547
     58  CG        42.0630   64.0190   58.6450 C.ar  100  PHE100     -0.0202
     59  CD1       40.7670   64.1760   58.1540 C.ar  100  PHE100     -0.0042
     60  CD2       42.2390   63.3780   59.8650 C.ar  100  PHE100     -0.0042
     61  CE1       39.6620   63.7290   58.8870 C.ar  100  PHE100     -0.0003
     62  CE2       41.1450   62.9170   60.6040 C.ar  100  PHE100     -0.0003
     63  CZ        39.8560   63.0910   60.1190 C.ar  100  PHE100     -0.0000
     64  N         45.9420   65.8940   57.2260 N.am  101  ASP101     -0.1960
     65  CA        46.9760   65.9660   56.1810 C.3   101  ASP101      0.1840
     66  C         46.6320   64.9020   55.1160 C.2   101  ASP101      0.2622
     67  O         46.0730   63.8530   55.4300 O.2   101  ASP101     -0.2715
     68  CB        48.4080   65.7700   56.7470 C.3   101  ASP101      0.1450
     69  CG        49.1080   67.1050   57.1660 C.2   101  ASP101      0.3671
     70  OD1       48.8940   68.1800   56.5500 O.co2 101  ASP101     -0.2456
     71  OD2       49.9270   67.0650   58.1120 O.co2 101  ASP101     -0.2456
     72  N         46.9460   65.1920   53.8600 N.am  102  TYR102     -0.1960
     73  CA        46.5270   64.3440   52.7330 C.3   102  TYR102      0.1771
     74  C         47.5050   63.1850   52.4950 C.2   102  TYR102      0.2619
     75  O         48.7130   63.4010   52.4080 O.2   102  TYR102     -0.2715
     76  CB        46.3900   65.1970   51.4660 C.3   102  TYR102      0.0574
     77  CG        45.9900   64.4370   50.2260 C.ar  102  TYR102     -0.0198
     78  CD1       44.6770   64.0000   50.0360 C.ar  102  TYR102     -0.0009
     79  CD2       46.9230   64.1710   49.2280 C.ar  102  TYR102     -0.0009
     80  CE1       44.3110   63.3060   48.8830 C.ar  102  TYR102      0.0417
     81  CE2       46.5740   63.4860   48.0810 C.ar  102  TYR102      0.0417
     82  CZ        45.2730   63.0520   47.9070 C.ar  102  TYR102      0.1957
     83  OH        44.9560   62.3720   46.7490 O.3   102  TYR102     -0.2866
     84  N         46.9690   61.9670   52.3880 N.am  103  ALA103     -0.1977
     85  CA        47.7570   60.7830   52.0360 C.3   103  ALA103      0.1597
     86  C         47.3460   60.3470   50.6380 C.2   103  ALA103      0.2287
     87  O         46.2030   59.9780   50.4320 O.2   103  ALA103     -0.2864
     88  CB        47.5200   59.6670   53.0320 C.3   103  ALA103      0.0319
     89  N         47.2420   54.1890   49.4750 N.3   106  ASP106     -0.1239
     90  CA        46.8190   53.2140   50.4900 C.3   106  ASP106      0.1674
     91  C         47.1020   51.8100   49.9890 C.2   106  ASP106      0.2266
     92  O         47.4030   51.6370   48.8050 O.2   106  ASP106     -0.2867
     93  CB        45.3330   53.3750   50.8190 C.3   106  ASP106      0.1410
     94  CG        44.4550   53.3620   49.5830 C.2   106  ASP106      0.3668
     95  OD1       44.2190   52.2800   49.0050 O.co2 106  ASP106     -0.2456
     96  OD2       43.9980   54.4400   49.1840 O.co2 106  ASP106     -0.2456
     97  N         45.1160   49.1470   49.5380 N.3   108  TRP108     -0.1227
     98  CA        44.1500   48.6430   48.5440 C.3   108  TRP108      0.1737
     99  C         44.6210   48.9900   47.1360 C.2   108  TRP108      0.2595
    100  O         44.8460   48.0950   46.3110 O.2   108  TRP108     -0.2718
    101  CB        42.7380   49.2070   48.7850 C.3   108  TRP108      0.0564
    102  CG        41.6570   48.5750   47.9520 C.ar  108  TRP108      0.0003
    103  CD1       40.8620   47.5300   48.3100 C.ar  108  TRP108      0.0946
    104  CD2       41.2380   48.9590   46.6270 C.ar  108  TRP108      0.0152
    105  NE1       39.9780   47.2280   47.2940 N.ar  108  TRP108     -0.2442
    106  CE2       40.1900   48.0880   46.2500 C.ar  108  TRP108      0.0810
    107  CE3       41.6520   49.9430   45.7210 C.ar  108  TRP108      0.0012
    108  CZ2       39.5480   48.1780   45.0110 C.ar  108  TRP108      0.0191
    109  CZ3       41.0120   50.0320   44.4760 C.ar  108  TRP108      0.0001
    110  CH2       39.9700   49.1560   44.1390 C.ar  108  TRP108      0.0015
    111  N         44.7990   50.2880   46.8850 N.am  109  HIS109     -0.1975
    112  CA        45.2420   50.7690   45.5760 C.3   109  HIS109      0.1656
    113  C         46.6490   50.2610   45.2380 C.2   109  HIS109      0.2291
    114  O         46.8790   49.8230   44.1280 O.2   109  HIS109     -0.2864
    115  CB        45.1870   52.2930   45.5130 C.3   109  HIS109      0.0771
    116  CG        43.8000   52.8420   45.3890 C.ar  109  HIS109      0.0820
    117  ND1       43.0460   53.2280   46.4790 N.ar  109  HIS109     -0.2267
    118  CD2       43.0280   53.0630   44.2980 C.ar  109  HIS109      0.1154
    119  CE1       41.8700   53.6670   46.0610 C.ar  109  HIS109      0.1986
    120  NE2       41.8340   53.5790   44.7430 N.ar  109  HIS109     -0.2212
    121  N         42.3680   49.2350   52.6060 N.3   153  ALA153     -0.1231
    122  CA        41.8100   50.5270   52.2110 C.3   153  ALA153      0.1694
    123  C         42.0400   51.6230   53.2520 C.2   153  ALA153      0.2592
    124  O         42.3320   52.7570   52.8880 O.2   153  ALA153     -0.2718
    125  CB        40.3190   50.3990   51.8860 C.3   153  ALA153      0.0304
    126  N         41.9390   51.2910   54.5330 N.am  154  ASN154     -0.1974
    127  CA        42.1570   52.2990   55.5830 C.3   154  ASN154      0.1688
    128  C         43.5870   52.3530   56.1610 C.2   154  ASN154      0.2292
    129  O         43.8520   53.0980   57.1070 O.2   154  ASN154     -0.2864
    130  CB        41.0600   52.2500   56.6580 C.3   154  ASN154      0.1181
    131  CG        40.9070   50.9000   57.3010 C.2   154  ASN154      0.2629
    132  OD1       41.8890   50.2550   57.6680 O.2   154  ASN154     -0.2716
    133  ND2       39.6590   50.4690   57.4630 N.am  154  ASN154     -0.0877
    134  N         46.5990   53.9570   55.0290 N.3   156  LEU156     -0.1245
    135  CA        46.9890   54.9690   54.0640 C.3   156  LEU156      0.1561
    136  C         48.5060   55.0760   54.0670 C.2   156  LEU156      0.2260
    137  O         49.1620   54.6010   55.0110 O.2   156  LEU156     -0.2867
    138  CB        46.3370   56.3170   54.3920 C.3   156  LEU156      0.0270
    139  CG        44.8570   56.3070   54.8090 C.3   156  LEU156      0.0019
    140  CD1       44.2840   57.7270   54.7890 C.3   156  LEU156      0.0001
    141  CD2       44.0020   55.3830   53.9330 C.3   156  LEU156      0.0001
    142  N         43.9120   54.9080   59.4720 N.3   170  ALA170     -0.1231
    143  CA        42.7380   55.7810   59.3740 C.3   170  ALA170      0.1694
    144  C         41.4110   55.0320   59.4930 C.2   170  ALA170      0.2592
    145  O         41.3780   53.8060   59.5980 O.2   170  ALA170     -0.2718
    146  CB        42.7870   56.5490   58.0590 C.3   170  ALA170      0.0304
    147  N         40.3270   55.8060   59.5080 N.am  171  ASP171     -0.1974
    148  CA        38.9540   55.3000   59.5570 C.3   171  ASP171      0.1709
    149  C         38.7240   54.2770   60.6860 C.2   171  ASP171      0.2293
    150  O         37.9810   53.3050   60.5140 O.2   171  ASP171     -0.2864
    151  CB        38.5390   54.7390   58.1810 C.3   171  ASP171      0.1436
    152  CG        37.0280   54.8420   57.9160 C.2   171  ASP171      0.3671
    153  OD1       36.3140   55.5960   58.6240 O.co2 171  ASP171     -0.2456
    154  OD2       36.5500   54.1700   56.9770 O.co2 171  ASP171     -0.2456
    155  N         45.4760   60.0700   43.2160 N.3   339  ARG339     -0.1231
    156  CA        44.0700   59.7050   43.3660 C.3   339  ARG339      0.1694
    157  C         43.1920   60.3510   42.3140 C.2   339  ARG339      0.2591
    158  O         43.5290   61.3820   41.7410 O.2   339  ARG339     -0.2718
    159  CB        43.5350   60.0780   44.7430 C.3   339  ARG339      0.0321
    160  CG        44.2320   59.3700   45.8690 C.3   339  ARG339      0.0489
    161  CD        43.4830   59.5420   47.1720 C.3   339  ARG339      0.2205
    162  NE        44.1950   58.9360   48.2950 N.pl3 339  ARG339     -0.0865
    163  CZ        43.9810   57.7200   48.8010 C.cat 339  ARG339      0.5346
    164  NH1       43.0520   56.9070   48.3040 N.pl3 339  ARG339      0.1354
    165  NH2       44.7140   57.3100   49.8270 N.pl3 339  ARG339      0.1354
    166  N         42.0300   59.7420   42.1390 N.am  340  GLU340     -0.1979
    167  CA        41.0830   60.0610   41.0850 C.3   340  GLU340      0.1602
    168  C         39.9630   60.9250   41.6820 C.2   340  GLU340      0.2287
    169  O         39.5340   60.6900   42.8120 O.2   340  GLU340     -0.2864
    170  CB        40.5340   58.7580   40.4530 C.3   340  GLU340      0.0415
    171  CG        40.0570   57.6300   41.4390 C.3   340  GLU340      0.1163
    172  CD        41.1850   56.7020   41.9600 C.2   340  GLU340      0.3649
    173  OE1       42.3580   57.1380   42.0300 O.co2 340  GLU340     -0.2457
    174  OE2       40.8920   55.5390   42.3230 O.co2 340  GLU340     -0.2457
    175  N         36.1570   62.2100   42.0060 N.3   342  LEU342     -0.1245
    176  CA        34.7850   61.7000   41.8400 C.3   342  LEU342      0.1561
    177  C         33.7870   62.8550   41.6450 C.2   342  LEU342      0.2260
    178  O         34.1540   64.0320   41.7480 O.2   342  LEU342     -0.2867
    179  CB        34.3850   60.8400   43.0540 C.3   342  LEU342      0.0270
    180  CG        34.9950   59.4340   43.1850 C.3   342  LEU342      0.0019
    181  CD1       36.5110   59.4510   43.3280 C.3   342  LEU342      0.0001
    182  CD2       34.3700   58.7000   44.3700 C.3   342  LEU342      0.0001
@<TRIPOS>BOND
     1   170   167    1
     2   170   171    1
     3   167   168    1
     4   167   166    1
     5   171   172    1
     6   177   178    2
     7   177   176    1
     8   168   169    2
     9   158   157    2
    10   176   175    1
    11   176   179    1
    12   172   173   ar
    13   172   174   ar
    14   166   157   am
    15   157   156    1
    16   179   180    1
    17   180   181    1
    18   180   182    1
    19   155   156    1
    20   156   159    1
    21   114   113    2
    22   110   109   ar
    23   110   108   ar
    24   118   120   ar
    25   118   116   ar
    26   109   107   ar
    27   120   119   ar
    28   159   160    1
    29   108   106   ar
    30   113   112    1
    31   116   115    1
    32   116   117   ar
    33   115   112    1
    34   112   111    1
    35   107   104   ar
    36   160   161    1
    37   119   117   ar
    38     7     5    1
    39   106   104   ar
    40   106   105   ar
    41   100    99    2
    42     2     1    1
    43     2     5    1
    44     2     3    1
    45   104   102   ar
    46     4     3    2
    47    83    82    1
    48     5     6    1
    49   111    99   am
    50     3     8   am
    51    99    98    1
    52   161   162    1
    53   105   103   ar
    54    82    81   ar
    55    82    80   ar
    56   102   103   ar
    57   102   101    1
    58     8     9    1
    59    81    79   ar
    60   162   163    2
    61   164   163    1
    62    98   101    1
    63    98    97    1
    64     9    10    1
    65   163   165    1
    66    92    91    2
    67    80    78   ar
    68    10    11    2
    69    95    94   ar
    70    27    26    2
    71    96    94   ar
    72    79    77   ar
    73    89    90    1
    74    94    93    1
    75    91    90    1
    76    78    77   ar
    77    77    76    1
    78    26    25    1
    79    87    86    2
    80    90    93    1
    81    86    85    1
    82    23    22    1
    83    24    25    1
    84    25    28    1
    85    76    73    1
    86    28    29    1
    87    28    30    1
    88   125   122    1
    89    85    84    1
    90    85    88    1
    91   122   121    1
    92   122   123    1
    93    22    20   ar
    94    22    21   ar
    95    84    74   am
    96    75    74    2
    97    74    73    1
    98    73    72    1
    99    20    18   ar
   100   124   123    2
   101    21    19   ar
   102   123   126   am
   103    32    31    1
   104    32    35    1
   105    32    33    1
   106    72    66   am
   107   141   139    1
   108   135   136    1
   109   135   138    1
   110   135   134    1
   111   136   137    2
   112    18    17   ar
   113    33    34    2
   114   138   139    1
   115    19    17   ar
   116   126   127    1
   117   140   139    1
   118    17    16    1
   119    66    67    2
   120    66    65    1
   121    36    37    1
   122   127   128    1
   123   127   130    1
   124    37    38    1
   125    37    40    1
   126    12    13    1
   127    56    55    2
   128    14    13    1
   129    14    15    2
   130    38    39    2
   131   128   129    2
   132    65    68    1
   133    65    64    1
   134    16    13    1
   135    70    69   ar
   136   130   131    1
   137    40    41    1
   138    68    69    1
   139    41    42    1
   140   154   152   ar
   141    55    64   am
   142    55    54    1
   143    69    71   ar
   144   131   133   am
   145   131   132    2
   146    52    50    1
   147    57    54    1
   148    57    58    1
   149    53    54    1
   150   152   151    1
   151   152   153   ar
   152   146   143    1
   153    42    43    1
   154    43    44    1
   155    59    58   ar
   156    59    61   ar
   157   151   148    1
   158    58    60   ar
   159    61    63   ar
   160    50    49    1
   161   143   142    1
   162   143   144    1
   163   144   147   am
   164   144   145    2
   165   147   148    1
   166   148   149    1
   167    60    62   ar
   168    49    51    1
   169    49    46    1
   170    63    62   ar
   171   150   149    2
   172    46    45    1
   173    46    47    1
   174    47    48    2
