@<TRIPOS>MOLECULE
tmp/5i60B01.pdb
 138 132 0 0 0
SMALL
GASTEIGER

@<TRIPOS>ATOM
      1  N         28.1570   33.1620   33.3090 N.3    22  PHE22      -0.1241
      2  CA        27.1630   33.8990   34.1040 C.3    22  PHE22       0.1605
      3  C         25.7460   33.3490   33.9360 C.2    22  PHE22       0.2264
      4  O         25.3400   32.9840   32.8270 O.2    22  PHE22      -0.2867
      5  CB        27.1820   35.3870   33.7300 C.3    22  PHE22       0.0534
      6  CG        25.8780   36.1030   33.9640 C.ar   22  PHE22      -0.0203
      7  CD1       25.5200   36.5360   35.2280 C.ar   22  PHE22      -0.0042
      8  CD2       25.0180   36.3500   32.9160 C.ar   22  PHE22      -0.0042
      9  CE1       24.3290   37.2020   35.4460 C.ar   22  PHE22      -0.0003
     10  CE2       23.8300   37.0140   33.1210 C.ar   22  PHE22      -0.0003
     11  CZ        23.4770   37.4420   34.3870 C.ar   22  PHE22      -0.0000
     12  N         12.1040   42.4130   36.5010 N.3    67  PHE67      -0.1241
     13  CA        13.2190   41.8910   37.2720 C.3    67  PHE67       0.1605
     14  C         14.1420   42.9800   37.7720 C.2    67  PHE67       0.2264
     15  O         14.0160   44.1590   37.4030 O.2    67  PHE67      -0.2867
     16  CB        14.0260   40.8450   36.4820 C.3    67  PHE67       0.0534
     17  CG        14.7720   41.4040   35.2840 C.ar   67  PHE67      -0.0203
     18  CD1       14.0940   41.7260   34.1070 C.ar   67  PHE67      -0.0042
     19  CD2       16.1460   41.5740   35.3210 C.ar   67  PHE67      -0.0042
     20  CE1       14.7700   42.2270   33.0030 C.ar   67  PHE67      -0.0003
     21  CE2       16.8290   42.0760   34.2270 C.ar   67  PHE67      -0.0003
     22  CZ        16.1380   42.4110   33.0630 C.ar   67  PHE67      -0.0000
     23  N         24.3910   43.1680   42.9210 N.3    71  LYS71      -0.1245
     24  CA        25.4760   42.3010   43.3310 C.3    71  LYS71       0.1561
     25  C         25.8100   42.4360   44.8130 C.2    71  LYS71       0.2260
     26  O         25.6640   43.5030   45.4050 O.2    71  LYS71      -0.2867
     27  CB        26.7160   42.5500   42.4890 C.3    71  LYS71       0.0271
     28  CG        26.7360   41.8370   41.1540 C.3    71  LYS71       0.0035
     29  CD        27.9900   42.2170   40.3720 C.3    71  LYS71       0.0206
     30  CE        28.1250   41.4120   39.0820 C.3    71  LYS71       0.1093
     31  NZ        29.3270   41.7630   38.2760 N.3    71  LYS71      -0.1314
     32  N         37.4950   39.9840   41.8050 N.3   129  GLY129     -0.1225
     33  CA        36.5410   40.2220   40.7310 C.3   129  GLY129      0.1811
     34  C         35.2270   39.4640   40.8070 C.2   129  GLY129      0.2280
     35  O         34.3960   39.6150   39.9180 O.2   129  GLY129     -0.2866
     36  N         25.4170   37.3390   42.1930 N.3   133  TYR133     -0.1241
     37  CA        24.3810   38.0770   41.4540 C.3   133  TYR133      0.1605
     38  C         23.0090   37.7210   42.0350 C.2   133  TYR133      0.2264
     39  O         22.6720   36.5480   42.2110 O.2   133  TYR133     -0.2867
     40  CB        24.4850   37.7800   39.9530 C.3   133  TYR133      0.0534
     41  CG        23.5360   38.6090   39.0920 C.ar  133  TYR133     -0.0201
     42  CD1       23.8730   39.8970   38.7020 C.ar  133  TYR133     -0.0009
     43  CD2       22.3080   38.1030   38.6900 C.ar  133  TYR133     -0.0009
     44  CE1       23.0210   40.6640   37.9200 C.ar  133  TYR133      0.0417
     45  CE2       21.4290   38.8630   37.9080 C.ar  133  TYR133      0.0417
     46  CZ        21.7880   40.1420   37.5230 C.ar  133  TYR133      0.1957
     47  OH        20.9480   40.8960   36.7450 O.3   133  TYR133     -0.2866
     48  N         18.9540   38.1730   41.7330 N.3   135  ARG135     -0.1245
     49  CA        17.9170   38.3630   40.6910 C.3   135  ARG135      0.1563
     50  C         16.5240   38.2070   41.2790 C.2   135  ARG135      0.2260
     51  O         15.9960   37.0980   41.3610 O.2   135  ARG135     -0.2867
     52  CB        18.1470   37.3850   39.5290 C.3   135  ARG135      0.0307
     53  CG        17.0000   37.2240   38.5190 C.3   135  ARG135      0.0489
     54  CD        16.6090   38.5550   37.8870 C.3   135  ARG135      0.2205
     55  NE        17.7220   39.1590   37.1540 N.pl3 135  ARG135     -0.0865
     56  CZ        18.0540   38.9240   35.8830 C.cat 135  ARG135      0.5346
     57  NH1       17.3610   38.0980   35.1250 N.pl3 135  ARG135      0.1354
     58  NH2       19.0930   39.5380   35.3450 N.pl3 135  ARG135      0.1354
     59  N         28.9970   34.5370   40.5970 N.3   162  VAL162     -0.1231
     60  CA        29.6520   34.8440   39.3350 C.3   162  VAL162      0.1692
     61  C         31.1350   35.1450   39.5300 C.2   162  VAL162      0.2593
     62  O         31.5310   35.7130   40.5410 O.2   162  VAL162     -0.2718
     63  CB        28.9420   36.0110   38.6080 C.3   162  VAL162      0.0266
     64  CG1       27.4670   35.6910   38.4010 C.3   162  VAL162      0.0020
     65  CG2       29.0530   37.3090   39.3840 C.3   162  VAL162      0.0020
     66  N         31.9360   34.7650   38.5420 N.am  163  GLY163     -0.1942
     67  CA        33.3790   35.0080   38.5360 C.3   163  GLY163      0.2014
     68  C         33.7130   36.3910   38.0220 C.2   163  GLY163      0.2639
     69  O         32.8380   37.2420   37.9150 O.2   163  GLY163     -0.2714
     70  N         34.9870   36.6110   37.7050 N.am  164  ALA164     -0.1963
     71  CA        35.4650   37.9230   37.2600 C.3   164  ALA164      0.1728
     72  C         34.9600   38.2370   35.8580 C.2   164  ALA164      0.2616
     73  O         35.0840   37.4070   34.9640 O.2   164  ALA164     -0.2715
     74  CB        36.9840   37.9720   37.2960 C.3   164  ALA164      0.0334
     75  N         34.3940   39.4260   35.6630 N.am  165  TYR165     -0.1974
     76  CA        33.8480   39.7830   34.3550 C.3   165  TYR165      0.1639
     77  C         34.9830   39.9060   33.3360 C.2   165  TYR165      0.2290
     78  O         34.8800   39.3850   32.2170 O.2   165  TYR165     -0.2864
     79  CB        33.0040   41.0650   34.3940 C.3   165  TYR165      0.0560
     80  CG        32.3470   41.3580   33.0500 C.ar  165  TYR165     -0.0198
     81  CD1       33.0260   42.0720   32.0630 C.ar  165  TYR165     -0.0009
     82  CD2       31.0670   40.8800   32.7500 C.ar  165  TYR165     -0.0009
     83  CE1       32.4490   42.3250   30.8300 C.ar  165  TYR165      0.0417
     84  CE2       30.4790   41.1290   31.5180 C.ar  165  TYR165      0.0417
     85  CZ        31.1760   41.8580   30.5630 C.ar  165  TYR165      0.1957
     86  OH        30.6150   42.1180   29.3320 O.3   165  TYR165     -0.2866
     87  N         12.6310   48.1750   34.1180 N.3   194  LYS194     -0.1245
     88  CA        13.3380   46.9060   33.8810 C.3   194  LYS194      0.1561
     89  C         12.3510   45.7720   33.6900 C.2   194  LYS194      0.2260
     90  O         12.2500   44.8560   34.5170 O.2   194  LYS194     -0.2867
     91  CB        14.3500   46.6120   35.0250 C.3   194  LYS194      0.0271
     92  CG        15.6450   45.9430   34.5480 C.3   194  LYS194      0.0035
     93  CD        16.8080   46.1480   35.5380 C.3   194  LYS194      0.0206
     94  CE        18.1320   45.5320   35.0620 C.3   194  LYS194      0.1093
     95  NZ        18.9260   46.3890   34.1210 N.3   194  LYS194     -0.1314
     96  N         13.7680   43.2300   26.7250 N.3   199  TYR199     -0.1241
     97  CA        14.9960   42.4630   26.4430 C.3   199  TYR199      0.1605
     98  C         14.8460   41.4220   25.3250 C.2   199  TYR199      0.2264
     99  O         15.7080   41.3130   24.4520 O.2   199  TYR199     -0.2867
    100  CB        15.5800   41.8770   27.7630 C.3   199  TYR199      0.0534
    101  CG        15.8470   43.0360   28.6870 C.ar  199  TYR199     -0.0201
    102  CD1       17.0470   43.7350   28.6250 C.ar  199  TYR199     -0.0009
    103  CD2       14.8430   43.5270   29.5200 C.ar  199  TYR199     -0.0009
    104  CE1       17.2570   44.8660   29.3980 C.ar  199  TYR199      0.0417
    105  CE2       15.0450   44.6470   30.3050 C.ar  199  TYR199      0.0417
    106  CZ        16.2510   45.3110   30.2430 C.ar  199  TYR199      0.1957
    107  OH        16.4100   46.4610   30.9960 O.3   199  TYR199     -0.2866
    108  N         23.1150   46.2680   27.4320 N.3   232  THR232     -0.1203
    109  CA        22.2860   46.4830   28.6170 C.3   232  THR232      0.1994
    110  C         22.9890   47.3920   29.6400 C.2   232  THR232      0.2617
    111  O         22.7900   47.2500   30.8550 O.2   232  THR232     -0.2717
    112  CB        21.9290   45.1520   29.2980 C.3   232  THR232      0.1784
    113  OG1       23.1380   44.5330   29.7270 O.3   232  THR232     -0.2211
    114  CG2       21.1350   44.2150   28.3470 C.3   232  THR232      0.0376
    115  N         23.8080   48.3070   29.1260 N.am  233  MET233     -0.1979
    116  CA        24.5640   49.2640   29.9180 C.3   233  MET233      0.1605
    117  C         24.2370   50.7080   29.5330 C.2   233  MET233      0.2287
    118  O         23.8960   50.9750   28.3940 O.2   233  MET233     -0.2864
    119  CB        26.0590   49.0480   29.6490 C.3   233  MET233      0.0413
    120  CG        26.5810   47.6760   30.0500 C.3   233  MET233      0.0598
    121  SD        28.3700   47.6060   29.8740 S.3   233  MET233     -0.1393
    122  CE        28.5300   47.4960   28.0920 C.3   233  MET233      0.0692
    123  N         27.2540   49.4270   34.0690 N.3   304  GLY304     -0.1210
    124  CA        26.1990   48.4960   34.4530 C.3   304  GLY304      0.1956
    125  C         26.6960   47.5220   35.5040 C.2   304  GLY304      0.2613
    126  O         27.8970   47.4000   35.7120 O.2   304  GLY304     -0.2717
    127  N         25.7780   46.8100   36.1540 N.am  305  THR305     -0.1938
    128  CA        26.1450   45.8660   37.2180 C.3   305  THR305      0.2028
    129  C         27.0510   44.7210   36.7350 C.2   305  THR305      0.2642
    130  O         27.8450   44.2000   37.5160 O.2   305  THR305     -0.2714
    131  CB        24.8800   45.3130   37.8890 C.3   305  THR305      0.1808
    132  OG1       24.1920   46.3970   38.5180 O.3   305  THR305     -0.2208
    133  CG2       25.2010   44.2480   38.9250 C.3   305  THR305      0.0379
    134  N         26.9460   44.3390   35.4590 N.am  306  ALA306     -0.1977
    135  CA        27.7680   43.2570   34.9160 C.3   306  ALA306      0.1597
    136  C         29.2600   43.5420   35.0190 C.2   306  ALA306      0.2287
    137  O         29.9990   42.8090   35.7000 O.2   306  ALA306     -0.2864
    138  CB        27.4020   42.9680   33.4660 C.3   306  ALA306      0.0319
@<TRIPOS>BOND
     1    99    98    2
     2    98    97    1
     3    97    96    1
     4    97   100    1
     5   108   109    1
     6   100   101    1
     7   122   121    1
     8   114   112    1
     9   118   117    2
    10   109   112    1
    11   109   110    1
    12   102   101   ar
    13   102   104   ar
    14   101   103   ar
    15   115   110   am
    16   115   116    1
    17   112   113    1
    18    86    85    1
    19   104   106   ar
    20   103   105   ar
    21   117   116    1
    22   110   111    2
    23   119   116    1
    24   119   120    1
    25   121   120    1
    26   106   105   ar
    27   106   107    1
    28    85    83   ar
    29    85    84   ar
    30    83    81   ar
    31    84    82   ar
    32    81    80   ar
    33    78    77    2
    34    82    80   ar
    35     4     3    2
    36     8    10   ar
    37     8     6   ar
    38    20    22   ar
    39    20    18   ar
    40    80    79    1
    41    22    21   ar
    42    10    11   ar
    43     1     2    1
    44    77    76    1
    45   138   135    1
    46    89    88    1
    47    89    90    2
    48     5     6    1
    49     5     2    1
    50    88    87    1
    51    88    91    1
    52     3     2    1
    53     6     7   ar
    54   123   124    1
    55    18    17   ar
    56    95    94    1
    57    21    19   ar
    58    76    79    1
    59    76    75    1
    60    11     9   ar
    61   124   125    1
    62    92    91    1
    63    92    93    1
    64   135   136    1
    65   135   134    1
    66    73    72    2
    67   136   137    2
    68    94    93    1
    69    57    56    1
    70     7     9   ar
    71    17    19   ar
    72    17    16    1
    73    58    56    1
    74   134   129   am
    75   125   126    2
    76   125   127   am
    77    75    72   am
    78    72    71    1
    79    56    55    2
    80   127   128    1
    81    16    13    1
    82    12    13    1
    83   129   128    1
    84   129   130    2
    85    47    46    1
    86    55    54    1
    87   128   131    1
    88    71    74    1
    89    71    70    1
    90    13    14    1
    91    15    14    2
    92    46    45   ar
    93    46    44   ar
    94    70    68   am
    95    54    53    1
    96   131   132    1
    97   131   133    1
    98    45    43   ar
    99    69    68    2
   100    44    42   ar
   101    68    67    1
   102    31    30    1
   103    64    63    1
   104    53    52    1
   105    67    66    1
   106    66    61   am
   107    63    60    1
   108    63    65    1
   109    43    41   ar
   110    42    41   ar
   111    30    29    1
   112    41    40    1
   113    60    61    1
   114    60    59    1
   115    52    49    1
   116    61    62    2
   117    35    34    2
   118    40    37    1
   119    29    28    1
   120    49    50    1
   121    49    48    1
   122    33    34    1
   123    33    32    1
   124    28    27    1
   125    50    51    2
   126    37    38    1
   127    37    36    1
   128    38    39    2
   129    27    24    1
   130    23    24    1
   131    24    25    1
   132    25    26    2
