@<TRIPOS>MOLECULE
tmp/5i6cA01.pdb
 199 183 0 0 0
SMALL
GASTEIGER

@<TRIPOS>ATOM
      1  N        -66.7890  -32.1040   -5.2330 N.3   153  PHE153     -0.1241
      2  CA       -65.8320  -31.8240   -4.1730 C.3   153  PHE153      0.1605
      3  C        -66.0500  -32.7140   -2.9610 C.2   153  PHE153      0.2264
      4  O        -66.4380  -32.2340   -1.8980 O.2   153  PHE153     -0.2867
      5  CB       -65.9400  -30.3590   -3.7720 C.3   153  PHE153      0.0534
      6  CG       -65.8570  -29.4200   -4.9360 C.ar  153  PHE153     -0.0203
      7  CD1      -66.9910  -28.7870   -5.4150 C.ar  153  PHE153     -0.0042
      8  CD2      -64.6520  -29.2190   -5.5970 C.ar  153  PHE153     -0.0042
      9  CE1      -66.9170  -27.9320   -6.5080 C.ar  153  PHE153     -0.0003
     10  CE2      -64.5670  -28.3660   -6.6860 C.ar  153  PHE153     -0.0003
     11  CZ       -65.7000  -27.7230   -7.1450 C.ar  153  PHE153     -0.0000
     12  N        -61.1710  -34.3740   -1.7460 N.3   157  VAL157     -0.1231
     13  CA       -60.7650  -33.1460   -2.4180 C.3   157  VAL157      0.1692
     14  C        -60.9620  -31.9870   -1.4730 C.2   157  VAL157      0.2592
     15  O        -60.1100  -31.1270   -1.3200 O.2   157  VAL157     -0.2718
     16  CB       -61.5690  -32.8980   -3.6990 C.3   157  VAL157      0.0266
     17  CG1      -61.3720  -31.4730   -4.1840 C.3   157  VAL157      0.0020
     18  CG2      -61.1880  -33.9020   -4.7660 C.3   157  VAL157      0.0020
     19  N        -62.1080  -31.9920   -0.8230 N.am  158  THR158     -0.1953
     20  CA       -62.4700  -30.9320    0.0840 C.3   158  THR158      0.1897
     21  C        -61.4440  -30.7740    1.2020 C.2   158  THR158      0.2313
     22  O        -60.8190  -29.7280    1.3200 O.2   158  THR158     -0.2863
     23  CB       -63.8760  -31.1810    0.6780 C.3   158  THR158      0.1794
     24  OG1      -64.8450  -31.2280   -0.3850 O.3   158  THR158     -0.2208
     25  CG2      -64.2460  -30.0600    1.5910 C.3   158  THR158      0.0378
     26  N        -57.5820  -29.2150    0.6240 N.3   161  THR161     -0.1203
     27  CA       -57.6850  -27.8070    0.2670 C.3   161  THR161      0.1994
     28  C        -57.8620  -26.9450    1.4970 C.2   161  THR161      0.2617
     29  O        -57.1350  -25.9720    1.6880 O.2   161  THR161     -0.2717
     30  CB       -58.8440  -27.5610   -0.6900 C.3   161  THR161      0.1784
     31  OG1      -58.5830  -28.2540   -1.9110 O.3   161  THR161     -0.2211
     32  CG2      -58.9710  -26.0940   -0.9910 C.3   161  THR161      0.0376
     33  N        -58.8360  -27.2930    2.3250 N.am  162  VAL162     -0.1979
     34  CA       -59.0650  -26.5580    3.5580 C.3   162  VAL162      0.1595
     35  C        -57.8420  -26.6180    4.4740 C.2   162  VAL162      0.2287
     36  O        -57.4540  -25.6010    5.0740 O.2   162  VAL162     -0.2864
     37  CB       -60.2790  -27.0950    4.3180 C.3   162  VAL162      0.0276
     38  CG1      -60.5470  -26.2450    5.5550 C.3   162  VAL162      0.0022
     39  CG2      -61.4770  -27.1140    3.4090 C.3   162  VAL162      0.0022
     40  N        -55.2780  -24.2600    3.1390 N.3   165  ILE165     -0.1245
     41  CA       -55.6840  -22.8830    3.3580 C.3   165  ILE165      0.1561
     42  C        -55.2460  -22.5060    4.7590 C.2   165  ILE165      0.2260
     43  O        -54.5080  -21.5360    4.9510 O.2   165  ILE165     -0.2867
     44  CB       -57.1980  -22.6580    3.1850 C.3   165  ILE165      0.0252
     45  CG1      -57.5680  -22.7390    1.7100 C.3   165  ILE165      0.0019
     46  CG2      -57.5800  -21.2770    3.6580 C.3   165  ILE165      0.0019
     47  CD1      -59.0210  -22.5460    1.4200 C.3   165  ILE165      0.0001
     48  N        -60.1620  -15.5010  -11.7260 N.3   279  LEU279     -0.1245
     49  CA       -60.3120  -16.9330  -11.5100 C.3   279  LEU279      0.1561
     50  C        -60.0750  -17.3350  -10.0390 C.2   279  LEU279      0.2260
     51  O        -60.8640  -18.1050   -9.4890 O.2   279  LEU279     -0.2867
     52  CB       -59.3910  -17.7130  -12.4520 C.3   279  LEU279      0.0270
     53  CG       -59.3080  -19.2160  -12.1960 C.3   279  LEU279      0.0019
     54  CD1      -60.6620  -19.8550  -12.4350 C.3   279  LEU279      0.0001
     55  CD2      -58.2510  -19.8660  -13.0700 C.3   279  LEU279      0.0001
     56  N        -62.6690  -19.2970   -7.5240 N.3   283  ALA283     -0.1245
     57  CA       -62.2640  -20.3560   -6.6120 C.3   283  ALA283      0.1562
     58  C        -62.7240  -20.0460   -5.1870 C.2   283  ALA283      0.2260
     59  O        -63.2510  -20.9200   -4.4930 O.2   283  ALA283     -0.2867
     60  CB       -60.7630  -20.5540   -6.6530 C.3   283  ALA283      0.0290
     61  N        -66.4380  -20.6960   -5.0230 N.3   286  ILE286     -0.1231
     62  CA       -66.7170  -22.1290   -5.0020 C.3   286  ILE286      0.1692
     63  C        -66.5010  -22.6670   -3.5930 C.2   286  ILE286      0.2591
     64  O        -67.3410  -23.4030   -3.0530 O.2   286  ILE286     -0.2718
     65  CB       -65.8510  -22.9050   -5.9990 C.3   286  ILE286      0.0266
     66  CG1      -66.3320  -22.6330   -7.4240 C.3   286  ILE286      0.0019
     67  CG2      -65.9520  -24.3860   -5.7390 C.3   286  ILE286      0.0020
     68  CD1      -65.4500  -23.2310   -8.4890 C.3   286  ILE286      0.0001
     69  N        -65.3760  -22.2830   -3.0020 N.am  287  ILE287     -0.1980
     70  CA       -65.1000  -22.5970   -1.6060 C.3   287  ILE287      0.1595
     71  C        -66.2700  -22.2010   -0.7130 C.2   287  ILE287      0.2287
     72  O        -66.7490  -22.9940    0.0850 O.2   287  ILE287     -0.2864
     73  CB       -63.8350  -21.8900   -1.1060 C.3   287  ILE287      0.0276
     74  CG1      -62.6070  -22.4880   -1.7730 C.3   287  ILE287      0.0022
     75  CG2      -63.7160  -22.0010    0.4100 C.3   287  ILE287      0.0022
     76  CD1      -61.3590  -21.7310   -1.4770 C.3   287  ILE287      0.0001
     77  N        -69.5650  -24.4070   -1.3000 N.3   290  CYS290     -0.1221
     78  CA       -69.4540  -25.7050   -0.6260 C.3   290  CYS290      0.1808
     79  C        -69.4930  -25.5270    0.8790 C.2   290  CYS290      0.2601
     80  O        -70.0880  -26.3200    1.6130 O.2   290  CYS290     -0.2717
     81  CB       -68.1790  -26.4350   -1.0360 C.3   290  CYS290      0.0970
     82  SG       -68.0940  -26.7790   -2.7920 S.3   290  CYS290     -0.0800
     83  N        -68.7970  -24.5010    1.3310 N.am  291  GLU291     -0.1979
     84  CA       -68.7670  -24.1480    2.7270 C.3   291  GLU291      0.1602
     85  C        -70.1550  -23.8790    3.2640 C.2   291  GLU291      0.2287
     86  O        -70.5090  -24.3400    4.3400 O.2   291  GLU291     -0.2864
     87  CB       -67.8960  -22.9410    2.9310 C.3   291  GLU291      0.0415
     88  CG       -67.7250  -22.6050    4.3540 C.3   291  GLU291      0.1163
     89  CD       -66.7210  -21.5150    4.5120 C.2   291  GLU291      0.3649
     90  OE1      -66.1910  -21.0360    3.4800 O.co2 291  GLU291     -0.2457
     91  OE2      -66.4190  -21.1840    5.6690 O.co2 291  GLU291     -0.2457
     92  N        -72.9930  -25.0010    1.9870 N.3   293  ILE293     -0.1231
     93  CA       -73.6890  -26.2800    1.9870 C.3   293  ILE293      0.1692
     94  C        -73.4000  -27.0780    3.2510 C.2   293  ILE293      0.2593
     95  O        -74.3140  -27.4320    3.9990 O.2   293  ILE293     -0.2718
     96  CB       -73.2960  -27.1090    0.7610 C.3   293  ILE293      0.0266
     97  CG1      -73.8060  -26.4260   -0.5060 C.3   293  ILE293      0.0019
     98  CG2      -73.8700  -28.4960    0.8570 C.3   293  ILE293      0.0020
     99  CD1      -73.1660  -26.9280   -1.7720 C.3   293  ILE293      0.0001
    100  N        -72.1220  -27.3010    3.5230 N.am  294  GLY294     -0.1942
    101  CA       -71.7220  -28.0700    4.6870 C.3   294  GLY294      0.2014
    102  C        -72.1150  -27.4420    6.0140 C.2   294  GLY294      0.2638
    103  O        -72.5850  -28.1370    6.9210 O.2   294  GLY294     -0.2714
    104  N        -71.9090  -26.1300    6.1320 N.am  295  ASP295     -0.1971
    105  CA       -72.2140  -25.3880    7.3590 C.3   295  ASP295      0.1709
    106  C        -73.7060  -25.4130    7.6740 C.2   295  ASP295      0.2293
    107  O        -74.1150  -25.6640    8.8160 O.2   295  ASP295     -0.2864
    108  CB       -71.7110  -23.9370    7.2610 C.3   295  ASP295      0.1436
    109  CG       -70.1730  -23.8250    7.3600 C.2   295  ASP295      0.3671
    110  OD1      -69.5180  -24.7820    7.8350 O.co2 295  ASP295     -0.2456
    111  OD2      -69.6100  -22.7750    6.9710 O.co2 295  ASP295     -0.2456
    112  N        -74.8840  -28.8490    8.6640 N.3   298  ALA298     -0.1245
    113  CA       -74.4890  -28.9970   10.0510 C.3   298  ALA298      0.1562
    114  C        -75.5270  -28.3530   10.9600 C.2   298  ALA298      0.2260
    115  O        -75.9680  -28.9620   11.9380 O.2   298  ALA298     -0.2867
    116  CB       -73.1160  -28.3800   10.2860 C.3   298  ALA298      0.0290
    117  N        -69.2360  -21.1260   10.9090 N.3   342  ALA342     -0.1245
    118  CA       -69.5660  -22.4600   11.3920 C.3   342  ALA342      0.1562
    119  C        -69.3870  -22.6660   12.9000 C.2   342  ALA342      0.2260
    120  O        -69.6490  -23.7550   13.4020 O.2   342  ALA342     -0.2867
    121  CB       -68.7480  -23.4800   10.6340 C.3   342  ALA342      0.0290
    122  N        -72.9390  -23.4410   15.2180 N.3   345  ASN345     -0.1240
    123  CA       -73.5710  -24.7440   15.3030 C.3   345  ASN345      0.1653
    124  C        -73.2090  -25.4090   16.6100 C.2   345  ASN345      0.2266
    125  O        -73.9590  -26.2220   17.1330 O.2   345  ASN345     -0.2867
    126  CB       -73.1710  -25.6160   14.1170 C.3   345  ASN345      0.1155
    127  CG       -73.7110  -25.0850   12.8040 C.2   345  ASN345      0.2627
    128  OD1      -74.7130  -24.3750   12.7800 O.2   345  ASN345     -0.2716
    129  ND2      -73.0530  -25.4280   11.7060 N.am  345  ASN345     -0.0877
    130  N        -59.8620  -28.6580   11.1240 N.3   401  SER401     -0.1217
    131  CA       -61.2040  -28.8490   10.5980 C.3   401  SER401      0.1889
    132  C        -61.1540  -29.4170    9.1810 C.2   401  SER401      0.2288
    133  O        -61.9350  -30.3020    8.8310 O.2   401  SER401     -0.2866
    134  CB       -61.9910  -27.5350   10.6220 C.3   401  SER401      0.2089
    135  OG       -63.3810  -27.7530   10.8420 O.3   401  SER401     -0.2183
    136  N        -62.7040  -32.9640    7.8330 N.3   405  ILE405     -0.1245
    137  CA       -63.3400  -33.1490    6.5310 C.3   405  ILE405      0.1561
    138  C        -62.7290  -34.3270    5.7880 C.2   405  ILE405      0.2260
    139  O        -63.4500  -35.1380    5.2070 O.2   405  ILE405     -0.2867
    140  CB       -63.2020  -31.9170    5.6190 C.3   405  ILE405      0.0252
    141  CG1      -63.7490  -30.6500    6.2870 C.3   405  ILE405      0.0019
    142  CG2      -63.8910  -32.1830    4.2890 C.3   405  ILE405      0.0019
    143  CD1      -63.3290  -29.3610    5.5810 C.3   405  ILE405      0.0001
    144  N        -63.5760  -38.2820    6.4220 N.3   408  LYS408     -0.1245
    145  CA       -64.8820  -38.7880    6.0000 C.3   408  LYS408      0.1561
    146  C        -64.7630  -39.8680    4.9230 C.2   408  LYS408      0.2260
    147  O        -65.6580  -40.6920    4.7490 O.2   408  LYS408     -0.2867
    148  CB       -65.7500  -37.6340    5.4890 C.3   408  LYS408      0.0271
    149  CG       -66.1420  -36.6180    6.5570 C.3   408  LYS408      0.0035
    150  CD       -66.9380  -35.4680    5.9540 C.3   408  LYS408      0.0206
    151  CE       -67.2990  -34.4100    6.9970 C.3   408  LYS408      0.1093
    152  NZ       -68.0760  -33.2890    6.3910 N.3   408  LYS408     -0.1314
    153  N        -52.7360  -17.9450   -9.6210 N.3   458  VAL458     -0.1245
    154  CA       -53.3150  -19.2120   -9.1660 C.3   458  VAL458      0.1561
    155  C        -52.2110  -20.1480   -8.6910 C.2   458  VAL458      0.2260
    156  O        -52.3110  -20.7620   -7.6250 O.2   458  VAL458     -0.2867
    157  CB       -54.1320  -19.9130  -10.2630 C.3   458  VAL458      0.0252
    158  CG1      -54.5130  -21.3160   -9.8180 C.3   458  VAL458      0.0019
    159  CG2      -55.3840  -19.1130  -10.5840 C.3   458  VAL458      0.0019
    160  N        -53.6770  -23.6710   -1.9590 N.3   463  PHE463     -0.1227
    161  CA       -54.8270  -24.5680   -1.9170 C.3   463  PHE463      0.1736
    162  C        -55.4250  -24.8530   -3.2900 C.2   463  PHE463      0.2595
    163  O        -55.9370  -25.9350   -3.5170 O.2   463  PHE463     -0.2718
    164  CB       -55.9150  -24.0070   -0.9940 C.3   463  PHE463      0.0547
    165  CG       -56.5720  -22.7440   -1.5020 C.ar  463  PHE463     -0.0202
    166  CD1      -57.6310  -22.7950   -2.3970 C.ar  463  PHE463     -0.0042
    167  CD2      -56.1470  -21.5030   -1.0550 C.ar  463  PHE463     -0.0042
    168  CE1      -58.2260  -21.6360   -2.8570 C.ar  463  PHE463     -0.0003
    169  CE2      -56.7500  -20.3420   -1.5010 C.ar  463  PHE463     -0.0003
    170  CZ       -57.7890  -20.4090   -2.4030 C.ar  463  PHE463     -0.0000
    171  N        -55.3570  -23.8940   -4.2040 N.am  464  ALA464     -0.1980
    172  CA       -55.8510  -24.1080   -5.5580 C.3   464  ALA464      0.1597
    173  C        -55.0770  -25.2530   -6.1980 C.2   464  ALA464      0.2287
    174  O        -55.6550  -26.1430   -6.8310 O.2   464  ALA464     -0.2864
    175  CB       -55.7220  -22.8390   -6.3770 C.3   464  ALA464      0.0319
    176  N        -55.9020  -28.6260   -4.4930 N.3   467  ALA467     -0.1231
    177  CA       -57.1730  -29.1120   -4.9960 C.3   467  ALA467      0.1694
    178  C        -57.0680  -29.6550   -6.4060 C.2   467  ALA467      0.2592
    179  O        -57.6470  -30.6930   -6.7000 O.2   467  ALA467     -0.2718
    180  CB       -58.2170  -28.0040   -4.9430 C.3   467  ALA467      0.0304
    181  N        -56.3280  -28.9710   -7.2740 N.am  468  PHE468     -0.1976
    182  CA       -56.1890  -29.4500   -8.6450 C.3   468  PHE468      0.1639
    183  C        -55.5300  -30.8200   -8.6560 C.2   468  PHE468      0.2290
    184  O        -55.9690  -31.7330   -9.3680 O.2   468  PHE468     -0.2864
    185  CB       -55.3900  -28.4850   -9.5070 C.3   468  PHE468      0.0560
    186  CG       -55.1030  -29.0200  -10.8800 C.ar  468  PHE468     -0.0200
    187  CD1      -56.0730  -28.9750  -11.8680 C.ar  468  PHE468     -0.0042
    188  CD2      -53.8740  -29.5870  -11.1820 C.ar  468  PHE468     -0.0042
    189  CE1      -55.8210  -29.4740  -13.1360 C.ar  468  PHE468     -0.0003
    190  CE2      -53.6150  -30.0890  -12.4510 C.ar  468  PHE468     -0.0003
    191  CZ       -54.5910  -30.0310  -13.4270 C.ar  468  PHE468     -0.0000
    192  N        -58.1640  -33.4730   -7.1780 N.3   471  MET471     -0.1245
    193  CA       -59.2130  -33.8520   -8.1160 C.3   471  MET471      0.1570
    194  C        -58.6700  -34.6430   -9.2930 C.2   471  MET471      0.2261
    195  O        -59.2770  -35.6320   -9.7120 O.2   471  MET471     -0.2867
    196  CB       -59.9430  -32.6170   -8.6330 C.3   471  MET471      0.0387
    197  CG       -60.6720  -31.8320   -7.5730 C.3   471  MET471      0.0595
    198  SD       -61.5320  -30.4340   -8.2990 S.3   471  MET471     -0.1393
    199  CE       -62.8670  -31.2660   -9.1640 C.3   471  MET471      0.0692
@<TRIPOS>BOND
     1   191   189   ar
     2   191   190   ar
     3   189   187   ar
     4    55    53    1
     5    52    53    1
     6    52    49    1
     7   190   188   ar
     8    54    53    1
     9   187   186   ar
    10    48    49    1
    11    49    50    1
    12   188   186   ar
    13   186   185    1
    14   159   157    1
    15   157   158    1
    16   157   154    1
    17    50    51    2
    18   195   194    2
    19   153   154    1
    20   185   182    1
    21   184   183    2
    22   194   193    1
    23   154   155    1
    24   199   198    1
    25   155   156    2
    26   183   182    1
    27   182   181    1
    28   196   193    1
    29   196   197    1
    30    68    66    1
    31   198   197    1
    32   193   192    1
    33    56    57    1
    34    66    65    1
    35   181   178   am
    36    11    10   ar
    37    11     9   ar
    38   174   173    2
    39   179   178    2
    40    10     8   ar
    41    60    57    1
    42    57    58    1
    43     9     7   ar
    44   178   177    1
    45   175   172    1
    46   173   172    1
    47    65    67    1
    48    65    62    1
    49     8     6   ar
    50   172   171    1
    51     7     6   ar
    52     1     2    1
    53    58    59    2
    54    61    62    1
    55    62    63    1
    56   177   180    1
    57   177   176    1
    58     6     5    1
    59    18    16    1
    60   171   162   am
    61    17    16    1
    62     2     5    1
    63     2     3    1
    64    16    13    1
    65    63    64    2
    66    63    69   am
    67   163   162    2
    68   162   161    1
    69    69    70    1
    70     3     4    2
    71   168   170   ar
    72   168   166   ar
    73    82    81    1
    74    13    12    1
    75    13    14    1
    76   170   169   ar
    77   166   165   ar
    78   160   161    1
    79   161   164    1
    80    31    30    1
    81    74    76    1
    82    74    73    1
    83    99    97    1
    84    70    73    1
    85    70    71    1
    86   165   167   ar
    87   165   164    1
    88   169   167   ar
    89    14    15    2
    90    14    19   am
    91    77    78    1
    92    73    75    1
    93    81    78    1
    94    32    30    1
    95    19    20    1
    96    71    72    2
    97    30    27    1
    98    78    79    1
    99    97    96    1
   100    24    23    1
   101    20    23    1
   102    20    21    1
   103    27    26    1
   104    27    28    1
   105    23    25    1
   106    96    98    1
   107    96    93    1
   108    79    83   am
   109    79    80    2
   110    21    22    2
   111    83    84    1
   112    47    45    1
   113    28    29    2
   114    28    33   am
   115    45    44    1
   116    93    92    1
   117    93    94    1
   118    33    34    1
   119    84    87    1
   120    84    85    1
   121    87    88    1
   122    40    41    1
   123    44    41    1
   124    44    46    1
   125    94   100   am
   126    94    95    2
   127    85    86    2
   128    41    42    1
   129    39    37    1
   130    90    89   ar
   131   100   101    1
   132    34    37    1
   133    34    35    1
   134   142   140    1
   135    37    38    1
   136    88    89    1
   137    35    36    2
   138    89    91   ar
   139   101   102    1
   140   147   146    2
   141    42    43    2
   142   146   145    1
   143   139   138    2
   144   148   145    1
   145   148   149    1
   146   143   141    1
   147   140   141    1
   148   140   137    1
   149   138   137    1
   150   150   149    1
   151   150   151    1
   152   145   144    1
   153   102   104   am
   154   102   103    2
   155   104   105    1
   156   152   151    1
   157   137   136    1
   158   111   109   ar
   159   108   105    1
   160   108   109    1
   161   105   106    1
   162   109   110   ar
   163   106   107    2
   164   112   113    1
   165   133   132    2
   166   132   131    1
   167   113   116    1
   168   113   114    1
   169   131   134    1
   170   131   130    1
   171   134   135    1
   172   121   118    1
   173   117   118    1
   174   114   115    2
   175   118   119    1
   176   129   127   am
   177   128   127    2
   178   127   126    1
   179   119   120    2
   180   126   123    1
   181   122   123    1
   182   123   124    1
   183   124   125    2
