@<TRIPOS>MOLECULE
tmp/5i6cA00.pdb
 91 87 0 0 0
SMALL
GASTEIGER

@<TRIPOS>ATOM
      1  N        -63.6950  -13.9370   13.9780 N.3    28  GLY28      -0.1225
      2  CA       -63.6470  -14.4030   12.6050 C.3    28  GLY28       0.1811
      3  C        -64.0430  -13.3390   11.5990 C.2    28  GLY28       0.2280
      4  O        -63.5940  -13.3750   10.4530 O.2    28  GLY28      -0.2866
      5  N        -67.0640  -12.5300    6.9160 N.3    88  VAL88      -0.1231
      6  CA       -65.9820  -12.5210    5.9200 C.3    88  VAL88       0.1692
      7  C        -65.1540  -13.8210    5.8570 C.2    88  VAL88       0.2593
      8  O        -64.7100  -14.3390    6.8840 O.2    88  VAL88      -0.2718
      9  CB       -65.0210  -11.3510    6.1910 C.3    88  VAL88       0.0266
     10  CG1      -64.0140  -11.2220    5.0660 C.3    88  VAL88       0.0020
     11  CG2      -65.8020  -10.0610    6.3550 C.3    88  VAL88       0.0020
     12  N        -64.9290  -14.3230    4.6420 N.am   89  SER89      -0.1938
     13  CA       -64.2160  -15.5870    4.4350 C.3    89  SER89       0.2055
     14  C        -62.6820  -15.4450    4.5520 C.2    89  SER89       0.2643
     15  O        -62.1380  -14.3500    4.4110 O.2    89  SER89      -0.2714
     16  CB       -64.5980  -16.1850    3.0760 C.3    89  SER89       0.2130
     17  OG       -64.0310  -17.4700    2.8870 O.3    89  SER89      -0.2179
     18  N        -61.9940  -16.5500    4.8360 N.am   90  PHE90      -0.1973
     19  CA       -60.5330  -16.5570    4.9360 C.3    90  PHE90       0.1639
     20  C        -59.8720  -16.9370    3.6360 C.2    90  PHE90       0.2290
     21  O        -58.6640  -16.8440    3.5100 O.2    90  PHE90      -0.2864
     22  CB       -60.0710  -17.5340    6.0090 C.3    90  PHE90       0.0560
     23  CG       -60.3330  -17.0790    7.3980 C.ar   90  PHE90      -0.0200
     24  CD1      -60.8520  -15.8230    7.6440 C.ar   90  PHE90      -0.0042
     25  CD2      -60.0750  -17.9180    8.4670 C.ar   90  PHE90      -0.0042
     26  CE1      -61.0920  -15.4040    8.9400 C.ar   90  PHE90      -0.0003
     27  CE2      -60.3130  -17.5070    9.7660 C.ar   90  PHE90      -0.0003
     28  CZ       -60.8220  -16.2440   10.0030 C.ar   90  PHE90      -0.0000
     29  N        -68.7970  -24.5010    1.3310 N.3   291  GLU291     -0.1245
     30  CA       -68.7670  -24.1480    2.7270 C.3   291  GLU291      0.1567
     31  C        -70.1550  -23.8790    3.2640 C.2   291  GLU291      0.2260
     32  O        -70.5090  -24.3400    4.3400 O.2   291  GLU291     -0.2867
     33  CB       -67.8960  -22.9410    2.9310 C.3   291  GLU291      0.0388
     34  CG       -67.7250  -22.6050    4.3540 C.3   291  GLU291      0.1160
     35  CD       -66.7210  -21.5150    4.5120 C.2   291  GLU291      0.3649
     36  OE1      -66.1910  -21.0360    3.4800 O.co2 291  GLU291     -0.2457
     37  OE2      -66.4190  -21.1840    5.6690 O.co2 291  GLU291     -0.2457
     38  N        -68.9010  -15.6050    3.7060 N.3   339  THR339     -0.1203
     39  CA       -69.6110  -16.8640    3.7110 C.3   339  THR339      0.1994
     40  C        -69.9760  -17.2960    5.1270 C.2   339  THR339      0.2619
     41  O        -69.7190  -16.5920    6.1110 O.2   339  THR339     -0.2717
     42  CB       -68.8050  -17.9650    3.0220 C.3   339  THR339      0.1784
     43  OG1      -69.5840  -19.1670    2.9920 O.3   339  THR339     -0.2211
     44  CG2      -67.5110  -18.2180    3.7680 C.3   339  THR339      0.0376
     45  N        -70.5600  -18.4820    5.2040 N.am  340  THR340     -0.1938
     46  CA       -71.2250  -18.9510    6.4030 C.3   340  THR340      0.2028
     47  C        -70.2610  -19.2800    7.5210 C.2   340  THR340      0.2642
     48  O        -69.3130  -20.0300    7.3310 O.2   340  THR340     -0.2714
     49  CB       -72.0760  -20.1990    6.0960 C.3   340  THR340      0.1808
     50  OG1      -72.8470  -19.9740    4.9070 O.3   340  THR340     -0.2208
     51  CG2      -73.0040  -20.5150    7.2610 C.3   340  THR340      0.0379
     52  N        -70.5410  -18.7350    8.6980 N.am  341  PHE341     -0.1959
     53  CA       -69.7380  -18.9940    9.8830 C.3   341  PHE341      0.1771
     54  C        -70.1850  -20.2450   10.6130 C.2   341  PHE341      0.2619
     55  O        -71.3480  -20.3620   10.9880 O.2   341  PHE341     -0.2715
     56  CB       -69.8240  -17.8110   10.8300 C.3   341  PHE341      0.0574
     57  CG       -68.7280  -16.8220   10.6520 C.ar  341  PHE341     -0.0200
     58  CD1      -68.2830  -16.4900    9.3870 C.ar  341  PHE341     -0.0042
     59  CD2      -68.1390  -16.2290   11.7510 C.ar  341  PHE341     -0.0042
     60  CE1      -67.2670  -15.5880    9.2230 C.ar  341  PHE341     -0.0003
     61  CE2      -67.1340  -15.3240   11.5970 C.ar  341  PHE341     -0.0003
     62  CZ       -66.6920  -14.9960   10.3300 C.ar  341  PHE341     -0.0000
     63  N        -69.2360  -21.1260   10.9090 N.am  342  ALA342     -0.1963
     64  CA       -69.5660  -22.4600   11.3920 C.3   342  ALA342      0.1728
     65  C        -69.3870  -22.6660   12.9000 C.2   342  ALA342      0.2616
     66  O        -69.6490  -23.7550   13.4020 O.2   342  ALA342     -0.2715
     67  CB       -68.7480  -23.4800   10.6340 C.3   342  ALA342      0.0334
     68  N        -68.9120  -21.6490   13.6130 N.am  343  GLN343     -0.1977
     69  CA       -68.8010  -21.7210   15.0760 C.3   343  GLN343      0.1601
     70  C        -70.1590  -21.9590   15.7270 C.2   343  GLN343      0.2287
     71  O        -70.2910  -22.7550   16.6620 O.2   343  GLN343     -0.2864
     72  CB       -68.2130  -20.4360   15.6640 C.3   343  GLN343      0.0394
     73  CG       -66.8940  -19.9770   15.0960 C.3   343  GLN343      0.0908
     74  CD       -67.0700  -19.1050   13.8660 C.2   343  GLN343      0.2608
     75  OE1      -67.7990  -19.4600   12.9430 O.2   343  GLN343     -0.2717
     76  NE2      -66.4400  -17.9350   13.8710 N.am  343  GLN343     -0.0878
     77  N        -56.9010  -19.7190   15.7380 N.3   394  LEU394     -0.1245
     78  CA       -57.9650  -19.6680   14.7420 C.3   394  LEU394      0.1561
     79  C        -57.6190  -20.5130   13.4900 C.2   394  LEU394      0.2260
     80  O        -58.3780  -21.4300   13.1030 O.2   394  LEU394     -0.2867
     81  CB       -58.2030  -18.1990   14.3720 C.3   394  LEU394      0.0270
     82  CG       -59.3190  -17.6820   13.4730 C.3   394  LEU394      0.0019
     83  CD1      -60.6430  -18.0980   14.0450 C.3   394  LEU394      0.0001
     84  CD2      -59.2340  -16.1600   13.3270 C.3   394  LEU394      0.0001
     85  N        -58.6930  -24.0670   11.7040 N.3   398  VAL398     -0.1245
     86  CA       -59.0560  -24.2330   10.2960 C.3   398  VAL398      0.1561
     87  C        -58.4270  -25.4950    9.6880 C.2   398  VAL398      0.2260
     88  O        -59.1180  -26.2990    9.0560 O.2   398  VAL398     -0.2867
     89  CB       -58.6350  -23.0200    9.4480 C.3   398  VAL398      0.0252
     90  CG1      -58.8260  -23.3200    7.9670 C.3   398  VAL398      0.0019
     91  CG2      -59.4500  -21.8030    9.8360 C.3   398  VAL398      0.0019
@<TRIPOS>BOND
     1    29    30    1
     2    30    33    1
     3    30    31    1
     4    17    16    1
     5    33    34    1
     6    43    42    1
     7    42    39    1
     8    42    44    1
     9    16    13    1
    10    31    32    2
    11    36    35   ar
    12    21    20    2
    13    20    19    1
    14    38    39    1
    15    39    40    1
    16    34    35    1
    17    15    14    2
    18    13    14    1
    19    13    12    1
    20    35    37   ar
    21    14    18   am
    22    12     7   am
    23    18    19    1
    24    50    49    1
    25    19    22    1
    26    10     9    1
    27    40    45   am
    28    40    41    2
    29    45    46    1
    30     7     6    1
    31     7     8    2
    32     6     9    1
    33     6     5    1
    34    22    23    1
    35    49    46    1
    36    49    51    1
    37     9    11    1
    38    46    47    1
    39    48    47    2
    40    23    24   ar
    41    23    25   ar
    42    47    52   am
    43    24    26   ar
    44    90    89    1
    45    25    27   ar
    46    52    53    1
    47    26    28   ar
    48    88    87    2
    49    60    58   ar
    50    60    62   ar
    51    58    57   ar
    52    89    91    1
    53    89    86    1
    54    87    86    1
    55    27    28   ar
    56    53    54    1
    57    53    56    1
    58    86    85    1
    59    62    61   ar
    60     4     3    2
    61    54    63   am
    62    54    55    2
    63    67    64    1
    64    57    56    1
    65    57    59   ar
    66    63    64    1
    67    64    65    1
    68    61    59   ar
    69     3     2    1
    70     2     1    1
    71    65    66    2
    72    65    68   am
    73    75    74    2
    74    80    79    2
    75    84    82    1
    76    82    83    1
    77    82    81    1
    78    79    78    1
    79    68    69    1
    80    74    76   am
    81    74    73    1
    82    81    78    1
    83    78    77    1
    84    69    72    1
    85    69    70    1
    86    73    72    1
    87    70    71    2
