@<TRIPOS>MOLECULE
tmp/5i6cA02.pdb
 163 149 0 0 0
SMALL
GASTEIGER

@<TRIPOS>ATOM
      1  N        -68.9320  -14.6690   19.5410 N.3    24  ALA24      -0.1245
      2  CA       -68.4120  -15.8810   18.9320 C.3    24  ALA24       0.1562
      3  C        -67.8510  -15.6070   17.5390 C.2    24  ALA24       0.2260
      4  O        -66.7250  -16.0110   17.2150 O.2    24  ALA24      -0.2867
      5  CB       -69.5010  -16.9420   18.8630 C.3    24  ALA24       0.0290
      6  N        -64.3990  -12.4310   16.2970 N.3    27  ALA27      -0.1231
      7  CA       -63.0130  -12.6330   15.8990 C.3    27  ALA27       0.1694
      8  C        -62.8960  -12.9720   14.4190 C.2    27  ALA27       0.2592
      9  O        -62.1230  -12.3490   13.6860 O.2    27  ALA27      -0.2718
     10  CB       -62.3810  -13.7260   16.7420 C.3    27  ALA27       0.0304
     11  N        -63.6950  -13.9370   13.9780 N.am   28  GLY28      -0.1957
     12  CA       -63.6470  -14.4030   12.6050 C.3    28  GLY28       0.1869
     13  C        -64.0430  -13.3390   11.5990 C.2    28  GLY28       0.2309
     14  O        -63.5940  -13.3750   10.4530 O.2    28  GLY28      -0.2863
     15  N        -64.9290  -14.3230    4.6420 N.3    89  SER89      -0.1202
     16  CA       -64.2160  -15.5870    4.4350 C.3    89  SER89       0.2020
     17  C        -62.6820  -15.4450    4.5520 C.2    89  SER89       0.2619
     18  O        -62.1380  -14.3500    4.4110 O.2    89  SER89      -0.2717
     19  CB       -64.5980  -16.1850    3.0760 C.3    89  SER89       0.2103
     20  OG       -64.0310  -17.4700    2.8870 O.3    89  SER89      -0.2182
     21  N        -61.9940  -16.5500    4.8360 N.am   90  PHE90      -0.1961
     22  CA       -60.5330  -16.5570    4.9360 C.3    90  PHE90       0.1771
     23  C        -59.8720  -16.9370    3.6360 C.2    90  PHE90       0.2620
     24  O        -58.6640  -16.8440    3.5100 O.2    90  PHE90      -0.2715
     25  CB       -60.0710  -17.5340    6.0090 C.3    90  PHE90       0.0574
     26  CG       -60.3330  -17.0790    7.3980 C.ar   90  PHE90      -0.0200
     27  CD1      -60.8520  -15.8230    7.6440 C.ar   90  PHE90      -0.0042
     28  CD2      -60.0750  -17.9180    8.4670 C.ar   90  PHE90      -0.0042
     29  CE1      -61.0920  -15.4040    8.9400 C.ar   90  PHE90      -0.0003
     30  CE2      -60.3130  -17.5070    9.7660 C.ar   90  PHE90      -0.0003
     31  CZ       -60.8220  -16.2440   10.0030 C.ar   90  PHE90      -0.0000
     32  N        -60.6630  -17.3480    2.6570 N.am   91  SER91      -0.1950
     33  CA       -60.1120  -17.7600    1.3780 C.3    91  SER91       0.1924
     34  C        -59.5790  -16.5380    0.6670 C.2    91  SER91       0.2314
     35  O        -58.5890  -16.6040   -0.0740 O.2    91  SER91      -0.2863
     36  CB       -61.1690  -18.4550    0.5250 C.3    91  SER91       0.2116
     37  OG       -62.3130  -17.6340    0.3780 O.3    91  SER91      -0.2180
     38  N        -58.8360  -27.2930    2.3250 N.3   162  VAL162     -0.1245
     39  CA       -59.0650  -26.5580    3.5580 C.3   162  VAL162      0.1561
     40  C        -57.8420  -26.6180    4.4740 C.2   162  VAL162      0.2260
     41  O        -57.4540  -25.6010    5.0740 O.2   162  VAL162     -0.2867
     42  CB       -60.2790  -27.0950    4.3180 C.3   162  VAL162      0.0252
     43  CG1      -60.5470  -26.2450    5.5550 C.3   162  VAL162      0.0019
     44  CG2      -61.4770  -27.1140    3.4090 C.3   162  VAL162      0.0019
     45  N        -55.2780  -24.2600    3.1390 N.3   165  ILE165     -0.1245
     46  CA       -55.6840  -22.8830    3.3580 C.3   165  ILE165      0.1561
     47  C        -55.2460  -22.5060    4.7590 C.2   165  ILE165      0.2260
     48  O        -54.5080  -21.5360    4.9510 O.2   165  ILE165     -0.2867
     49  CB       -57.1980  -22.6580    3.1850 C.3   165  ILE165      0.0252
     50  CG1      -57.5680  -22.7390    1.7100 C.3   165  ILE165      0.0019
     51  CG2      -57.5800  -21.2770    3.6580 C.3   165  ILE165      0.0019
     52  CD1      -59.0210  -22.5460    1.4200 C.3   165  ILE165      0.0001
     53  N        -67.0820  -21.1650   22.3600 N.3   230  SER230     -0.1217
     54  CA       -66.8100  -20.4090   21.1310 C.3   230  SER230      0.1889
     55  C        -66.4770  -18.9540   21.4220 C.2   230  SER230      0.2288
     56  O        -66.2410  -18.1690   20.5080 O.2   230  SER230     -0.2866
     57  CB       -67.9790  -20.4840   20.1410 C.3   230  SER230      0.2089
     58  OG       -68.4100  -21.8190   19.9330 O.3   230  SER230     -0.2183
     59  N        -64.2280  -18.6840   23.9270 N.3   232  SER232     -0.1202
     60  CA       -62.9340  -19.0060   24.5250 C.3   232  SER232      0.2020
     61  C        -61.8140  -18.3350   23.7590 C.2   232  SER232      0.2618
     62  O        -60.8360  -17.8920   24.3400 O.2   232  SER232     -0.2717
     63  CB       -62.6950  -20.5170   24.5590 C.3   232  SER232      0.2103
     64  OG       -62.6280  -21.0460   23.2470 O.3   232  SER232     -0.2182
     65  N        -61.9820  -18.2520   22.4450 N.am  233  VAL233     -0.1979
     66  CA       -61.0090  -17.6060   21.5840 C.3   233  VAL233      0.1595
     67  C        -60.9900  -16.1060   21.8420 C.2   233  VAL233      0.2287
     68  O        -59.9310  -15.4900   22.0070 O.2   233  VAL233     -0.2864
     69  CB       -61.3350  -17.8840   20.1070 C.3   233  VAL233      0.0276
     70  CG1      -60.3160  -17.2320   19.1940 C.3   233  VAL233      0.0022
     71  CG2      -61.3990  -19.3860   19.8670 C.3   233  VAL233      0.0022
     72  N        -65.3760  -22.2830   -3.0020 N.3   287  ILE287     -0.1245
     73  CA       -65.1000  -22.5970   -1.6060 C.3   287  ILE287      0.1561
     74  C        -66.2700  -22.2010   -0.7130 C.2   287  ILE287      0.2260
     75  O        -66.7490  -22.9940    0.0850 O.2   287  ILE287     -0.2867
     76  CB       -63.8350  -21.8900   -1.1060 C.3   287  ILE287      0.0252
     77  CG1      -62.6070  -22.4880   -1.7730 C.3   287  ILE287      0.0019
     78  CG2      -63.7160  -22.0010    0.4100 C.3   287  ILE287      0.0019
     79  CD1      -61.3590  -21.7310   -1.4770 C.3   287  ILE287      0.0001
     80  N        -68.7970  -24.5010    1.3310 N.3   291  GLU291     -0.1245
     81  CA       -68.7670  -24.1480    2.7270 C.3   291  GLU291      0.1567
     82  C        -70.1550  -23.8790    3.2640 C.2   291  GLU291      0.2260
     83  O        -70.5090  -24.3400    4.3400 O.2   291  GLU291     -0.2867
     84  CB       -67.8960  -22.9410    2.9310 C.3   291  GLU291      0.0388
     85  CG       -67.7250  -22.6050    4.3540 C.3   291  GLU291      0.1160
     86  CD       -66.7210  -21.5150    4.5120 C.2   291  GLU291      0.3649
     87  OE1      -66.1910  -21.0360    3.4800 O.co2 291  GLU291     -0.2457
     88  OE2      -66.4190  -21.1840    5.6690 O.co2 291  GLU291     -0.2457
     89  N        -71.9090  -26.1300    6.1320 N.3   295  ASP295     -0.1239
     90  CA       -72.2140  -25.3880    7.3590 C.3   295  ASP295      0.1674
     91  C        -73.7060  -25.4130    7.6740 C.2   295  ASP295      0.2266
     92  O        -74.1150  -25.6640    8.8160 O.2   295  ASP295     -0.2867
     93  CB       -71.7110  -23.9370    7.2610 C.3   295  ASP295      0.1410
     94  CG       -70.1730  -23.8250    7.3600 C.2   295  ASP295      0.3668
     95  OD1      -69.5180  -24.7820    7.8350 O.co2 295  ASP295     -0.2456
     96  OD2      -69.6100  -22.7750    6.9710 O.co2 295  ASP295     -0.2456
     97  N        -69.2360  -21.1260   10.9090 N.3   342  ALA342     -0.1231
     98  CA       -69.5660  -22.4600   11.3920 C.3   342  ALA342      0.1694
     99  C        -69.3870  -22.6660   12.9000 C.2   342  ALA342      0.2591
    100  O        -69.6490  -23.7550   13.4020 O.2   342  ALA342     -0.2718
    101  CB       -68.7480  -23.4800   10.6340 C.3   342  ALA342      0.0304
    102  N        -68.9120  -21.6490   13.6130 N.am  343  GLN343     -0.1979
    103  CA       -68.8010  -21.7210   15.0760 C.3   343  GLN343      0.1601
    104  C        -70.1590  -21.9590   15.7270 C.2   343  GLN343      0.2287
    105  O        -70.2910  -22.7550   16.6620 O.2   343  GLN343     -0.2864
    106  CB       -68.2130  -20.4360   15.6640 C.3   343  GLN343      0.0394
    107  CG       -66.8940  -19.9770   15.0960 C.3   343  GLN343      0.0908
    108  CD       -67.0700  -19.1050   13.8660 C.2   343  GLN343      0.2608
    109  OE1      -67.7990  -19.4600   12.9430 O.2   343  GLN343     -0.2717
    110  NE2      -66.4400  -17.9350   13.8710 N.am  343  GLN343     -0.0878
    111  N        -72.0380  -25.0720   17.1300 N.3   346  VAL346     -0.1245
    112  CA       -71.6400  -25.5480   18.4450 C.3   346  VAL346      0.1561
    113  C        -72.5460  -24.9510   19.5150 C.2   346  VAL346      0.2260
    114  O        -73.2150  -25.6780   20.2610 O.2   346  VAL346     -0.2867
    115  CB       -70.1680  -25.1950   18.7540 C.3   346  VAL346      0.0252
    116  CG1      -69.8730  -25.3480   20.2330 C.3   346  VAL346      0.0019
    117  CG2      -69.2220  -26.0520   17.9130 C.3   346  VAL346      0.0019
    118  N        -54.3750  -19.6610   16.9080 N.3   393  PHE393     -0.1227
    119  CA       -55.3650  -20.6530   17.3370 C.3   393  PHE393      0.1736
    120  C        -56.4540  -20.8480   16.2750 C.2   393  PHE393      0.2595
    121  O        -56.8820  -21.9730   15.9670 O.2   393  PHE393     -0.2718
    122  CB       -56.0200  -20.2360   18.6540 C.3   393  PHE393      0.0547
    123  CG       -56.8230  -21.3260   19.2860 C.ar  393  PHE393     -0.0202
    124  CD1      -56.3190  -22.0240   20.3660 C.ar  393  PHE393     -0.0042
    125  CD2      -58.0730  -21.6560   18.8090 C.ar  393  PHE393     -0.0042
    126  CE1      -57.0350  -23.0370   20.9570 C.ar  393  PHE393     -0.0003
    127  CE2      -58.7940  -22.6750   19.3870 C.ar  393  PHE393     -0.0003
    128  CZ       -58.2760  -23.3650   20.4700 C.ar  393  PHE393     -0.0000
    129  N        -56.9010  -19.7190   15.7380 N.am  394  LEU394     -0.1980
    130  CA       -57.9650  -19.6680   14.7420 C.3   394  LEU394      0.1596
    131  C        -57.6190  -20.5130   13.4900 C.2   394  LEU394      0.2287
    132  O        -58.3780  -21.4300   13.1030 O.2   394  LEU394     -0.2864
    133  CB       -58.2030  -18.1990   14.3720 C.3   394  LEU394      0.0297
    134  CG       -59.3190  -17.6820   13.4730 C.3   394  LEU394      0.0022
    135  CD1      -60.6430  -18.0980   14.0450 C.3   394  LEU394      0.0001
    136  CD2      -59.2340  -16.1600   13.3270 C.3   394  LEU394      0.0001
    137  N        -57.1050  -24.2480   14.0340 N.3   397  SER397     -0.1202
    138  CA       -58.4430  -24.8340   14.0120 C.3   397  SER397      0.2020
    139  C        -58.9690  -25.0250   12.5860 C.2   397  SER397      0.2618
    140  O        -59.6380  -26.0170   12.2990 O.2   397  SER397     -0.2717
    141  CB       -59.4110  -23.9740   14.8100 C.3   397  SER397      0.2103
    142  OG       -60.6830  -24.5830   14.8190 O.3   397  SER397     -0.2182
    143  N        -58.6930  -24.0670   11.7040 N.am  398  VAL398     -0.1979
    144  CA       -59.0560  -24.2330   10.2960 C.3   398  VAL398      0.1595
    145  C        -58.4270  -25.4950    9.6880 C.2   398  VAL398      0.2287
    146  O        -59.1180  -26.2990    9.0560 O.2   398  VAL398     -0.2864
    147  CB       -58.6350  -23.0200    9.4480 C.3   398  VAL398      0.0276
    148  CG1      -58.8260  -23.3200    7.9670 C.3   398  VAL398      0.0022
    149  CG2      -59.4500  -21.8030    9.8360 C.3   398  VAL398      0.0022
    150  N        -59.8620  -28.6580   11.1240 N.3   401  SER401     -0.1217
    151  CA       -61.2040  -28.8490   10.5980 C.3   401  SER401      0.1889
    152  C        -61.1540  -29.4170    9.1810 C.2   401  SER401      0.2288
    153  O        -61.9350  -30.3020    8.8310 O.2   401  SER401     -0.2866
    154  CB       -61.9910  -27.5350   10.6220 C.3   401  SER401      0.2089
    155  OG       -63.3810  -27.7530   10.8420 O.3   401  SER401     -0.2183
    156  N        -62.7040  -32.9640    7.8330 N.3   405  ILE405     -0.1245
    157  CA       -63.3400  -33.1490    6.5310 C.3   405  ILE405      0.1561
    158  C        -62.7290  -34.3270    5.7880 C.2   405  ILE405      0.2260
    159  O        -63.4500  -35.1380    5.2070 O.2   405  ILE405     -0.2867
    160  CB       -63.2020  -31.9170    5.6190 C.3   405  ILE405      0.0252
    161  CG1      -63.7490  -30.6500    6.2870 C.3   405  ILE405      0.0019
    162  CG2      -63.8910  -32.1830    4.2890 C.3   405  ILE405      0.0019
    163  CD1      -63.3290  -29.3610    5.5810 C.3   405  ILE405      0.0001
@<TRIPOS>BOND
     1    72    73    1
     2    77    79    1
     3    77    76    1
     4    73    76    1
     5    73    74    1
     6    76    78    1
     7    74    75    2
     8    35    34    2
     9    37    36    1
    10    36    33    1
    11    34    33    1
    12    80    81    1
    13    33    32    1
    14    52    50    1
    15    50    49    1
    16    38    39    1
    17    32    23   am
    18    81    84    1
    19    81    82    1
    20    20    19    1
    21    84    85    1
    22    19    16    1
    23    45    46    1
    24    49    46    1
    25    49    51    1
    26    82    83    2
    27    46    47    1
    28    44    42    1
    29    87    86   ar
    30    24    23    2
    31    39    42    1
    32    39    40    1
    33    23    22    1
    34   162   160    1
    35    42    43    1
    36    85    86    1
    37    18    17    2
    38    16    17    1
    39    16    15    1
    40    40    41    2
    41    86    88   ar
    42    17    21   am
    43    47    48    2
    44    21    22    1
    45    22    25    1
    46   159   158    2
    47   163   161    1
    48   160   161    1
    49   160   157    1
    50   158   157    1
    51    25    26    1
    52    89    90    1
    53   157   156    1
    54    96    94   ar
    55    93    90    1
    56    93    94    1
    57    90    91    1
    58    94    95   ar
    59    26    27   ar
    60    26    28   ar
    61    27    29   ar
    62    91    92    2
    63   148   147    1
    64    28    30   ar
    65   153   152    2
    66    29    31   ar
    67   146   145    2
    68   152   151    1
    69   147   149    1
    70   147   144    1
    71   145   144    1
    72    30    31   ar
    73   144   143    1
    74    14    13    2
    75   151   154    1
    76   151   150    1
    77   154   155    1
    78   101    98    1
    79    97    98    1
    80    98    99    1
    81    13    12    1
    82   143   139   am
    83   140   139    2
    84   139   138    1
    85    12    11    1
    86    99   100    2
    87    99   102   am
    88   109   108    2
    89   132   131    2
    90   136   134    1
    91   134   135    1
    92   134   133    1
    93   131   130    1
    94   102   103    1
    95     9     8    2
    96   108   110   am
    97   108   107    1
    98    11     8   am
    99   138   137    1
   100   138   141    1
   101   133   130    1
   102     8     7    1
   103   130   129    1
   104   141   142    1
   105   103   106    1
   106   103   104    1
   107   107   106    1
   108   104   105    2
   109   129   120   am
   110     7     6    1
   111     7    10    1
   112   121   120    2
   113   120   119    1
   114   118   119    1
   115   111   112    1
   116     4     3    2
   117   119   122    1
   118     3     2    1
   119   117   115    1
   120   112   115    1
   121   112   113    1
   122   122   123    1
   123   115   116    1
   124   125   123   ar
   125   125   127   ar
   126     5     2    1
   127     2     1    1
   128    70    69    1
   129   123   124   ar
   130   127   128   ar
   131   113   114    2
   132    71    69    1
   133    58    57    1
   134    69    66    1
   135    57    54    1
   136   124   126   ar
   137   128   126   ar
   138    56    55    2
   139    54    55    1
   140    54    53    1
   141    66    67    1
   142    66    65    1
   143    67    68    2
   144    65    61   am
   145    64    63    1
   146    61    62    2
   147    61    60    1
   148    59    60    1
   149    60    63    1
