@<TRIPOS>MOLECULE
tmp/5i6dA01.pdb
 128 121 0 0 0
SMALL
GASTEIGER

@<TRIPOS>ATOM
      1  N          4.8600   27.6460    1.9570 N.3    49  LYS49      -0.1245
      2  CA         4.6290   28.3230    0.6730 C.3    49  LYS49       0.1561
      3  C          5.7300   27.9850   -0.3250 C.2    49  LYS49       0.2260
      4  O          5.5550   28.2140   -1.5080 O.2    49  LYS49      -0.2867
      5  CB         4.4310   29.8240    0.7810 C.3    49  LYS49       0.0271
      6  CG         3.1570   30.2140    1.5280 C.3    49  LYS49       0.0035
      7  CD         1.8670   29.7050    0.8340 C.3    49  LYS49       0.0206
      8  CE         0.6660   30.5320    1.3220 C.3    49  LYS49       0.1093
      9  NZ         0.6090   30.5050    2.7500 N.3    49  LYS49      -0.1314
     10  N          0.4680   39.1330   -1.6830 N.3    76  THR76      -0.1203
     11  CA         0.9320   38.2110   -0.6470 C.3    76  THR76       0.1994
     12  C          0.9250   38.9010    0.7040 C.2    76  THR76       0.2618
     13  O          1.1210   40.1370    0.7890 O.2    76  THR76      -0.2717
     14  CB         2.3430   37.6560   -0.9950 C.3    76  THR76       0.1784
     15  OG1        2.8030   36.7700    0.0470 O.3    76  THR76      -0.2211
     16  CG2        3.3310   38.7670   -1.2030 C.3    76  THR76       0.0376
     17  N          0.6980   38.1190    1.7480 N.am   77  SER77      -0.1951
     18  CA         0.8750   38.6160    3.1120 C.3    77  SER77       0.1924
     19  C          2.3010   38.3530    3.6200 C.2    77  SER77       0.2314
     20  O          2.6310   38.7730    4.7410 O.2    77  SER77      -0.2863
     21  CB        -0.1350   38.0080    4.0570 C.3    77  SER77       0.2116
     22  OG        -0.0900   36.6080    4.0360 O.3    77  SER77      -0.2180
     23  N          4.5970   35.1760    3.2270 N.3    79  ASN79      -0.1225
     24  CA         5.2290   33.8600    3.0240 C.3    79  ASN79       0.1785
     25  C          5.3700   33.4960    1.5510 C.2    79  ASN79       0.2597
     26  O          6.4410   33.0750    1.1130 O.2    79  ASN79      -0.2718
     27  CB         4.5130   32.7230    3.7900 C.3    79  ASN79       0.1169
     28  CG         4.8770   32.6800    5.2750 C.2    79  ASN79       0.2627
     29  OD1        5.8380   33.3280    5.7120 O.2    79  ASN79      -0.2716
     30  ND2        4.0980   31.9380    6.0650 N.am   79  ASN79      -0.0877
     31  N          4.3110   33.6630    0.7460 N.am   80  THR80      -0.1953
     32  CA         4.4440   33.3200   -0.6660 C.3    80  THR80       0.1897
     33  C          5.4190   34.2700   -1.3430 C.2    80  THR80       0.2313
     34  O          6.2280   33.8360   -2.1970 O.2    80  THR80      -0.2863
     35  CB         3.1000   33.3580   -1.3650 C.3    80  THR80       0.1794
     36  OG1        2.2470   32.4000   -0.7300 O.3    80  THR80      -0.2208
     37  CG2        3.2090   33.0930   -2.8790 C.3    80  THR80       0.0378
     38  N         -1.6820   32.9660   -6.6700 N.3   142  GLN142     -0.1231
     39  CA        -1.7300   31.8040   -5.7830 C.3   142  GLN142      0.1698
     40  C         -3.1570   31.4520   -5.3940 C.2   142  GLN142      0.2592
     41  O         -3.4140   30.3270   -5.0530 O.2   142  GLN142     -0.2718
     42  CB        -0.9150   32.0620   -4.5220 C.3   142  GLN142      0.0381
     43  CG        -1.3470   33.2860   -3.7040 C.3   142  GLN142      0.0905
     44  CD        -0.5210   33.4740   -2.4410 C.2   142  GLN142      0.2608
     45  OE1       -0.0980   32.4910   -1.8340 O.2   142  GLN142     -0.2717
     46  NE2       -0.2540   34.7290   -2.0620 N.am  142  GLN142     -0.0878
     47  N         -4.0810   32.4140   -5.4940 N.am  143  TYR143     -0.1976
     48  CA        -5.4780   32.1320   -5.1210 C.3   143  TYR143      0.1639
     49  C         -6.2560   31.3550   -6.1680 C.2   143  TYR143      0.2290
     50  O         -7.3400   30.8110   -5.8590 O.2   143  TYR143     -0.2864
     51  CB        -6.2050   33.4210   -4.7730 C.3   143  TYR143      0.0560
     52  CG        -5.6610   34.1160   -3.5720 C.ar  143  TYR143     -0.0198
     53  CD1       -6.0320   33.7340   -2.2950 C.ar  143  TYR143     -0.0009
     54  CD2       -4.7770   35.1790   -3.7020 C.ar  143  TYR143     -0.0009
     55  CE1       -5.5330   34.3920   -1.1810 C.ar  143  TYR143      0.0417
     56  CE2       -4.2910   35.8410   -2.5930 C.ar  143  TYR143      0.0417
     57  CZ        -4.6560   35.4450   -1.3430 C.ar  143  TYR143      0.1957
     58  OH        -4.1260   36.1720   -0.2710 O.3   143  TYR143     -0.2866
     59  N         -4.5970   25.4560    8.1860 N.3   173  GLY173     -0.1210
     60  CA        -5.2090   26.7450    8.0100 C.3   173  GLY173      0.1956
     61  C         -5.7900   26.8660    6.6160 C.2   173  GLY173      0.2612
     62  O         -5.3370   26.1770    5.6870 O.2   173  GLY173     -0.2717
     63  N         -6.8150   27.7100    6.4730 N.am  174  LEU174     -0.1965
     64  CA        -7.4940   27.9310    5.2000 C.3   174  LEU174      0.1728
     65  C         -7.2360   29.3500    4.7530 C.2   174  LEU174      0.2617
     66  O         -7.8220   30.3020    5.3000 O.2   174  LEU174     -0.2715
     67  CB        -9.0040   27.6850    5.3820 C.3   174  LEU174      0.0311
     68  CG        -9.8740   27.7480    4.1260 C.3   174  LEU174      0.0022
     69  CD1       -9.6880   26.4990    3.2770 C.3   174  LEU174      0.0001
     70  CD2      -11.3330   27.8850    4.5770 C.3   174  LEU174      0.0001
     71  N         -6.3460   29.5110    3.7510 N.am  175  GLY175     -0.1940
     72  CA        -5.9090   30.8220    3.2480 C.3   175  GLY175      0.2014
     73  C         -6.1430   30.8780    1.7630 C.2   175  GLY175      0.2639
     74  O         -7.2510   31.2020    1.3220 O.2   175  GLY175     -0.2714
     75  N         -5.1380   30.5440    0.9690 N.am  176  THR176     -0.1950
     76  CA        -5.3520   30.3590   -0.4810 C.3   176  THR176      0.1897
     77  C         -6.2590   29.1670   -0.7550 C.2   176  THR176      0.2313
     78  O         -6.8650   29.0910   -1.8110 O.2   176  THR176     -0.2863
     79  CB        -4.0570   30.1390   -1.3100 C.3   176  THR176      0.1794
     80  OG1       -3.4780   28.8650   -0.9470 O.3   176  THR176     -0.2208
     81  CG2       -3.0850   31.2900   -1.0920 C.3   176  THR176      0.0378
     82  N         -8.9640   25.4260    9.8220 N.3   199  ALA199     -0.1231
     83  CA        -8.9180   26.5300   10.7890 C.3   199  ALA199      0.1694
     84  C         -8.8600   27.8350   10.0420 C.2   199  ALA199      0.2592
     85  O         -8.0090   28.0460    9.1380 O.2   199  ALA199     -0.2718
     86  CB        -7.7310   26.3620   11.7270 C.3   199  ALA199      0.0304
     87  N         -9.8040   28.7340   10.3200 N.am  200  GLU200     -0.1966
     88  CA        -9.8060   30.0050    9.6590 C.3   200  GLU200      0.1718
     89  C         -9.9210   31.1610   10.6740 C.2   200  GLU200      0.2458
     90  O        -10.4190   30.9530   11.7870 O.2   200  GLU200     -0.2730
     91  CB       -10.8700   30.0680    8.5780 C.3   200  GLU200      0.0428
     92  CG       -12.2770   29.8590    9.0110 C.3   200  GLU200      0.1163
     93  CD       -13.2060   29.6320    7.8070 C.2   200  GLU200      0.3649
     94  OE1      -13.1800   30.4530    6.8700 O.co2 200  GLU200     -0.2457
     95  OE2      -13.9290   28.6040    7.7870 O.co2 200  GLU200     -0.2457
     96  N         -9.3970   32.3400   10.3160 N.am  201  PRO201     -0.2727
     97  CA        -9.3940   33.4070   11.3040 C.3   201  PRO201      0.1402
     98  C        -10.8150   33.9120   11.5270 C.2   201  PRO201      0.2269
     99  O        -11.6160   33.9410   10.5950 O.2   201  PRO201     -0.2865
    100  CB        -8.5090   34.5030   10.6710 C.3   201  PRO201      0.0296
    101  CG        -7.8380   33.8910    9.5150 C.3   201  PRO201      0.0237
    102  CD        -8.6940   32.7360    9.0690 C.3   201  PRO201      0.0939
    103  N        -11.2540   30.5660   14.4790 N.3   219  VAL219     -0.1245
    104  CA       -10.4510   30.6970   15.6520 C.3   219  VAL219      0.1561
    105  C        -10.0070   32.1740   15.8090 C.2   219  VAL219      0.2260
    106  O         -9.4720   32.7990   14.8630 O.2   219  VAL219     -0.2867
    107  CB        -9.1740   29.8090   15.5430 C.3   219  VAL219      0.0252
    108  CG1       -8.3570   29.9140   16.7950 C.3   219  VAL219      0.0019
    109  CG2       -9.5360   28.3590   15.2020 C.3   219  VAL219      0.0019
    110  N          1.9550   31.7530   14.1550 N.3   241  ILE241     -0.1231
    111  CA         0.6500   31.9680   14.7800 C.3   241  ILE241      0.1692
    112  C         -0.4600   31.1190   14.1520 C.2   241  ILE241      0.2592
    113  O         -1.3490   30.6120   14.8660 O.2   241  ILE241     -0.2718
    114  CB         0.2660   33.4470   14.7860 C.3   241  ILE241      0.0266
    115  CG1        1.3200   34.2670   15.5460 C.3   241  ILE241      0.0019
    116  CG2       -1.1160   33.6480   15.4190 C.3   241  ILE241      0.0020
    117  CD1        1.6790   33.7760   16.9130 C.3   241  ILE241      0.0001
    118  N         -0.4150   30.9170   12.8440 N.am  242  SER242     -0.1952
    119  CA        -1.4240   30.0430   12.2280 C.3   242  SER242      0.1924
    120  C         -1.4340   28.6480   12.8290 C.2   242  SER242      0.2314
    121  O         -2.5070   28.0040   12.9240 O.2   242  SER242     -0.2863
    122  CB        -1.2710   29.9380   10.7110 C.3   242  SER242      0.2116
    123  OG        -0.2300   29.0400   10.3850 O.3   242  SER242     -0.2180
    124  N         -3.7420   28.4160   15.8000 N.3   245  ALA245     -0.1245
    125  CA        -5.1410   28.2220   15.3890 C.3   245  ALA245      0.1562
    126  C         -5.4320   26.8260   14.9150 C.2   245  ALA245      0.2260
    127  O         -6.4440   26.2350   15.2560 O.2   245  ALA245     -0.2867
    128  CB        -5.4900   29.2170   14.3300 C.3   245  ALA245      0.0290
@<TRIPOS>BOND
     1    38    39    1
     2    49    50    2
     3    49    48    1
     4    39    40    1
     5    39    42    1
     6    47    40   am
     7    47    48    1
     8    40    41    2
     9    48    51    1
    10    51    52    1
    11    42    43    1
    12    43    44    1
    13    54    52   ar
    14    54    56   ar
    15    52    53   ar
    16    37    35    1
    17    56    57   ar
    18    44    46   am
    19    44    45    2
    20    53    55   ar
    21    34    33    2
    22    78    77    2
    23    10    11    1
    24     4     3    2
    25    35    36    1
    26    35    32    1
    27    57    55   ar
    28    57    58    1
    29    33    32    1
    30    79    81    1
    31    79    80    1
    32    79    76    1
    33    16    14    1
    34    14    11    1
    35    14    15    1
    36    77    76    1
    37    32    31    1
    38    11    12    1
    39    76    75    1
    40     3     2    1
    41     2     5    1
    42     2     1    1
    43    12    13    2
    44    12    17   am
    45    31    25   am
    46     5     6    1
    47     7     8    1
    48     7     6    1
    49    75    73   am
    50    26    25    2
    51    74    73    2
    52     8     9    1
    53    25    24    1
    54    17    18    1
    55    73    72    1
    56    24    23    1
    57    24    27    1
    58    18    19    1
    59    18    21    1
    60    72    71    1
    61    69    68    1
    62    19    20    2
    63    71    65   am
    64    27    28    1
    65    22    21    1
    66    68    70    1
    67    68    67    1
    68    65    64    1
    69    65    66    2
    70    64    67    1
    71    64    63    1
    72    28    29    2
    73    28    30   am
    74    62    61    2
    75    63    61   am
    76    61    60    1
    77    94    93   ar
    78    95    93   ar
    79    93    92    1
    80    60    59    1
    81    91    92    1
    82    91    88    1
    83   102   101    1
    84   102    96    1
    85    85    84    2
    86   101   100    1
    87    88    87    1
    88    88    89    1
    89    82    83    1
    90    84    87   am
    91    84    83    1
    92    96    89   am
    93    96    97    1
    94   123   122    1
    95    99    98    2
    96   100    97    1
    97    89    90    2
    98   122   119    1
    99    83    86    1
   100    97    98    1
   101   119   120    1
   102   119   118    1
   103   120   121    2
   104   118   112   am
   105   112   111    1
   106   112   113    2
   107   110   111    1
   108   128   125    1
   109   103   104    1
   110   111   114    1
   111   114   116    1
   112   114   115    1
   113   106   105    2
   114   126   127    2
   115   126   125    1
   116   109   107    1
   117   125   124    1
   118   107   104    1
   119   107   108    1
   120   115   117    1
   121   104   105    1
