@<TRIPOS>MOLECULE
tmp/5i6uA00.pdb
 229 220 0 0 0
SMALL
GASTEIGER

@<TRIPOS>ATOM
      1  N         -1.3960   -7.8720    8.1830 N.3   509  LYS509     -0.1245
      2  CA        -1.1730   -6.7880    9.1140 C.3   509  LYS509      0.1561
      3  C          0.2210   -6.2110    8.9110 C.2   509  LYS509      0.2260
      4  O          0.3540   -4.9860    8.9150 O.2   509  LYS509     -0.2867
      5  CB        -1.3730   -7.1660   10.5980 C.3   509  LYS509      0.0271
      6  CG        -1.3800   -5.8540   11.4560 C.3   509  LYS509      0.0035
      7  CD        -1.6990   -6.0140   12.9250 C.3   509  LYS509      0.0206
      8  CE        -1.0570   -4.8820   13.7630 C.3   509  LYS509      0.1093
      9  NZ        -1.2540   -5.0420   15.2710 N.3   509  LYS509     -0.1314
     10  N          0.4280    2.1500   14.7740 N.3   551  THR551     -0.1203
     11  CA        -0.1200    0.8400   14.3620 C.3   551  THR551      0.1994
     12  C         -1.6430    0.9290   14.2060 C.2   551  THR551      0.2618
     13  O         -2.1910    2.0080   14.1480 O.2   551  THR551     -0.2717
     14  CB         0.2190   -0.2770   15.3790 C.3   551  THR551      0.1784
     15  OG1       -0.3330   -1.5220   14.9310 O.3   551  THR551     -0.2211
     16  CG2       -0.3610    0.0440   16.7510 C.3   551  THR551      0.0376
     17  N         -2.3330   -0.1940   14.1320 N.am  552  PHE552     -0.1961
     18  CA        -3.8010   -0.1680   14.1620 C.3   552  PHE552      0.1771
     19  C         -4.3400   -1.4530   14.7500 C.2   552  PHE552      0.2619
     20  O         -3.7360   -2.5160   14.6020 O.2   552  PHE552     -0.2715
     21  CB        -4.4080    0.0710   12.7560 C.3   552  PHE552      0.0574
     22  CG        -4.1550   -1.0400   11.7600 C.ar  552  PHE552     -0.0200
     23  CD1       -5.1560   -1.9160   11.4130 C.ar  552  PHE552     -0.0042
     24  CD2       -2.9170   -1.1850   11.1530 C.ar  552  PHE552     -0.0042
     25  CE1       -4.9210   -2.9330   10.5090 C.ar  552  PHE552     -0.0003
     26  CE2       -2.6830   -2.2080   10.2450 C.ar  552  PHE552     -0.0003
     27  CZ        -3.6850   -3.0800    9.9360 C.ar  552  PHE552     -0.0000
     28  N         -5.4660   -1.3750   15.4380 N.am  553  MET553     -0.1977
     29  CA        -5.9980   -2.6110   15.9670 C.3   553  MET553      0.1605
     30  C         -6.7350   -3.3340   14.8690 C.2   553  MET553      0.2287
     31  O         -7.6190   -2.7810   14.1960 O.2   553  MET553     -0.2864
     32  CB        -6.9090   -2.4010   17.1630 C.3   553  MET553      0.0413
     33  CG        -7.6150   -3.6710   17.6010 C.3   553  MET553      0.0598
     34  SD        -8.1480   -3.4740   19.3060 S.3   553  MET553     -0.1393
     35  CE        -9.5180   -2.2920   19.1450 C.3   553  MET553      0.0692
     36  N         -9.2240    0.9770   14.5890 N.3   559  PRO559     -0.2102
     37  CA        -8.7900    2.2140   15.2220 C.3   559  PRO559      0.1504
     38  C         -7.2990    2.3790   15.1030 C.2   559  PRO559      0.2576
     39  O         -6.5630    1.3870   15.1670 O.2   559  PRO559     -0.2718
     40  CB        -9.1920    2.0180   16.6730 C.3   559  PRO559      0.0282
     41  CG        -9.2980    0.5410   16.8250 C.3   559  PRO559      0.0208
     42  CD        -9.8850    0.0900   15.5470 C.3   559  PRO559      0.0893
     43  N         -6.8520    3.6140   14.9410 N.am  560  LEU560     -0.1966
     44  CA        -5.4300    3.8730   14.7840 C.3   560  LEU560      0.1728
     45  C         -4.7710    4.1520   16.1130 C.2   560  LEU560      0.2616
     46  O         -5.4450    4.4420   17.0790 O.2   560  LEU560     -0.2715
     47  CB        -5.1990    5.0530   13.8410 C.3   560  LEU560      0.0311
     48  CG        -6.1690    5.0520   12.6830 C.3   560  LEU560      0.0022
     49  CD1       -6.1180    6.4130   12.0360 C.3   560  LEU560      0.0001
     50  CD2       -5.7220    3.9780   11.7510 C.3   560  LEU560      0.0001
     51  N         -3.4490    4.0890   16.1430 N.am  561  TRP561     -0.1974
     52  CA        -2.7050    4.1840   17.3810 C.3   561  TRP561      0.1640
     53  C         -1.5060    5.0450   17.1000 C.2   561  TRP561      0.2290
     54  O         -0.5520    4.5900   16.4430 O.2   561  TRP561     -0.2864
     55  CB        -2.2820    2.7920   17.8700 C.3   561  TRP561      0.0576
     56  CG        -1.3410    2.7420   19.0740 C.ar  561  TRP561      0.0006
     57  CD1        0.0050    2.9590   19.0760 C.ar  561  TRP561      0.0946
     58  CD2       -1.6910    2.4010   20.4250 C.ar  561  TRP561      0.0152
     59  NE1        0.5090    2.8250   20.3540 N.ar  561  TRP561     -0.2442
     60  CE2       -0.5000    2.4470   21.1940 C.ar  561  TRP561      0.0810
     61  CE3       -2.8840    2.0590   21.0630 C.ar  561  TRP561      0.0012
     62  CZ2       -0.4810    2.1800   22.5720 C.ar  561  TRP561      0.0191
     63  CZ3       -2.8660    1.7850   22.4200 C.ar  561  TRP561      0.0001
     64  CH2       -1.6850    1.8490   23.1630 C.ar  561  TRP561      0.0015
     65  N         -5.6250    7.6620   20.1960 N.3   578  ILE578     -0.1245
     66  CA        -6.3120    6.6680   19.4020 C.3   578  ILE578      0.1561
     67  C         -7.3300    7.3080   18.4730 C.2   578  ILE578      0.2260
     68  O         -8.1470    8.1300   18.9110 O.2   578  ILE578     -0.2867
     69  CB        -7.0340    5.6960   20.2670 C.3   578  ILE578      0.0252
     70  CG1       -6.0330    4.8370   20.9960 C.3   578  ILE578      0.0019
     71  CG2       -7.9240    4.8400   19.4360 C.3   578  ILE578      0.0019
     72  CD1       -6.6720    3.7670   21.7920 C.3   578  ILE578      0.0001
     73  N        -10.5480    6.7340   16.1860 N.3   580  LYS580     -0.1245
     74  CA       -11.5340    5.7130   15.9540 C.3   580  LYS580      0.1561
     75  C        -12.5620    6.3340   15.0750 C.2   580  LYS580      0.2260
     76  O        -13.0800    7.4100   15.4060 O.2   580  LYS580     -0.2867
     77  CB       -12.1580    5.1750   17.2490 C.3   580  LYS580      0.0271
     78  CG       -12.9940    3.9310   16.9310 C.3   580  LYS580      0.0035
     79  CD       -13.6990    3.3070   18.1090 C.3   580  LYS580      0.0206
     80  CE       -12.7670    3.1470   19.2610 C.3   580  LYS580      0.1093
     81  NZ       -13.4640    3.6850   20.4750 N.3   580  LYS580     -0.1314
     82  N        -19.5070    6.4960   25.5940 N.3   588  ASP588     -0.1239
     83  CA       -18.2930    6.5070   26.3960 C.3   588  ASP588      0.1674
     84  C        -17.9810    7.8600   27.0410 C.2   588  ASP588      0.2266
     85  O        -17.5800    7.8940   28.1950 O.2   588  ASP588     -0.2867
     86  CB       -17.0770    6.1180   25.5510 C.3   588  ASP588      0.1410
     87  CG       -17.2810    4.8370   24.7600 C.2   588  ASP588      0.3668
     88  OD1      -16.5280    3.8670   25.0280 O.co2 588  ASP588     -0.2456
     89  OD2      -18.1560    4.8140   23.8520 O.co2 588  ASP588     -0.2456
     90  N        -17.1970    8.0730   30.7940 N.3   592  LEU592     -0.1245
     91  CA       -15.9360    8.4030   31.4050 C.3   592  LEU592      0.1561
     92  C        -16.1040    9.6880   32.1470 C.2   592  LEU592      0.2260
     93  O        -15.4580    9.8970   33.1460 O.2   592  LEU592     -0.2867
     94  CB       -14.8210    8.5260   30.3830 C.3   592  LEU592      0.0270
     95  CG       -14.4340    7.1590   29.8520 C.3   592  LEU592      0.0019
     96  CD1      -13.6520    7.2770   28.5300 C.3   592  LEU592      0.0001
     97  CD2      -13.6980    6.3720   30.8860 C.3   592  LEU592      0.0001
     98  N         -8.8140    8.5610   31.7830 N.3   614  TYR614     -0.1241
     99  CA        -8.2800    8.9120   30.4570 C.3   614  TYR614      0.1605
    100  C         -9.3030    9.7100   29.5880 C.2   614  TYR614      0.2264
    101  O        -10.4930    9.4120   29.5780 O.2   614  TYR614     -0.2867
    102  CB        -7.7960    7.6240   29.7250 C.3   614  TYR614      0.0534
    103  CG        -8.8740    6.5630   29.4960 C.ar  614  TYR614     -0.0201
    104  CD1       -9.6990    6.6120   28.3760 C.ar  614  TYR614     -0.0009
    105  CD2       -9.0570    5.4980   30.3940 C.ar  614  TYR614     -0.0009
    106  CE1      -10.6490    5.6320   28.1360 C.ar  614  TYR614      0.0417
    107  CE2      -10.0420    4.5000   30.1650 C.ar  614  TYR614      0.0417
    108  CZ       -10.8450    4.5740   29.0310 C.ar  614  TYR614      0.1957
    109  OH       -11.8340    3.6170   28.7740 O.3   614  TYR614     -0.2866
    110  N        -11.6540   11.1070   26.7090 N.3   616  CYS616     -0.1235
    111  CA       -12.3970   10.6490   25.5460 C.3   616  CYS616      0.1677
    112  C        -13.1080   11.8140   24.8780 C.2   616  CYS616      0.2270
    113  O        -13.8630   12.5040   25.5140 O.2   616  CYS616     -0.2867
    114  CB       -13.4060    9.5930   25.9270 C.3   616  CYS616      0.0956
    115  SG       -14.3330    9.0680   24.4790 S.3   616  CYS616     -0.0801
    116  N         -9.4240    8.9830   21.5850 N.3   626  ILE626     -0.1231
    117  CA        -9.3020    8.4440   22.9240 C.3   626  ILE626      0.1692
    118  C         -7.8290    8.5120   23.3750 C.2   626  ILE626      0.2592
    119  O         -6.9220    8.2680   22.5910 O.2   626  ILE626     -0.2718
    120  CB        -9.7860    6.9630   23.0210 C.3   626  ILE626      0.0266
    121  CG1      -11.1900    6.7520   22.4720 C.3   626  ILE626      0.0019
    122  CG2       -9.6500    6.4060   24.4570 C.3   626  ILE626      0.0020
    123  CD1      -11.5530    5.2420   22.4180 C.3   626  ILE626      0.0001
    124  N         -7.6110    8.7960   24.6530 N.am  627  GLU627     -0.1966
    125  CA        -6.2840    8.9600   25.2000 C.3   627  GLU627      0.1733
    126  C         -5.6100    7.6520   25.5880 C.2   627  GLU627      0.2616
    127  O         -6.2240    6.7560   26.1570 O.2   627  GLU627     -0.2715
    128  CB        -6.3300    9.8400   26.4150 C.3   627  GLU627      0.0429
    129  CG        -5.0320   10.4350   26.6590 C.3   627  GLU627      0.1163
    130  CD        -4.6880   10.5910   28.1120 C.2   627  GLU627      0.3649
    131  OE1       -5.5530   10.9380   28.9650 O.co2 627  GLU627     -0.2457
    132  OE2       -3.4890   10.3770   28.3800 O.co2 627  GLU627     -0.2457
    133  N         -4.3200    7.5690   25.2830 N.am  628  VAL628     -0.1963
    134  CA        -3.6180    6.3380   25.4400 C.3   628  VAL628      0.1727
    135  C         -3.1080    6.2140   26.8540 C.2   628  VAL628      0.2616
    136  O         -2.5240    7.1510   27.4040 O.2   628  VAL628     -0.2715
    137  CB        -2.4740    6.2120   24.4350 C.3   628  VAL628      0.0290
    138  CG1       -1.6950    4.9390   24.7050 C.3   628  VAL628      0.0023
    139  CG2       -3.0390    6.1290   23.0460 C.3   628  VAL628      0.0023
    140  N         -3.3700    5.0540   27.4580 N.am  629  VAL629     -0.1977
    141  CA        -2.7490    4.7030   28.7260 C.3   629  VAL629      0.1596
    142  C         -1.5830    3.7410   28.4750 C.2   629  VAL629      0.2287
    143  O         -1.7530    2.5160   28.2400 O.2   629  VAL629     -0.2864
    144  CB        -3.7650    4.0950   29.6670 C.3   629  VAL629      0.0276
    145  CG1       -3.1770    3.9390   31.0760 C.3   629  VAL629      0.0022
    146  CG2       -5.0200    4.9730   29.6530 C.3   629  VAL629      0.0022
    147  N          0.0240   -0.6930   29.7670 N.3   632  SER632     -0.1202
    148  CA        -1.1460   -1.3680   30.2210 C.3   632  SER632      0.2020
    149  C         -1.5300   -2.4290   29.1940 C.2   632  SER632      0.2619
    150  O         -1.2760   -2.2900   27.9860 O.2   632  SER632     -0.2717
    151  CB        -2.2970   -0.3530   30.4790 C.3   632  SER632      0.2103
    152  OG        -3.0790   -0.0400   29.3160 O.3   632  SER632     -0.2182
    153  N         -2.1450   -3.4800   29.7110 N.am  633  ASP633     -0.1959
    154  CA        -2.5240   -4.6480   28.9680 C.3   633  ASP633      0.1840
    155  C         -3.9330   -4.9870   29.3550 C.2   633  ASP633      0.2622
    156  O         -4.3550   -4.7160   30.4810 O.2   633  ASP633     -0.2715
    157  CB        -1.6120   -5.8110   29.3160 C.3   633  ASP633      0.1450
    158  CG        -1.1950   -6.6040   28.1190 C.2   633  ASP633      0.3671
    159  OD1       -2.0520   -6.8830   27.2410 O.co2 633  ASP633     -0.2456
    160  OD2        0.0150   -6.9380   28.0820 O.co2 633  ASP633     -0.2456
    161  N         -4.6580   -5.6020   28.4390 N.am  634  THR634     -0.1951
    162  CA        -5.9460   -6.1900   28.7610 C.3   634  THR634      0.1897
    163  C         -5.7680   -7.4250   29.6900 C.2   634  THR634      0.2313
    164  O         -4.7800   -8.1800   29.5890 O.2   634  THR634     -0.2863
    165  CB        -6.6880   -6.5990   27.4600 C.3   634  THR634      0.1794
    166  OG1       -5.7700   -7.2990   26.6020 O.3   634  THR634     -0.2208
    167  CG2       -7.2050   -5.3440   26.7150 C.3   634  THR634      0.0378
    168  N         -5.5230  -10.5330   27.3540 N.3   637  ASN637     -0.1240
    169  CA        -4.1410  -10.8580   27.0060 C.3   637  ASN637      0.1653
    170  C         -3.4150  -11.5910   28.1060 C.2   637  ASN637      0.2266
    171  O         -3.0330  -12.7140   27.9590 O.2   637  ASN637     -0.2867
    172  CB        -3.3270   -9.6050   26.6650 C.3   637  ASN637      0.1155
    173  CG        -3.5260   -9.1520   25.2420 C.2   637  ASN637      0.2627
    174  OD1       -4.5560   -9.4420   24.6300 O.2   637  ASN637     -0.2716
    175  ND2       -2.5380   -8.4330   24.7010 N.am  637  ASN637     -0.0877
    176  N        -11.6200   -8.5980   27.8920 N.3   696  ASP696     -0.1239
    177  CA       -11.1210   -7.8190   26.7390 C.3   696  ASP696      0.1674
    178  C        -11.3110   -6.3300   26.9350 C.2   696  ASP696      0.2266
    179  O        -10.5130   -5.5320   26.4350 O.2   696  ASP696     -0.2867
    180  CB       -11.7910   -8.1990   25.4040 C.3   696  ASP696      0.1410
    181  CG       -11.4260   -9.5890   24.9330 C.2   696  ASP696      0.3668
    182  OD1      -10.2370   -9.8460   24.5880 O.co2 696  ASP696     -0.2456
    183  OD2      -12.3580  -10.4250   24.9070 O.co2 696  ASP696     -0.2456
    184  N         -8.6520   -3.3350   31.4850 N.3   699  MET699     -0.1245
    185  CA        -7.2120   -3.2570   31.3830 C.3   699  MET699      0.1570
    186  C         -6.5500   -3.0500   32.7450 C.2   699  MET699      0.2261
    187  O         -7.0710   -2.3940   33.6360 O.2   699  MET699     -0.2867
    188  CB        -6.8110   -2.1200   30.4610 C.3   699  MET699      0.0387
    189  CG        -7.3760   -2.2490   29.0650 C.3   699  MET699      0.0595
    190  SD        -6.5180   -1.2400   27.8310 S.3   699  MET699     -0.1393
    191  CE        -4.8630   -1.9890   27.8000 C.3   699  MET699      0.0692
    192  N         -8.7470   -0.5260   35.0320 N.3   707  PHE707     -0.1241
    193  CA        -9.7030    0.4550   34.5720 C.3   707  PHE707      0.1605
    194  C        -10.4480   -0.1770   33.4400 C.2   707  PHE707      0.2264
    195  O        -10.0190   -1.2020   32.9390 O.2   707  PHE707     -0.2867
    196  CB        -9.0240    1.7600   34.1280 C.3   707  PHE707      0.0534
    197  CG        -7.9850    1.5710   33.0870 C.ar  707  PHE707     -0.0203
    198  CD1       -8.3050    1.6550   31.7340 C.ar  707  PHE707     -0.0042
    199  CD2       -6.6550    1.3190   33.4340 C.ar  707  PHE707     -0.0042
    200  CE1       -7.2880    1.4780   30.7330 C.ar  707  PHE707     -0.0003
    201  CE2       -5.6350    1.1430   32.4310 C.ar  707  PHE707     -0.0003
    202  CZ        -5.9640    1.2310   31.0990 C.ar  707  PHE707     -0.0000
    203  N        -12.5600   -0.1600   29.5630 N.3   709  ILE709     -0.1231
    204  CA       -12.6430    0.4460   28.2350 C.3   709  ILE709      0.1692
    205  C        -13.8810   -0.0710   27.5040 C.2   709  ILE709      0.2592
    206  O        -14.5200   -0.9850   28.0030 O.2   709  ILE709     -0.2718
    207  CB       -11.3900    0.1350   27.4160 C.3   709  ILE709      0.0266
    208  CG1      -11.4110   -1.3210   26.9630 C.3   709  ILE709      0.0019
    209  CG2      -10.0980    0.4670   28.2040 C.3   709  ILE709      0.0020
    210  CD1      -10.1040   -1.7390   26.3710 C.3   709  ILE709      0.0001
    211  N        -14.2210    0.5140   26.3480 N.am  710  ASP710     -0.1960
    212  CA       -15.4070    0.1470   25.5270 C.3   710  ASP710      0.1840
    213  C        -16.7720    0.1920   26.2440 C.2   710  ASP710      0.2622
    214  O        -17.3550   -0.8670   26.5520 O.2   710  ASP710     -0.2715
    215  CB       -15.2560   -1.2640   24.9470 C.3   710  ASP710      0.1450
    216  CG       -14.0540   -1.3930   24.0310 C.2   710  ASP710      0.3671
    217  OD1      -13.1510   -0.5470   24.1690 O.co2 710  ASP710     -0.2456
    218  OD2      -14.0140   -2.3220   23.1780 O.co2 710  ASP710     -0.2456
    219  N        -17.2890    1.4020   26.4770 N.am  711  PHE711     -0.1974
    220  CA       -18.5680    1.5880   27.1460 C.3   711  PHE711      0.1639
    221  C        -19.6910    1.7140   26.1520 C.2   711  PHE711      0.2290
    222  O        -20.2480    2.7760   25.9510 O.2   711  PHE711     -0.2864
    223  CB       -18.5480    2.8260   28.0420 C.3   711  PHE711      0.0560
    224  CG       -17.4710    2.7980   29.0460 C.ar  711  PHE711     -0.0200
    225  CD1      -17.6220    2.0700   30.2150 C.ar  711  PHE711     -0.0042
    226  CD2      -16.2860    3.4730   28.8180 C.ar  711  PHE711     -0.0042
    227  CE1      -16.6000    2.0190   31.1700 C.ar  711  PHE711     -0.0003
    228  CE2      -15.2650    3.4300   29.7420 C.ar  711  PHE711     -0.0003
    229  CZ       -15.4230    2.6870   30.9430 C.ar  711  PHE711     -0.0000
@<TRIPOS>BOND
     1     1     2    1
     2     3     4    2
     3     3     2    1
     4     2     5    1
     5    27    26   ar
     6    27    25   ar
     7    26    24   ar
     8    25    23   ar
     9     5     6    1
    10    24    22   ar
    11    23    22   ar
    12     6     7    1
    13    50    48    1
    14    22    21    1
    15    49    48    1
    16    48    47    1
    17    21    18    1
    18     7     8    1
    19     8     9    1
    20    47    44    1
    21    17    18    1
    22    17    12   am
    23    13    12    2
    24    18    19    1
    25    31    30    2
    26    12    11    1
    27    11    10    1
    28    11    14    1
    29    36    37    1
    30    36    42    1
    31    20    19    2
    32    19    28   am
    33    44    43    1
    34    44    45    1
    35    30    29    1
    36    15    14    1
    37    43    38   am
    38    75    76    2
    39    75    74    1
    40    38    39    2
    41    38    37    1
    42    37    40    1
    43    14    16    1
    44    28    29    1
    45    42    41    1
    46    74    73    1
    47    74    77    1
    48    29    32    1
    49    45    51   am
    50    45    46    2
    51    51    52    1
    52    54    53    2
    53    40    41    1
    54    78    77    1
    55    78    79    1
    56    53    52    1
    57    32    33    1
    58    52    55    1
    59    33    34    1
    60    55    56    1
    61    79    80    1
    62    67    68    2
    63    67    66    1
    64    56    57   ar
    65    56    58   ar
    66    57    59   ar
    67    35    34    1
    68    80    81    1
    69    66    65    1
    70    66    69    1
    71    71    69    1
    72    69    70    1
    73    59    60   ar
    74    58    61   ar
    75    58    60   ar
    76    70    72    1
    77    61    63   ar
    78    60    62   ar
    79   116   117    1
    80   123   121    1
    81    63    64   ar
    82   121   120    1
    83    62    64   ar
    84   119   118    2
    85   117   120    1
    86   117   118    1
    87   120   122    1
    88   139   137    1
    89   218   216   ar
    90   118   124   am
    91    89    87   ar
    92   216   217   ar
    93   216   215    1
    94   137   138    1
    95   137   134    1
    96   115   114    1
    97   182   181   ar
    98   174   173    2
    99   124   125    1
   100   175   173   am
   101    87    88   ar
   102    87    86    1
   103   112   113    2
   104   112   111    1
   105   183   181   ar
   106   181   180    1
   107   215   212    1
   108   125   126    1
   109   125   128    1
   110   173   172    1
   111   133   134    1
   112   133   126   am
   113   180   177    1
   114   134   135    1
   115   212   213    1
   116   212   211    1
   117   111   114    1
   118   111   110    1
   119    86    83    1
   120   126   127    2
   121    82    83    1
   122   222   221    2
   123   221   220    1
   124   213   219   am
   125   213   214    2
   126   211   205   am
   127   210   208    1
   128    83    84    1
   129   128   129    1
   130   179   178    2
   131   219   220    1
   132   166   165    1
   133   129   130    1
   134   172   169    1
   135   167   165    1
   136   177   178    1
   137   177   176    1
   138   135   136    2
   139   135   140   am
   140   208   207    1
   141   169   168    1
   142   169   170    1
   143    84    85    2
   144   220   223    1
   145   159   158   ar
   146   207   209    1
   147   207   204    1
   148   140   141    1
   149   165   162    1
   150   205   206    2
   151   205   204    1
   152   191   190    1
   153   190   189    1
   154   171   170    2
   155   150   149    2
   156   223   224    1
   157   160   158   ar
   158   130   132   ar
   159   130   131   ar
   160   158   157    1
   161   106   104   ar
   162   106   108   ar
   163   204   203    1
   164   143   142    2
   165   104   103   ar
   166   161   162    1
   167   161   155   am
   168   142   141    1
   169    96    95    1
   170   141   144    1
   171   162   163    1
   172   109   108    1
   173   226   224   ar
   174   226   228   ar
   175   154   157    1
   176   154   155    1
   177   154   153    1
   178   108   107   ar
   179   224   225   ar
   180   189   188    1
   181   149   153   am
   182   149   148    1
   183   152   151    1
   184   155   156    2
   185   103   102    1
   186   103   105   ar
   187   101   100    2
   188   100    99    1
   189   164   163    2
   190   146   144    1
   191   144   145    1
   192   102    99    1
   193   228   229   ar
   194   147   148    1
   195    95    94    1
   196    95    97    1
   197   107   105   ar
   198   225   227   ar
   199   148   151    1
   200    94    91    1
   201    99    98    1
   202   188   185    1
   203   200   202   ar
   204   200   198   ar
   205    90    91    1
   206   229   227   ar
   207   202   201   ar
   208   185   184    1
   209   185   186    1
   210    91    92    1
   211   198   197   ar
   212    92    93    2
   213   201   199   ar
   214   186   187    2
   215   195   194    2
   216   197   199   ar
   217   197   196    1
   218   194   193    1
   219   196   193    1
   220   193   192    1
