@<TRIPOS>MOLECULE
tmp/5i6xA01.pdb
 152 149 0 0 0
SMALL
GASTEIGER

@<TRIPOS>ATOM
      1  N        -46.1870  -23.7910    4.1800 N.3    31  ARG31      -0.1245
      2  CA       -46.3230  -22.5470    3.4250 C.3    31  ARG31       0.1563
      3  C        -47.2420  -22.7280    2.2180 C.2    31  ARG31       0.2260
      4  O        -48.2460  -22.0220    2.0710 O.2    31  ARG31      -0.2867
      5  CB       -44.9480  -22.0510    2.9710 C.3    31  ARG31       0.0307
      6  CG       -44.9240  -20.6280    2.4420 C.3    31  ARG31       0.0489
      7  CD       -44.9640  -19.6200    3.5770 C.3    31  ARG31       0.2205
      8  NE       -44.7460  -18.2550    3.1060 N.pl3  31  ARG31      -0.0865
      9  CZ       -44.6430  -17.1970    3.9050 C.cat  31  ARG31       0.5346
     10  NH1      -44.4450  -15.9920    3.3900 N.pl3  31  ARG31       0.1354
     11  NH2      -44.7380  -17.3450    5.2190 N.pl3  31  ARG31       0.1354
     12  N        -50.9080  -20.9650    1.4610 N.3    35  ILE35      -0.1245
     13  CA       -51.0380  -20.0020    0.3710 C.3    35  ILE35       0.1561
     14  C        -51.9220  -20.5740   -0.7360 C.2    35  ILE35       0.2260
     15  O        -52.5360  -19.8330   -1.5020 O.2    35  ILE35      -0.2867
     16  CB       -49.6550  -19.5860   -0.1780 C.3    35  ILE35       0.0252
     17  CG1      -49.7850  -18.3630   -1.0900 C.3    35  ILE35       0.0019
     18  CG2      -49.0020  -20.7340   -0.9290 C.3    35  ILE35       0.0019
     19  CD1      -50.3970  -17.1570   -0.4110 C.3    35  ILE35       0.0001
     20  N        -48.6220  -13.2840   -7.9110 N.3   254  ILE254     -0.1231
     21  CA       -47.4250  -12.8920   -7.2330 C.3   254  ILE254      0.1692
     22  C        -47.1420  -13.8840   -6.1440 C.2   254  ILE254      0.2592
     23  O        -46.0150  -14.2850   -5.9830 O.2   254  ILE254     -0.2718
     24  CB       -47.5840  -11.5250   -6.6040 C.3   254  ILE254      0.0266
     25  CG1      -47.8030  -10.4930   -7.6880 C.3   254  ILE254      0.0019
     26  CG2      -46.3530  -11.1660   -5.8060 C.3   254  ILE254      0.0020
     27  CD1      -47.7190   -9.0750   -7.1850 C.3   254  ILE254      0.0001
     28  N        -48.1520  -14.3030   -5.4100 N.am  255  ASP255     -0.1974
     29  CA       -47.9120  -15.2020   -4.3020 C.3   255  ASP255      0.1709
     30  C        -47.3360  -16.4670   -4.8680 C.2   255  ASP255      0.2293
     31  O        -46.4340  -17.0590   -4.3160 O.2   255  ASP255     -0.2864
     32  CB       -49.1970  -15.4730   -3.5540 C.3   255  ASP255      0.1436
     33  CG       -49.7600  -14.2370   -2.9210 C.2   255  ASP255      0.3671
     34  OD1      -49.6830  -13.1730   -3.5480 O.co2 255  ASP255     -0.2456
     35  OD2      -50.2780  -14.3210   -1.7980 O.co2 255  ASP255     -0.2456
     36  N        -43.6300  -15.8680   -6.0560 N.3   258  ALA258     -0.1231
     37  CA       -42.7950  -15.7930   -4.8670 C.3   258  ALA258      0.1694
     38  C        -42.6550  -17.1650   -4.2190 C.2   258  ALA258      0.2591
     39  O        -41.5710  -17.5500   -3.7870 O.2   258  ALA258     -0.2718
     40  CB       -43.3730  -14.7940   -3.8770 C.3   258  ALA258      0.0304
     41  N        -43.7580  -17.9030   -4.1640 N.am  259  GLN259     -0.1979
     42  CA       -43.7620  -19.2280   -3.5560 C.3   259  GLN259      0.1601
     43  C        -42.8210  -20.1840   -4.2820 C.2   259  GLN259      0.2287
     44  O        -41.9330  -20.7810   -3.6670 O.2   259  GLN259     -0.2864
     45  CB       -45.1800  -19.8030   -3.5360 C.3   259  GLN259      0.0394
     46  CG       -45.2510  -21.2680   -3.1250 C.3   259  GLN259      0.0908
     47  CD       -44.7270  -21.5160   -1.7220 C.2   259  GLN259      0.2608
     48  OE1      -44.8190  -20.6520   -0.8500 O.2   259  GLN259     -0.2717
     49  NE2      -44.1710  -22.7010   -1.4990 N.am  259  GLN259     -0.0878
     50  N        -39.1020  -19.0530   -3.9360 N.3   262  PHE262     -0.1241
     51  CA       -38.5180  -19.2410   -2.6140 C.3   262  PHE262      0.1605
     52  C        -38.6260  -20.6800   -2.1130 C.2   262  PHE262      0.2264
     53  O        -38.1710  -20.9850   -1.0120 O.2   262  PHE262     -0.2867
     54  CB       -39.1680  -18.2920   -1.6040 C.3   262  PHE262      0.0534
     55  CG       -38.7340  -16.8600   -1.7510 C.ar  262  PHE262     -0.0203
     56  CD1      -37.4610  -16.4670   -1.3730 C.ar  262  PHE262     -0.0042
     57  CD2      -39.5990  -15.9060   -2.2600 C.ar  262  PHE262     -0.0042
     58  CE1      -37.0600  -15.1510   -1.5050 C.ar  262  PHE262     -0.0003
     59  CE2      -39.2030  -14.5910   -2.3950 C.ar  262  PHE262     -0.0003
     60  CZ       -37.9330  -14.2140   -2.0180 C.ar  262  PHE262     -0.0000
     61  N        -37.2140  -13.1150    8.3090 N.3   420  GLU420     -0.1231
     62  CA       -37.7500  -13.9880    7.2700 C.3   420  GLU420      0.1699
     63  C        -38.4990  -13.1910    6.2100 C.2   420  GLU420      0.2592
     64  O        -38.5220  -13.5630    5.0360 O.2   420  GLU420     -0.2718
     65  CB       -38.6710  -15.0450    7.8830 C.3   420  GLU420      0.0402
     66  CG       -39.0760  -16.1520    6.9260 C.3   420  GLU420      0.1161
     67  CD       -39.8180  -17.2770    7.6200 C.2   420  GLU420      0.3649
     68  OE1      -40.1970  -18.2520    6.9370 O.co2 420  GLU420     -0.2457
     69  OE2      -40.0200  -17.1880    8.8500 O.co2 420  GLU420     -0.2457
     70  N        -39.1050  -12.0870    6.6320 N.am  421  GLU421     -0.1966
     71  CA       -39.9370  -11.2880    5.7450 C.3   421  GLU421      0.1733
     72  C        -39.1770  -10.1080    5.1540 C.2   421  GLU421      0.2616
     73  O        -39.1310   -9.9310    3.9380 O.2   421  GLU421     -0.2715
     74  CB       -41.1760  -10.7880    6.4920 C.3   421  GLU421      0.0429
     75  CG       -42.0780  -11.8910    6.9870 C.3   421  GLU421      0.1163
     76  CD       -42.7490  -12.6930    5.9190 C.2   421  GLU421      0.3649
     77  OE1      -42.7990  -12.2650    4.7350 O.co2 421  GLU421     -0.2457
     78  OE2      -43.3300  -13.7180    6.3060 O.co2 421  GLU421     -0.2457
     79  N        -38.5770   -9.3040    6.0220 N.am  422  TYR422     -0.1974
     80  CA       -37.9390   -8.0650    5.5930 C.3   422  TYR422      0.1639
     81  C        -36.5670   -8.2770    4.9610 C.2   422  TYR422      0.2290
     82  O        -36.2590   -7.6940    3.9220 O.2   422  TYR422     -0.2864
     83  CB       -37.8110   -7.1080    6.7760 C.3   422  TYR422      0.0560
     84  CG       -39.0830   -6.3640    7.1050 C.ar  422  TYR422     -0.0198
     85  CD1      -39.9610   -5.9730    6.1030 C.ar  422  TYR422     -0.0009
     86  CD2      -39.4060   -6.0550    8.4170 C.ar  422  TYR422     -0.0009
     87  CE1      -41.1250   -5.2910    6.4010 C.ar  422  TYR422      0.0417
     88  CE2      -40.5670   -5.3770    8.7260 C.ar  422  TYR422      0.0417
     89  CZ       -41.4230   -4.9960    7.7150 C.ar  422  TYR422      0.1957
     90  OH       -42.5790   -4.3180    8.0250 O.3   422  TYR422     -0.2866
     91  N        -35.8190  -11.8250    1.7090 N.3   425  GLY425     -0.1210
     92  CA       -36.5730  -12.1150    0.5210 C.3   425  GLY425      0.1940
     93  C        -36.3790  -11.2170   -0.6570 C.2   425  GLY425      0.2453
     94  O        -36.2840  -11.6950   -1.7700 O.2   425  GLY425     -0.2732
     95  N        -36.4340   -9.9290   -0.4550 N.am  426  PRO426     -0.2728
     96  CA       -36.3060   -8.9920   -1.5470 C.3   426  PRO426      0.1401
     97  C        -34.9470   -9.0580   -2.1770 C.2   426  PRO426      0.2269
     98  O        -34.8320   -8.9960   -3.3830 O.2   426  PRO426     -0.2865
     99  CB       -36.3680   -7.6930   -0.8170 C.3   426  PRO426      0.0296
    100  CG       -35.5610   -7.9930    0.4010 C.3   426  PRO426      0.0237
    101  CD       -35.6890   -9.4600    0.7010 C.3   426  PRO426      0.0939
    102  N        -43.0400   -6.6390   -4.3060 N.3   483  PHE483     -0.1227
    103  CA       -42.6050   -6.6770   -2.9370 C.3   483  PHE483      0.1736
    104  C        -42.3430   -5.2870   -2.4610 C.2   483  PHE483      0.2595
    105  O        -42.8540   -4.8680   -1.4620 O.2   483  PHE483     -0.2718
    106  CB       -41.3190   -7.4610   -2.8380 C.3   483  PHE483      0.0547
    107  CG       -41.5260   -8.9160   -2.6280 C.ar  483  PHE483     -0.0202
    108  CD1      -42.5320   -9.5700   -3.2720 C.ar  483  PHE483     -0.0042
    109  CD2      -40.7170   -9.6170   -1.7830 C.ar  483  PHE483     -0.0042
    110  CE1      -42.7280  -10.9120   -3.0800 C.ar  483  PHE483     -0.0003
    111  CE2      -40.9030  -10.9570   -1.5870 C.ar  483  PHE483     -0.0003
    112  CZ       -41.9120  -11.6070   -2.2340 C.ar  483  PHE483     -0.0000
    113  N        -41.5110   -4.5700   -3.1790 N.am  484  LEU484     -0.1980
    114  CA       -41.1600   -3.2230   -2.7680 C.3   484  LEU484      0.1596
    115  C        -42.3870   -2.3490   -2.6480 C.2   484  LEU484      0.2287
    116  O        -42.4870   -1.5260   -1.7630 O.2   484  LEU484     -0.2864
    117  CB       -40.1900   -2.5920   -3.7560 C.3   484  LEU484      0.0297
    118  CG       -38.8160   -3.2310   -3.8700 C.3   484  LEU484      0.0022
    119  CD1      -38.0420   -2.5770   -4.9900 C.3   484  LEU484      0.0001
    120  CD2      -38.0870   -3.0680   -2.5540 C.3   484  LEU484      0.0001
    121  N        -45.3780   -3.1010   -1.8640 N.3   486  SER486     -0.1203
    122  CA       -46.2570   -3.3750   -0.7600 C.3   486  SER486      0.2005
    123  C        -45.5670   -4.0980    0.3450 C.2   486  SER486      0.2461
    124  O        -45.8340   -5.2560    0.6200 O.2   486  SER486     -0.2732
    125  CB       -47.4590   -4.1530   -1.2340 C.3   486  SER486      0.2103
    126  OG       -48.2400   -3.3260   -2.0560 O.3   486  SER486     -0.2182
    127  N        -44.6900   -3.4290    1.0480 N.am  487  PRO487     -0.2718
    128  CA       -44.0210   -4.0590    2.1760 C.3   487  PRO487      0.1520
    129  C        -45.0660   -4.4210    3.1620 C.2   487  PRO487      0.2440
    130  O        -46.0920   -3.7940    3.1690 O.2   487  PRO487     -0.2731
    131  CB       -43.2280   -2.9340    2.7790 C.3   487  PRO487      0.0310
    132  CG       -43.1360   -1.9130    1.7340 C.3   487  PRO487      0.0237
    133  CD       -44.3880   -2.0100    0.9570 C.3   487  PRO487      0.0939
    134  N        -44.8780   -5.4390    3.9500 N.am  488  PRO488     -0.2727
    135  CA       -45.9980   -5.9870    4.6640 C.3   488  PRO488      0.1402
    136  C        -45.9820   -5.5030    6.0670 C.2   488  PRO488      0.2269
    137  O        -44.9340   -5.5000    6.6770 O.2   488  PRO488     -0.2865
    138  CB       -45.6410   -7.4410    4.7000 C.3   488  PRO488      0.0296
    139  CG       -44.1720   -7.4050    4.9170 C.3   488  PRO488      0.0237
    140  CD       -43.6530   -6.1060    4.3740 C.3   488  PRO488      0.0939
    141  N        -35.1680   -2.9570    6.3330 N.3   506  TYR506     -0.1241
    142  CA       -34.5060   -2.4480    5.1410 C.3   506  TYR506      0.1605
    143  C        -33.0060   -2.4060    5.3570 C.2   506  TYR506      0.2264
    144  O        -32.2340   -2.6940    4.4420 O.2   506  TYR506     -0.2867
    145  CB       -35.0330   -1.0630    4.7680 C.3   506  TYR506      0.0534
    146  CG       -36.0750   -1.1020    3.6780 C.ar  506  TYR506     -0.0201
    147  CD1      -37.4110   -1.3270    3.9760 C.ar  506  TYR506     -0.0009
    148  CD2      -35.7220   -0.9250    2.3480 C.ar  506  TYR506     -0.0009
    149  CE1      -38.3670   -1.3690    2.9800 C.ar  506  TYR506      0.0417
    150  CE2      -36.6710   -0.9670    1.3470 C.ar  506  TYR506      0.0417
    151  CZ       -37.9920   -1.1880    1.6680 C.ar  506  TYR506      0.1957
    152  OH       -38.9420   -1.2290    0.6750 O.3   506  TYR506     -0.2866
@<TRIPOS>BOND
     1    20    21    1
     2    25    27    1
     3    25    24    1
     4    21    24    1
     5    21    22    1
     6    24    26    1
     7    22    23    2
     8    22    28   am
     9    36    37    1
    10    28    29    1
    11   119   118    1
    12    30    31    2
    13    30    29    1
    14    37    38    1
    15    37    40    1
    16   102   103    1
    17    29    32    1
    18    43    44    2
    19    43    42    1
    20    38    41   am
    21    38    39    2
    22    41    42    1
    23    50    51    1
    24   118   117    1
    25   118   120    1
    26   117   114    1
    27    42    45    1
    28    32    33    1
    29    34    33   ar
    30    45    46    1
    31    98    97    2
    32   108   110   ar
    33   108   107   ar
    34   113   114    1
    35   113   104   am
    36    46    47    1
    37   110   112   ar
    38   103   106    1
    39   103   104    1
    40    33    35   ar
    41   106   107    1
    42   114   115    1
    43   115   116    2
    44   107   109   ar
    45    51    52    1
    46    51    54    1
    47   104   105    2
    48    59    57   ar
    49    59    60   ar
    50    57    55   ar
    51   112   111   ar
    52    97    96    1
    53    52    53    2
    54   126   125    1
    55    60    58   ar
    56   121   122    1
    57   109   111   ar
    58    94    93    2
    59    55    54    1
    60    55    56   ar
    61    47    49   am
    62    47    48    2
    63    96    99    1
    64    96    95    1
    65    58    56   ar
    66    15    14    2
    67   125   122    1
    68    17    19    1
    69    17    16    1
    70    18    16    1
    71    99   100    1
    72   122   123    1
    73    14    13    1
    74    93    95   am
    75    93    92    1
    76    95   101    1
    77    16    13    1
    78   123   124    2
    79   123   127   am
    80    13    12    1
    81   100   101    1
    82    92    91    1
    83   152   151    1
    84   133   127    1
    85   133   132    1
    86   127   128    1
    87   150   151   ar
    88   150   148   ar
    89   151   149   ar
    90   132   131    1
    91     4     3    2
    92   128   131    1
    93   128   129    1
    94     3     2    1
    95   148   146   ar
    96     6     5    1
    97     6     7    1
    98     5     2    1
    99   149   147   ar
   100     8     7    1
   101     8     9    2
   102   129   130    2
   103   129   134   am
   104    10     9    1
   105     2     1    1
   106   146   147   ar
   107   146   145    1
   108     9    11    1
   109    82    81    2
   110    73    72    2
   111   134   140    1
   112   134   135    1
   113   140   139    1
   114   144   143    2
   115   135   138    1
   116   135   136    1
   117   138   139    1
   118    77    76   ar
   119   145   142    1
   120    81    80    1
   121    64    63    2
   122   142   143    1
   123   142   141    1
   124    72    71    1
   125    72    79   am
   126    80    79    1
   127    80    83    1
   128    71    74    1
   129    71    70    1
   130    76    78   ar
   131    76    75    1
   132   136   137    2
   133    85    87   ar
   134    85    84   ar
   135    63    70   am
   136    63    62    1
   137    87    89   ar
   138    74    75    1
   139    83    84    1
   140    66    67    1
   141    66    65    1
   142    68    67   ar
   143    84    86   ar
   144    62    65    1
   145    62    61    1
   146    67    69   ar
   147    89    90    1
   148    89    88   ar
   149    86    88   ar
