@<TRIPOS>MOLECULE
tmp/5i6xA02.pdb
 152 146 0 0 0
SMALL
GASTEIGER

@<TRIPOS>ATOM
      1  N        -31.9620  -30.1920   -0.4110 N.3    22  TYR22      -0.1227
      2  CA       -31.9250  -28.7400   -0.2970 C.3    22  TYR22       0.1736
      3  C        -33.2600  -28.1430   -0.7190 C.2    22  TYR22       0.2595
      4  O        -33.7670  -27.2170   -0.0860 O.2    22  TYR22      -0.2718
      5  CB       -30.7980  -28.1620   -1.1530 C.3    22  TYR22       0.0548
      6  CG       -30.9270  -26.6790   -1.4330 C.ar   22  TYR22      -0.0200
      7  CD1      -30.6120  -25.7370   -0.4620 C.ar   22  TYR22      -0.0009
      8  CD2      -31.3540  -26.2220   -2.6720 C.ar   22  TYR22      -0.0009
      9  CE1      -30.7220  -24.3820   -0.7180 C.ar   22  TYR22       0.0417
     10  CE2      -31.4690  -24.8700   -2.9360 C.ar   22  TYR22       0.0417
     11  CZ       -31.1510  -23.9560   -1.9570 C.ar   22  TYR22       0.1957
     12  OH       -31.2630  -22.6120   -2.2200 O.3    22  TYR22      -0.2866
     13  N        -33.8170  -28.6420   -1.8000 N.am   23  ALA23      -0.1980
     14  CA       -35.0220  -28.0460   -2.3360 C.3    23  ALA23       0.1597
     15  C        -36.1510  -28.1440   -1.3500 C.2    23  ALA23       0.2287
     16  O        -36.9780  -27.2480   -1.2430 O.2    23  ALA23      -0.2864
     17  CB       -35.4100  -28.7230   -3.6270 C.3    23  ALA23       0.0319
     18  N        -37.9180  -28.4300    2.2180 N.3    25  ASP25      -0.1239
     19  CA       -37.7760  -27.9010    3.5680 C.3    25  ASP25       0.1674
     20  C        -39.0930  -27.6870    4.3020 C.2    25  ASP25       0.2266
     21  O        -40.0920  -28.3440    4.0100 O.2    25  ASP25      -0.2867
     22  CB       -37.0620  -26.5480    3.5440 C.3    25  ASP25       0.1410
     23  CG       -37.8660  -25.4750    2.8330 C.2    25  ASP25       0.3668
     24  OD1      -39.0470  -25.7250    2.5050 O.co2  25  ASP25      -0.2456
     25  OD2      -37.3130  -24.3780    2.6030 O.co2  25  ASP25      -0.2456
     26  N        -26.9450  -15.5920    3.4370 N.3    96  ALA96      -0.1245
     27  CA       -26.9590  -16.8870    4.1070 C.3    96  ALA96       0.1562
     28  C        -26.8210  -16.7270    5.6170 C.2    96  ALA96       0.2260
     29  O        -27.5400  -17.3790    6.3760 O.2    96  ALA96      -0.2867
     30  CB       -25.8540  -17.7770    3.5640 C.3    96  ALA96       0.0290
     31  N        -29.8800  -15.7330    6.9940 N.3    99  ILE99      -0.1231
     32  CA       -30.7730  -16.8810    6.9320 C.3    99  ILE99       0.1692
     33  C        -30.4170  -17.8720    8.0370 C.2    99  ILE99       0.2591
     34  O        -31.3000  -18.4450    8.6730 O.2    99  ILE99      -0.2718
     35  CB       -30.7280  -17.5610    5.5480 C.3    99  ILE99       0.0266
     36  CG1      -31.1310  -16.5770    4.4480 C.3    99  ILE99       0.0019
     37  CG2      -31.6390  -18.7810    5.5200 C.3    99  ILE99       0.0020
     38  CD1      -31.2010  -17.1950    3.0640 C.3    99  ILE99       0.0001
     39  N        -29.1220  -18.0550    8.2760 N.am  100  ALA100     -0.1980
     40  CA       -28.6570  -19.0640    9.2250 C.3   100  ALA100      0.1597
     41  C        -28.8100  -18.6070   10.6740 C.2   100  ALA100      0.2287
     42  O        -28.4800  -19.3450   11.6030 O.2   100  ALA100     -0.2864
     43  CB       -27.2090  -19.4280    8.9380 C.3   100  ALA100      0.0319
     44  N        -33.0450  -19.7450   10.8970 N.3   103  TYR103     -0.1227
     45  CA       -33.4870  -21.0090   10.3090 C.3   103  TYR103      0.1736
     46  C        -33.2190  -22.2060   11.2210 C.2   103  TYR103      0.2595
     47  O        -34.0080  -23.1510   11.2600 O.2   103  TYR103     -0.2718
     48  CB       -32.8120  -21.2330    8.9520 C.3   103  TYR103      0.0548
     49  CG       -33.4780  -22.2980    8.1080 C.ar  103  TYR103     -0.0200
     50  CD1      -33.1180  -23.6340    8.2270 C.ar  103  TYR103     -0.0009
     51  CD2      -34.4690  -21.9670    7.1950 C.ar  103  TYR103     -0.0009
     52  CE1      -33.7280  -24.6100    7.4600 C.ar  103  TYR103      0.0417
     53  CE2      -35.0850  -22.9350    6.4240 C.ar  103  TYR103      0.0417
     54  CZ       -34.7110  -24.2540    6.5620 C.ar  103  TYR103      0.1957
     55  OH       -35.3190  -25.2200    5.7960 O.3   103  TYR103     -0.2866
     56  N        -32.1110  -22.1650   11.9530 N.am  104  ASN104     -0.1974
     57  CA       -31.7260  -23.2830   12.8080 C.3   104  ASN104      0.1688
     58  C        -32.3590  -23.1910   14.1920 C.2   104  ASN104      0.2292
     59  O        -32.4040  -24.1760   14.9300 O.2   104  ASN104     -0.2864
     60  CB       -30.2050  -23.3580   12.9300 C.3   104  ASN104      0.1181
     61  CG       -29.5310  -23.6080   11.5980 C.2   104  ASN104      0.2629
     62  OD1      -29.4820  -24.7400   11.1170 O.2   104  ASN104     -0.2716
     63  ND2      -29.0070  -22.5490   10.9920 N.am  104  ASN104     -0.0877
     64  N        -40.5000  -19.5510   -6.4090 N.3   261  PHE261     -0.1227
     65  CA       -39.1270  -19.0630   -6.3570 C.3   261  PHE261      0.1736
     66  C        -38.4640  -19.4320   -5.0380 C.2   261  PHE261      0.2595
     67  O        -37.3990  -20.0460   -5.0190 O.2   261  PHE261     -0.2718
     68  CB       -39.0650  -17.5470   -6.5480 C.3   261  PHE261      0.0547
     69  CG       -37.7060  -16.9650   -6.2750 C.ar  261  PHE261     -0.0202
     70  CD1      -36.7060  -17.0340   -7.2310 C.ar  261  PHE261     -0.0042
     71  CD2      -37.4220  -16.3640   -5.0590 C.ar  261  PHE261     -0.0042
     72  CE1      -35.4520  -16.5080   -6.9820 C.ar  261  PHE261     -0.0003
     73  CE2      -36.1690  -15.8380   -4.8050 C.ar  261  PHE261     -0.0003
     74  CZ       -35.1840  -15.9090   -5.7690 C.ar  261  PHE261     -0.0000
     75  N        -39.1020  -19.0530   -3.9360 N.am  262  PHE262     -0.1962
     76  CA       -38.5180  -19.2410   -2.6140 C.3   262  PHE262      0.1771
     77  C        -38.6260  -20.6800   -2.1130 C.2   262  PHE262      0.2620
     78  O        -38.1710  -20.9850   -1.0120 O.2   262  PHE262     -0.2715
     79  CB       -39.1680  -18.2920   -1.6040 C.3   262  PHE262      0.0574
     80  CG       -38.7340  -16.8600   -1.7510 C.ar  262  PHE262     -0.0200
     81  CD1      -37.4610  -16.4670   -1.3730 C.ar  262  PHE262     -0.0042
     82  CD2      -39.5990  -15.9060   -2.2600 C.ar  262  PHE262     -0.0042
     83  CE1      -37.0600  -15.1510   -1.5050 C.ar  262  PHE262     -0.0003
     84  CE2      -39.2030  -14.5910   -2.3950 C.ar  262  PHE262     -0.0003
     85  CZ       -37.9330  -14.2140   -2.0180 C.ar  262  PHE262     -0.0000
     86  N        -39.2260  -21.5660   -2.9040 N.am  263  SER263     -0.1936
     87  CA       -39.1800  -22.9830   -2.5590 C.3   263  SER263      0.2055
     88  C        -38.2370  -23.7330   -3.4860 C.2   263  SER263      0.2643
     89  O        -37.8080  -24.8450   -3.1740 O.2   263  SER263     -0.2714
     90  CB       -40.5640  -23.6260   -2.6010 C.3   263  SER263      0.2130
     91  OG       -40.4510  -25.0100   -2.3030 O.3   263  SER263     -0.2179
     92  N        -37.9170  -23.1290   -4.6260 N.am  264  LEU264     -0.1963
     93  CA       -36.8860  -23.6830   -5.4990 C.3   264  LEU264      0.1728
     94  C        -35.5490  -22.9950   -5.2340 C.2   264  LEU264      0.2616
     95  O        -34.4890  -23.5970   -5.4030 O.2   264  LEU264     -0.2715
     96  CB       -37.2810  -23.5460   -6.9710 C.3   264  LEU264      0.0311
     97  CG       -38.2980  -24.5710   -7.4790 C.3   264  LEU264      0.0022
     98  CD1      -38.5820  -24.3700   -8.9600 C.3   264  LEU264      0.0001
     99  CD2      -37.8100  -25.9880   -7.2130 C.3   264  LEU264      0.0001
    100  N        -35.6180  -21.7370   -4.8040 N.am  265  GLY265     -0.1955
    101  CA       -34.4430  -20.9430   -4.4760 C.3   265  GLY265      0.1869
    102  C        -33.2860  -20.9730   -5.4570 C.2   265  GLY265      0.2309
    103  O        -32.1780  -21.3670   -5.0950 O.2   265  GLY265     -0.2863
    104  N        -29.0140  -18.7690   -5.7950 N.3   268  PHE268     -0.1241
    105  CA       -28.5410  -18.5470   -4.4360 C.3   268  PHE268      0.1605
    106  C        -27.1170  -19.0750   -4.2900 C.2   268  PHE268      0.2264
    107  O        -26.4680  -18.8760   -3.2650 O.2   268  PHE268     -0.2867
    108  CB       -29.4750  -19.2140   -3.4240 C.3   268  PHE268      0.0534
    109  CG       -29.1580  -18.8770   -1.9960 C.ar  268  PHE268     -0.0203
    110  CD1      -29.4440  -17.6220   -1.4860 C.ar  268  PHE268     -0.0042
    111  CD2      -28.5760  -19.8160   -1.1630 C.ar  268  PHE268     -0.0042
    112  CE1      -29.1530  -17.3100   -0.1710 C.ar  268  PHE268     -0.0003
    113  CE2      -28.2820  -19.5110    0.1520 C.ar  268  PHE268     -0.0003
    114  CZ       -28.5710  -18.2560    0.6490 C.ar  268  PHE268     -0.0000
    115  N        -31.4770  -28.8290    3.9980 N.3   365  SER365     -0.1202
    116  CA       -31.5080  -27.4750    3.4700 C.3   365  SER365      0.2020
    117  C        -30.4110  -26.6170    4.0990 C.2   365  SER365      0.2619
    118  O        -29.7770  -25.8050    3.4180 O.2   365  SER365     -0.2717
    119  CB       -32.8770  -26.8400    3.7080 C.3   365  SER365      0.2103
    120  OG       -33.8730  -27.4850    2.9370 O.3   365  SER365     -0.2182
    121  N        -30.1840  -26.8120    5.3960 N.am  366  SER366     -0.1951
    122  CA       -29.1320  -26.0880    6.0930 C.3   366  SER366      0.1924
    123  C        -27.7460  -26.5340    5.6120 C.2   366  SER366      0.2314
    124  O        -26.8610  -25.6950    5.3780 O.2   366  SER366     -0.2863
    125  CB       -29.2650  -26.2830    7.6050 C.3   366  SER366      0.2116
    126  OG       -28.4510  -25.3700    8.3140 O.3   366  SER366     -0.2180
    127  N        -27.1990  -24.9660    2.3650 N.3   369  GLY369     -0.1210
    128  CA       -27.0740  -23.5400    2.6020 C.3   369  GLY369      0.1956
    129  C        -25.6700  -23.1140    2.9850 C.2   369  GLY369      0.2611
    130  O        -25.1110  -22.1910    2.3900 O.2   369  GLY369     -0.2717
    131  N        -25.0930  -23.7890    3.9750 N.am  370  LEU370     -0.1979
    132  CA       -23.7150  -23.5060    4.3660 C.3   370  LEU370      0.1596
    133  C        -22.7420  -23.9600    3.2860 C.2   370  LEU370      0.2287
    134  O        -21.7470  -23.2870    3.0020 O.2   370  LEU370     -0.2864
    135  CB       -23.3730  -24.1910    5.6870 C.3   370  LEU370      0.0297
    136  CG       -24.0920  -23.6890    6.9350 C.3   370  LEU370      0.0022
    137  CD1      -23.6140  -24.4670    8.1470 C.3   370  LEU370      0.0001
    138  CD2      -23.8610  -22.1970    7.1200 C.3   370  LEU370      0.0001
    139  N        -34.3080  -11.1680    4.0570 N.3   424  THR424     -0.1218
    140  CA       -33.8490  -12.0600    3.0310 C.3   424  THR424      0.1862
    141  C        -34.5100  -11.8980    1.6970 C.2   424  THR424      0.2287
    142  O        -33.8710  -11.8240    0.6890 O.2   424  THR424     -0.2866
    143  CB       -34.0760  -13.5050    3.4650 C.3   424  THR424      0.1770
    144  OG1      -35.4530  -13.8530    3.2950 O.3   424  THR424     -0.2211
    145  CG2      -33.7060  -13.6770    4.9210 C.3   424  THR424      0.0375
    146  N        -32.5430  -11.4470   -2.2040 N.3   428  VAL428     -0.1245
    147  CA       -32.1840  -12.6330   -2.9310 C.3   428  VAL428      0.1561
    148  C        -32.8140  -12.4990   -4.2810 C.2   428  VAL428      0.2260
    149  O        -32.1890  -12.7100   -5.2920 O.2   428  VAL428     -0.2867
    150  CB       -32.7770  -13.8590   -2.2770 C.3   428  VAL428      0.0252
    151  CG1      -32.5270  -15.0830   -3.1090 C.3   428  VAL428      0.0019
    152  CG2      -32.1980  -14.0420   -0.9090 C.3   428  VAL428      0.0019
@<TRIPOS>BOND
     1    98    97    1
     2    97    99    1
     3    97    96    1
     4    70    72   ar
     5    70    69   ar
     6    72    74   ar
     7    96    93    1
     8    68    65    1
     9    68    69    1
    10    64    65    1
    11    65    66    1
    12    69    71   ar
    13   104   105    1
    14    74    73   ar
    15    93    94    1
    16    93    92    1
    17   102   103    2
    18   102   101    1
    19    95    94    2
    20   149   148    2
    21    94   100   am
    22    71    73   ar
    23    66    67    2
    24    66    75   am
    25   100   101    1
    26    92    88   am
    27   105   106    1
    28   105   108    1
    29   106   107    2
    30   148   147    1
    31    75    76    1
    32    17    14    1
    33    88    89    2
    34    88    87    1
    35   108   109    1
    36   151   150    1
    37    10     8   ar
    38    10    11   ar
    39   147   150    1
    40   147   146    1
    41    86    87    1
    42    86    77   am
    43     8     6   ar
    44    76    77    1
    45    76    79    1
    46    90    87    1
    47    90    91    1
    48    84    82   ar
    49    84    85   ar
    50    14    13    1
    51    14    15    1
    52   150   152    1
    53    82    80   ar
    54    12    11    1
    55    77    78    2
    56    85    83   ar
    57   109   110   ar
    58   109   111   ar
    59    11     9   ar
    60    13     3   am
    61    80    79    1
    62    80    81   ar
    63    83    81   ar
    64   110   112   ar
    65     6     5    1
    66     6     7   ar
    67    15    16    2
    68   111   113   ar
    69     5     2    1
    70     3     2    1
    71     3     4    2
    72     9     7   ar
    73     1     2    1
    74   112   114   ar
    75   113   114   ar
    76   142   141    2
    77   141   140    1
    78    18    19    1
    79   127   128    1
    80   130   129    2
    81    24    23   ar
    82   128   129    1
    83    25    23   ar
    84    23    22    1
    85   120   119    1
    86   129   131   am
    87   134   133    2
    88   140   143    1
    89   140   139    1
    90    38    36    1
    91   133   132    1
    92   144   143    1
    93   118   117    2
    94    26    27    1
    95   143   145    1
    96   116   119    1
    97   116   115    1
    98   116   117    1
    99    22    19    1
   100    30    27    1
   101    19    20    1
   102   131   132    1
   103    21    20    2
   104   117   121   am
   105    27    28    1
   106   132   135    1
   107    36    35    1
   108   124   123    2
   109   121   122    1
   110    37    35    1
   111    35    32    1
   112   123   122    1
   113    28    29    2
   114   135   136    1
   115    55    54    1
   116   122   125    1
   117    53    54   ar
   118    53    51   ar
   119    54    52   ar
   120    32    31    1
   121    32    33    1
   122   136   138    1
   123   136   137    1
   124    51    49   ar
   125    52    50   ar
   126   125   126    1
   127    33    39   am
   128    33    34    2
   129    49    50   ar
   130    49    48    1
   131    39    40    1
   132    43    40    1
   133    48    45    1
   134    40    41    1
   135    45    44    1
   136    45    46    1
   137    41    42    2
   138    63    61   am
   139    62    61    2
   140    46    47    2
   141    46    56   am
   142    61    60    1
   143    56    57    1
   144    57    60    1
   145    57    58    1
   146    58    59    2
