@<TRIPOS>MOLECULE
tmp/5i73A04.pdb
 176 166 0 0 0
SMALL
GASTEIGER

@<TRIPOS>ATOM
      1  N         41.5070  188.2250    4.3420 N.3    24  GLY24      -0.1225
      2  CA        42.4260  187.4440    3.5290 C.3    24  GLY24       0.1811
      3  C         43.2950  188.2950    2.6260 C.2    24  GLY24       0.2280
      4  O         44.4790  188.0080    2.4320 O.2    24  GLY24      -0.2866
      5  N         46.6790  187.3580    4.2450 N.3    28  ARG28      -0.1245
      6  CA        46.8840  186.0750    3.5780 C.3    28  ARG28       0.1563
      7  C         47.7730  186.2150    2.3450 C.2    28  ARG28       0.2260
      8  O         48.7320  185.4640    2.1730 O.2    28  ARG28      -0.2867
      9  CB        45.5400  185.4520    3.1960 C.3    28  ARG28       0.0307
     10  CG        45.5560  183.9320    3.1480 C.3    28  ARG28       0.0489
     11  CD        44.2610  183.3520    3.7000 C.3    28  ARG28       0.2205
     12  NE        44.3780  181.9240    3.9790 N.pl3  28  ARG28      -0.0865
     13  CZ        43.4330  181.1970    4.5680 C.cat  28  ARG28       0.5346
     14  NH1       43.6280  179.9030    4.7830 N.pl3  28  ARG28       0.1354
     15  NH2       42.2950  181.7640    4.9440 N.pl3  28  ARG28       0.1354
     16  N         51.7530  186.9160    2.9670 N.3    31  TYR31      -0.1227
     17  CA        52.5150  185.7550    3.4110 C.3    31  TYR31       0.1736
     18  C         52.7850  184.7900    2.2610 C.2    31  TYR31       0.2595
     19  O         53.9380  184.4580    1.9710 O.2    31  TYR31      -0.2718
     20  CB        51.7780  185.0280    4.5390 C.3    31  TYR31       0.0548
     21  CG        52.4810  183.7790    5.0210 C.ar   31  TYR31      -0.0200
     22  CD1       53.4870  183.8510    5.9750 C.ar   31  TYR31      -0.0009
     23  CD2       52.1400  182.5280    4.5210 C.ar   31  TYR31      -0.0009
     24  CE1       54.1340  182.7130    6.4180 C.ar   31  TYR31       0.0417
     25  CE2       52.7830  181.3850    4.9560 C.ar   31  TYR31       0.0417
     26  CZ        53.7780  181.4840    5.9060 C.ar   31  TYR31       0.1957
     27  OH        54.4200  180.3490    6.3450 O.3    31  TYR31      -0.2866
     28  N         51.7130  184.3440    1.6120 N.am   32  ILE32      -0.1980
     29  CA        51.8090  183.3860    0.5170 C.3    32  ILE32       0.1595
     30  C         52.6020  183.9890   -0.6380 C.2    32  ILE32       0.2287
     31  O         53.2220  183.2720   -1.4210 O.2    32  ILE32      -0.2864
     32  CB        50.4090  182.9280    0.0560 C.3    32  ILE32       0.0276
     33  CG1       50.5150  181.7510   -0.9140 C.3    32  ILE32       0.0022
     34  CG2       49.6460  184.0770   -0.5870 C.3    32  ILE32       0.0022
     35  CD1       49.1780  181.2520   -1.4130 C.3    32  ILE32       0.0001
     36  N         56.5000  183.8310    0.7250 N.3    35  GLN35      -0.1245
     37  CA        57.1360  182.5250    0.8540 C.3    35  GLN35       0.1566
     38  C         57.1860  181.7680   -0.4710 C.2    35  GLN35       0.2260
     39  O         57.8560  180.7410   -0.5770 O.2    35  GLN35      -0.2867
     40  CB        56.4160  181.6770    1.9020 C.3    35  GLN35       0.0367
     41  CG        55.0960  181.0960    1.4340 C.3    35  GLN35       0.0905
     42  CD        54.5950  179.9970    2.3490 C.2    35  GLN35       0.2608
     43  OE1       55.2370  179.6630    3.3440 O.2    35  GLN35      -0.2717
     44  NE2       53.4440  179.4250    2.0140 N.am   35  GLN35      -0.0878
     45  N         49.2400  176.4260   -8.0760 N.3   251  ILE251     -0.1231
     46  CA        47.9950  175.9870   -7.4610 C.3   251  ILE251      0.1692
     47  C         47.6390  176.9170   -6.3070 C.2   251  ILE251      0.2592
     48  O         46.4750  177.2790   -6.1210 O.2   251  ILE251     -0.2718
     49  CB        48.1010  174.5300   -6.9880 C.3   251  ILE251      0.0266
     50  CG1       48.4790  173.6210   -8.1600 C.3   251  ILE251      0.0019
     51  CG2       46.7960  174.0810   -6.3520 C.3   251  ILE251      0.0020
     52  CD1       48.8160  172.2040   -7.7550 C.3   251  ILE251      0.0001
     53  N         48.6540  177.3020   -5.5390 N.am  252  ASP252     -0.1974
     54  CA        48.4790  178.2280   -4.4260 C.3   252  ASP252      0.1709
     55  C         47.9290  179.5670   -4.9090 C.2   252  ASP252      0.2293
     56  O         47.0020  180.1210   -4.3140 O.2   252  ASP252     -0.2864
     57  CB        49.8050  178.4380   -3.6920 C.3   252  ASP252      0.1436
     58  CG        50.2890  177.1830   -2.9910 C.2   252  ASP252      0.3671
     59  OD1       49.7630  176.0910   -3.2910 O.co2 252  ASP252     -0.2456
     60  OD2       51.1990  177.2880   -2.1420 O.co2 252  ASP252     -0.2456
     61  N         44.1680  179.0520   -6.1890 N.3   255  ALA255     -0.1231
     62  CA        43.2500  178.9960   -5.0580 C.3   255  ALA255      0.1694
     63  C         43.1250  180.3670   -4.4030 C.2   255  ALA255      0.2591
     64  O         42.0350  180.7800   -4.0010 O.2   255  ALA255     -0.2718
     65  CB        43.7160  177.9610   -4.0460 C.3   255  ALA255      0.0304
     66  N         44.2490  181.0730   -4.3130 N.am  256  GLN256     -0.1979
     67  CA        44.2830  182.3920   -3.6940 C.3   256  GLN256      0.1601
     68  C         43.3950  183.3910   -4.4330 C.2   256  GLN256      0.2287
     69  O         42.5860  184.0860   -3.8140 O.2   256  GLN256     -0.2864
     70  CB        45.7210  182.9140   -3.6310 C.3   256  GLN256      0.0394
     71  CG        45.8600  184.3040   -3.0190 C.3   256  GLN256      0.0908
     72  CD        45.4880  184.3420   -1.5470 C.2   256  GLN256      0.2608
     73  OE1       45.5420  183.3260   -0.8530 O.2   256  GLN256     -0.2717
     74  NE2       45.1080  185.5190   -1.0640 N.am  256  GLN256     -0.0878
     75  N         39.5670  182.3290   -4.2630 N.3   259  PHE259     -0.1227
     76  CA        39.0270  182.7300   -2.9890 C.3   259  PHE259      0.1736
     77  C         38.9560  184.2260   -2.8050 C.2   259  PHE259      0.2596
     78  O         38.0260  184.7130   -2.2000 O.2   259  PHE259     -0.2718
     79  CB        39.7610  182.0510   -1.8500 C.3   259  PHE259      0.0547
     80  CG        39.2880  180.6620   -1.5990 C.ar  259  PHE259     -0.0202
     81  CD1       39.8320  179.6090   -2.2790 C.ar  259  PHE259     -0.0042
     82  CD2       38.2760  180.4230   -0.7140 C.ar  259  PHE259     -0.0042
     83  CE1       39.3890  178.3320   -2.0660 C.ar  259  PHE259     -0.0003
     84  CE2       37.8240  179.1500   -0.4920 C.ar  259  PHE259     -0.0003
     85  CZ        38.3830  178.1010   -1.1680 C.ar  259  PHE259     -0.0000
     86  N         39.9300  184.9630   -3.2910 N.am  260  SER260     -0.1952
     87  CA        39.7950  186.3940   -3.1450 C.3   260  SER260      0.1924
     88  C         38.6410  186.9790   -3.9360 C.2   260  SER260      0.2314
     89  O         37.9320  187.8310   -3.4160 O.2   260  SER260     -0.2863
     90  CB        41.0730  187.1460   -3.4440 C.3   260  SER260      0.2116
     91  OG        40.8140  188.5300   -3.3150 O.3   260  SER260     -0.2180
     92  N         51.3410  181.6530   10.2170 N.3   325  ALA325     -0.1245
     93  CA        50.5510  182.0670    9.0640 C.3   325  ALA325      0.1562
     94  C         49.0590  182.0390    9.3730 C.2   325  ALA325      0.2260
     95  O         48.3520  181.1110    8.9830 O.2   325  ALA325     -0.2867
     96  CB        50.8560  181.1800    7.8720 C.3   325  ALA325      0.0290
     97  N         39.9660  176.7710   11.9250 N.3   414  LYS414     -0.1245
     98  CA        40.8960  176.1600   10.9810 C.3   414  LYS414      0.1561
     99  C         40.2650  174.9570   10.2840 C.2   414  LYS414      0.2260
    100  O         40.2770  174.8620    9.0530 O.2   414  LYS414     -0.2867
    101  CB        42.1810  175.7370   11.6960 C.3   414  LYS414      0.0271
    102  CG        43.3350  176.7180   11.5700 C.3   414  LYS414      0.0035
    103  CD        44.0440  176.5600   10.2350 C.3   414  LYS414      0.0206
    104  CE        45.3200  177.3850   10.1820 C.3   414  LYS414      0.1093
    105  NZ        46.0750  177.1560    8.9180 N.3   414  LYS414     -0.1314
    106  N         37.3330  175.9300    8.0330 N.3   417  GLU417     -0.1231
    107  CA        37.7490  176.8350    6.9700 C.3   417  GLU417      0.1699
    108  C         38.5960  176.1310    5.9120 C.2   417  GLU417      0.2592
    109  O         38.6090  176.5370    4.7500 O.2   417  GLU417     -0.2718
    110  CB        38.5260  178.0190    7.5550 C.3   417  GLU417      0.0402
    111  CG        38.8320  179.1210    6.5520 C.3   417  GLU417      0.1161
    112  CD        39.6290  180.2600    7.1560 C.2   417  GLU417      0.3649
    113  OE1       39.8110  181.2880    6.4710 O.co2 417  GLU417     -0.2457
    114  OE2       40.0760  180.1270    8.3150 O.co2 417  GLU417     -0.2457
    115  N         39.2950  175.0720    6.3070 N.am  418  GLU418     -0.1979
    116  CA        40.2500  174.4420    5.4000 C.3   418  GLU418      0.1602
    117  C         39.8500  173.0320    4.9640 C.2   418  GLU418      0.2287
    118  O         40.1590  172.6150    3.8490 O.2   418  GLU418     -0.2864
    119  CB        41.6350  174.4110    6.0480 C.3   418  GLU418      0.0415
    120  CG        42.7600  174.0500    5.0940 C.3   418  GLU418      0.1163
    121  CD        44.1100  174.5270    5.5880 C.2   418  GLU418      0.3649
    122  OE1       44.1420  175.4260    6.4550 O.co2 418  GLU418     -0.2457
    123  OE2       45.1390  174.0050    5.1140 O.co2 418  GLU418     -0.2457
    124  N         36.0100  174.9840    2.1100 N.3   422  GLY422     -0.1210
    125  CA        36.8190  175.2550    0.9240 C.3   422  GLY422      0.1940
    126  C         36.7750  174.3560   -0.3080 C.2   422  GLY422      0.2453
    127  O         36.6870  174.8590   -1.4250 O.2   422  GLY422     -0.2732
    128  N         36.8160  173.0420   -0.1220 N.am  423  PRO423     -0.2728
    129  CA        36.6000  172.0840   -1.2120 C.3   423  PRO423      0.1401
    130  C         35.1390  171.9840   -1.6420 C.2   423  PRO423      0.2269
    131  O         34.8580  171.5720   -2.7670 O.2   423  PRO423     -0.2865
    132  CB        37.0800  170.7560   -0.6130 C.3   423  PRO423      0.0296
    133  CG        36.9970  170.9510    0.8610 C.3   423  PRO423      0.0237
    134  CD        37.3540  172.3860    1.0810 C.3   423  PRO423      0.0939
    135  N         34.5590  175.2090   -3.7730 N.3   426  LEU426     -0.1245
    136  CA        35.2590  174.9380   -5.0230 C.3   426  LEU426      0.1561
    137  C         34.5020  173.9030   -5.8530 C.2   426  LEU426      0.2260
    138  O         34.4180  174.0140   -7.0780 O.2   426  LEU426     -0.2867
    139  CB        36.6830  174.4580   -4.7460 C.3   426  LEU426      0.0270
    140  CG        37.7610  175.5340   -4.6450 C.3   426  LEU426      0.0019
    141  CD1       38.9100  175.0380   -3.8000 C.3   426  LEU426      0.0001
    142  CD2       38.2510  175.9120   -6.0310 C.3   426  LEU426      0.0001
    143  N         42.5950  172.8770   -8.8350 N.3   476  ILE476     -0.1231
    144  CA        42.6130  173.1770   -7.4100 C.3   476  ILE476      0.1692
    145  C         41.9490  172.0570   -6.6170 C.2   476  ILE476      0.2591
    146  O         42.5090  171.5700   -5.6290 O.2   476  ILE476     -0.2718
    147  CB        41.9330  174.5240   -7.1240 C.3   476  ILE476      0.0266
    148  CG1       42.5280  175.6160   -8.0140 C.3   476  ILE476      0.0019
    149  CG2       42.0820  174.8940   -5.6590 C.3   476  ILE476      0.0020
    150  CD1       41.8570  176.9630   -7.8590 C.3   476  ILE476      0.0001
    151  N         40.7580  171.6520   -7.0520 N.am  477  ILE477     -0.1980
    152  CA        40.0270  170.5770   -6.3860 C.3   477  ILE477      0.1595
    153  C         40.8530  169.2940   -6.3750 C.2   477  ILE477      0.2287
    154  O         41.0190  168.6630   -5.3290 O.2   477  ILE477     -0.2864
    155  CB        38.6530  170.3450   -7.0460 C.3   477  ILE477      0.0276
    156  CG1       37.6210  171.3220   -6.4850 C.3   477  ILE477      0.0022
    157  CG2       38.1770  168.9200   -6.8180 C.3   477  ILE477      0.0022
    158  CD1       37.1890  170.9870   -5.0720 C.3   477  ILE477      0.0001
    159  N         43.9320  169.5440   -4.0710 N.3   480  PHE480     -0.1241
    160  CA        43.5930  169.4240   -2.6570 C.3   480  PHE480      0.1605
    161  C         43.2220  167.9950   -2.2830 C.2   480  PHE480      0.2264
    162  O         43.7180  167.4560   -1.2930 O.2   480  PHE480     -0.2867
    163  CB        42.4440  170.3650   -2.2990 C.3   480  PHE480      0.0534
    164  CG        41.9400  170.2010   -0.8920 C.ar  480  PHE480     -0.0203
    165  CD1       42.6250  170.7610    0.1730 C.ar  480  PHE480     -0.0042
    166  CD2       40.7760  169.4930   -0.6360 C.ar  480  PHE480     -0.0042
    167  CE1       42.1630  170.6130    1.4680 C.ar  480  PHE480     -0.0003
    168  CE2       40.3090  169.3420    0.6570 C.ar  480  PHE480     -0.0003
    169  CZ        41.0030  169.9030    1.7100 C.ar  480  PHE480     -0.0000
    170  N         46.4390  169.2020    3.1030 N.3   485  PRO485     -0.2116
    171  CA        47.5220  169.7390    3.9350 C.3   485  PRO485      0.1372
    172  C         47.3820  169.3900    5.4140 C.2   485  PRO485      0.2244
    173  O         46.2710  169.3780    5.9450 O.2   485  PRO485     -0.2868
    174  CB        47.4030  171.2520    3.7250 C.3   485  PRO485      0.0268
    175  CG        45.9760  171.4680    3.3640 C.3   485  PRO485      0.0207
    176  CD        45.5780  170.2670    2.5600 C.3   485  PRO485      0.0892
@<TRIPOS>BOND
     1   143   144    1
     2    50    52    1
     3    50    49    1
     4    45    46    1
     5   148   150    1
     6   148   147    1
     7    46    49    1
     8    46    47    1
     9   144   147    1
    10   144   145    1
    11   147   149    1
    12   138   137    2
    13   151   145   am
    14   151   152    1
    15   155   157    1
    16   155   156    1
    17   155   152    1
    18    49    51    1
    19   145   146    2
    20   156   158    1
    21   152   153    1
    22   153   154    2
    23    47    48    2
    24    47    53   am
    25    61    62    1
    26   142   140    1
    27   137   136    1
    28    53    54    1
    29    62    63    1
    30    62    65    1
    31   136   139    1
    32   136   135    1
    33    55    54    1
    34    55    56    2
    35   139   140    1
    36   140   141    1
    37    68    69    2
    38    68    67    1
    39    54    57    1
    40    63    66   am
    41    63    64    2
    42    66    67    1
    43    75    76    1
    44   159   160    1
    45    88    89    2
    46    88    87    1
    47    67    70    1
    48    57    58    1
    49    70    71    1
    50    90    91    1
    51    90    87    1
    52    59    58   ar
    53    86    87    1
    54    86    77   am
    55    71    72    1
    56    58    60   ar
    57    76    77    1
    58    76    79    1
    59    77    78    2
    60   131   130    2
    61   160   163    1
    62   160   161    1
    63   163   164    1
    64   161   162    2
    65    81    83   ar
    66    81    80   ar
    67    83    85   ar
    68    79    80    1
    69   130   129    1
    70    80    82   ar
    71    72    74   am
    72    72    73    2
    73   127   126    2
    74    31    30    2
    75    35    33    1
    76   129   132    1
    77   129   128    1
    78    85    84   ar
    79    33    32    1
    80   164   166   ar
    81   164   165   ar
    82    82    84   ar
    83    30    29    1
    84   166   168   ar
    85   132   133    1
    86    34    32    1
    87    39    38    2
    88    38    37    1
    89   126   128   am
    90   126   125    1
    91   128   134    1
    92    32    29    1
    93   165   167   ar
    94    29    28    1
    95   168   169   ar
    96    36    37    1
    97    37    40    1
    98   133   134    1
    99   125   124    1
   100    41    40    1
   101    41    42    1
   102   167   169   ar
   103    28    18   am
   104    19    18    2
   105    44    42   am
   106     8     7    2
   107    18    17    1
   108     7     6    1
   109    42    43    2
   110     4     3    2
   111   176   170    1
   112   176   175    1
   113     3     2    1
   114    16    17    1
   115   170   171    1
   116    10     9    1
   117    10    11    1
   118     9     6    1
   119   175   174    1
   120    17    20    1
   121     2     1    1
   122     6     5    1
   123    11    12    1
   124   174   171    1
   125   118   117    2
   126   171   172    1
   127    12    13    2
   128    23    25   ar
   129    23    21   ar
   130    20    21    1
   131    13    14    1
   132    13    15    1
   133   109   108    2
   134    25    26   ar
   135   117   116    1
   136    21    22   ar
   137   120   121    1
   138   120   119    1
   139   123   121   ar
   140   116   119    1
   141   116   115    1
   142   172   173    2
   143   121   122   ar
   144    26    27    1
   145    26    24   ar
   146   108   115   am
   147   108   107    1
   148    22    24   ar
   149   113   112   ar
   150   111   112    1
   151   111   110    1
   152   107   110    1
   153   107   106    1
   154   112   114   ar
   155    96    93    1
   156   105   104    1
   157    95    94    2
   158   100    99    2
   159    93    94    1
   160    93    92    1
   161   104   103    1
   162   103   102    1
   163    99    98    1
   164    98   101    1
   165    98    97    1
   166   102   101    1
