@<TRIPOS>MOLECULE
tmp/5i74A02.pdb
 129 122 0 0 0
SMALL
GASTEIGER

@<TRIPOS>ATOM
      1  N         46.3250  187.9190    4.1760 N.3    31  ARG31      -0.1245
      2  CA        46.6020  186.6820    3.4470 C.3    31  ARG31       0.1563
      3  C         47.4450  186.9150    2.1950 C.2    31  ARG31       0.2260
      4  O         48.3800  186.1530    1.9210 O.2    31  ARG31      -0.2867
      5  CB        45.2860  185.9920    3.0860 C.3    31  ARG31       0.0307
      6  CG        45.3810  184.4780    3.0170 C.3    31  ARG31       0.0489
      7  CD        44.0460  183.8370    3.3490 C.3    31  ARG31       0.2205
      8  NE        44.1680  182.4000    3.5720 N.pl3  31  ARG31      -0.0865
      9  CZ        43.2050  181.6420    4.0850 C.cat  31  ARG31       0.5346
     10  NH1       43.4000  180.3420    4.2540 N.pl3  31  ARG31       0.1354
     11  NH2       42.0470  182.1860    4.4340 N.pl3  31  ARG31       0.1354
     12  N         51.4060  185.2090    1.4600 N.3    35  ILE35      -0.1245
     13  CA        51.5600  184.2680    0.3580 C.3    35  ILE35       0.1561
     14  C         52.3650  184.8770   -0.7790 C.2    35  ILE35       0.2260
     15  O         52.9810  184.1470   -1.5640 O.2    35  ILE35      -0.2867
     16  CB        50.1770  183.7840   -0.1280 C.3    35  ILE35       0.0252
     17  CG1       50.3200  182.5400   -1.0070 C.3    35  ILE35       0.0019
     18  CG2       49.4530  184.8860   -0.8860 C.3    35  ILE35       0.0019
     19  CD1       49.0010  182.0040   -1.5150 C.3    35  ILE35       0.0001
     20  N         48.9630  177.0520   -8.1540 N.3   254  ILE254     -0.1231
     21  CA        47.7080  176.6710   -7.5160 C.3   254  ILE254      0.1692
     22  C         47.3850  177.6220   -6.3700 C.2   254  ILE254      0.2592
     23  O         46.2280  178.0160   -6.1780 O.2   254  ILE254     -0.2718
     24  CB        47.7830  175.2090   -7.0410 C.3   254  ILE254      0.0266
     25  CG1       48.1280  174.2930   -8.2190 C.3   254  ILE254      0.0019
     26  CG2       46.4750  174.7940   -6.3940 C.3   254  ILE254      0.0020
     27  CD1       48.5140  172.8890   -7.8170 C.3   254  ILE254      0.0001
     28  N         48.4030  178.0100   -5.5960 N.am  255  ASP255     -0.1974
     29  CA        48.1930  178.9660   -4.5140 C.3   255  ASP255      0.1709
     30  C         47.6730  180.2950   -5.0450 C.2   255  ASP255      0.2293
     31  O         46.7450  180.8810   -4.4750 O.2   255  ASP255     -0.2864
     32  CB        49.4940  179.1720   -3.7370 C.3   255  ASP255      0.1436
     33  CG        49.9340  177.9250   -2.9940 C.2   255  ASP255      0.3671
     34  OD1       49.4490  176.8270   -3.3340 O.co2 255  ASP255     -0.2456
     35  OD2       50.7680  178.0430   -2.0720 O.co2 255  ASP255     -0.2456
     36  N         43.8890  179.7470   -6.2730 N.3   258  ALA258     -0.1231
     37  CA        42.9490  179.7530   -5.1570 C.3   258  ALA258      0.1694
     38  C         42.8620  181.1340   -4.5210 C.2   258  ALA258      0.2591
     39  O         41.7750  181.5840   -4.1370 O.2   258  ALA258     -0.2718
     40  CB        43.3590  178.7070   -4.1210 C.3   258  ALA258      0.0304
     41  N         43.9980  181.8310   -4.4200 N.am  259  GLN259     -0.1979
     42  CA        44.0050  183.1440   -3.7840 C.3   259  GLN259      0.1601
     43  C         43.1680  184.1490   -4.5650 C.2   259  GLN259      0.2287
     44  O         42.3980  184.9150   -3.9750 O.2   259  GLN259     -0.2864
     45  CB        45.4420  183.6470   -3.6300 C.3   259  GLN259      0.0394
     46  CG        45.5510  185.0430   -3.0280 C.3   259  GLN259      0.0908
     47  CD        45.0040  185.1200   -1.6130 C.2   259  GLN259      0.2608
     48  OE1       44.9620  184.1220   -0.8930 O.2   259  GLN259     -0.2717
     49  NE2       44.5800  186.3130   -1.2080 N.am  259  GLN259     -0.0878
     50  N         39.2410  183.0220   -4.3850 N.3   262  PHE262     -0.1241
     51  CA        38.6000  183.4010   -3.1320 C.3   262  PHE262      0.1605
     52  C         38.6160  184.9080   -2.9260 C.2   262  PHE262      0.2264
     53  O         37.6930  185.4530   -2.3140 O.2   262  PHE262     -0.2867
     54  CB        39.2740  182.6950   -1.9570 C.3   262  PHE262      0.0534
     55  CG        38.8460  181.2670   -1.7870 C.ar  262  PHE262     -0.0203
     56  CD1       37.7250  180.9520   -1.0370 C.ar  262  PHE262     -0.0042
     57  CD2       39.5620  180.2410   -2.3780 C.ar  262  PHE262     -0.0042
     58  CE1       37.3270  179.6380   -0.8780 C.ar  262  PHE262     -0.0003
     59  CE2       39.1710  178.9260   -2.2220 C.ar  262  PHE262     -0.0003
     60  CZ        38.0510  178.6240   -1.4710 C.ar  262  PHE262     -0.0000
     61  N         37.1190  176.5930    7.8740 N.3   420  GLU420     -0.1231
     62  CA        37.5520  177.3800    6.7240 C.3   420  GLU420      0.1699
     63  C         38.3410  176.5310    5.7340 C.2   420  GLU420      0.2592
     64  O         38.0470  176.5270    4.5330 O.2   420  GLU420     -0.2718
     65  CB        38.3780  178.5790    7.1910 C.3   420  GLU420      0.0402
     66  CG        38.7780  179.5320    6.0770 C.3   420  GLU420      0.1161
     67  CD        39.3840  180.8170    6.6050 C.2   420  GLU420      0.3649
     68  OE1       39.2460  181.8610    5.9340 O.co2 420  GLU420     -0.2457
     69  OE2       39.9920  180.7830    7.6960 O.co2 420  GLU420     -0.2457
     70  N         39.3540  175.8080    6.2170 N.am  421  GLU421     -0.1979
     71  CA        40.2300  175.0750    5.3080 C.3   421  GLU421      0.1602
     72  C         39.6030  173.7650    4.8370 C.2   421  GLU421      0.2287
     73  O         39.5990  173.4690    3.6370 O.2   421  GLU421     -0.2864
     74  CB        41.5770  174.8100    5.9800 C.3   421  GLU421      0.0415
     75  CG        42.6660  174.3850    5.0150 C.3   421  GLU421      0.1163
     76  CD        43.7960  175.3890    4.9480 C.2   421  GLU421      0.3649
     77  OE1       43.8760  176.2500    5.8500 O.co2 421  GLU421     -0.2457
     78  OE2       44.6010  175.3230    3.9960 O.co2 421  GLU421     -0.2457
     79  N         35.8300  176.0210    2.2140 N.3   425  GLY425     -0.1210
     80  CA        36.6220  176.2950    1.0360 C.3   425  GLY425      0.1940
     81  C         36.4060  175.3260   -0.1140 C.2   425  GLY425      0.2453
     82  O         36.0330  175.7290   -1.2240 O.2   425  GLY425     -0.2732
     83  N         36.6280  174.0280    0.1220 N.am  426  PRO426     -0.2728
     84  CA        36.4580  173.0570   -0.9730 C.3   426  PRO426      0.1401
     85  C         35.0330  172.9610   -1.4790 C.2   426  PRO426      0.2269
     86  O         34.8240  172.6180   -2.6500 O.2   426  PRO426     -0.2865
     87  CB        36.9220  171.7350   -0.3450 C.3   426  PRO426      0.0296
     88  CG        36.7710  171.9410    1.1240 C.3   426  PRO426      0.0237
     89  CD        37.1200  173.3770    1.3490 C.3   426  PRO426      0.0939
     90  N         34.5350  176.1270   -3.7200 N.3   429  LEU429     -0.1245
     91  CA        35.1870  175.8170   -4.9880 C.3   429  LEU429      0.1561
     92  C         34.3900  174.7840   -5.7760 C.2   429  LEU429      0.2260
     93  O         34.2970  174.8640   -7.0070 O.2   429  LEU429     -0.2867
     94  CB        36.6090  175.3180   -4.7360 C.3   429  LEU429      0.0270
     95  CG        37.7340  176.3370   -4.5720 C.3   429  LEU429      0.0019
     96  CD1       38.8480  175.7380   -3.7370 C.3   429  LEU429      0.0001
     97  CD2       38.2620  176.7490   -5.9340 C.3   429  LEU429      0.0001
     98  N         42.2440  173.6790   -8.9280 N.3   479  ILE479     -0.1245
     99  CA        42.3070  173.9670   -7.4990 C.3   479  ILE479      0.1561
    100  C         41.6330  172.8560   -6.7020 C.2   479  ILE479      0.2260
    101  O         42.1830  172.3630   -5.7080 O.2   479  ILE479     -0.2867
    102  CB        41.6740  175.3370   -7.2010 C.3   479  ILE479      0.0252
    103  CG1       42.2660  176.4100   -8.1150 C.3   479  ILE479      0.0019
    104  CG2       41.8870  175.7150   -5.7470 C.3   479  ILE479      0.0019
    105  CD1       41.5900  177.7540   -7.9820 C.3   479  ILE479      0.0001
    106  N         43.7480  169.8070   -6.8060 N.3   482  SER482     -0.1202
    107  CA        44.9590  169.9910   -6.0150 C.3   482  SER482      0.2020
    108  C         44.6760  169.8350   -4.5260 C.2   482  SER482      0.2618
    109  O         45.4650  169.2200   -3.7980 O.2   482  SER482     -0.2717
    110  CB        45.5690  171.3590   -6.3060 C.3   482  SER482      0.2103
    111  OG        46.6930  171.6000   -5.4770 O.3   482  SER482     -0.2182
    112  N         43.5530  170.3830   -4.0540 N.am  483  PHE483     -0.1975
    113  CA        43.2090  170.2480   -2.6420 C.3   483  PHE483      0.1639
    114  C         42.8600  168.8070   -2.2940 C.2   483  PHE483      0.2290
    115  O         43.3730  168.2530   -1.3150 O.2   483  PHE483     -0.2864
    116  CB        42.0500  171.1780   -2.2850 C.3   483  PHE483      0.0560
    117  CG        41.5060  170.9580   -0.9010 C.ar  483  PHE483     -0.0200
    118  CD1       42.1620  171.4730    0.2040 C.ar  483  PHE483     -0.0042
    119  CD2       40.3420  170.2310   -0.7040 C.ar  483  PHE483     -0.0042
    120  CE1       41.6690  171.2700    1.4790 C.ar  483  PHE483     -0.0003
    121  CE2       39.8450  170.0230    0.5690 C.ar  483  PHE483     -0.0003
    122  CZ        40.5080  170.5440    1.6610 C.ar  483  PHE483     -0.0000
    123  N         46.0750  169.9610    3.0410 N.3   488  PRO488     -0.2116
    124  CA        47.2040  170.4200    3.8550 C.3   488  PRO488      0.1372
    125  C         47.0620  170.0140    5.3130 C.2   488  PRO488      0.2244
    126  O         45.9570  169.8660    5.8400 O.2   488  PRO488     -0.2868
    127  CB        47.1550  171.9430    3.6980 C.3   488  PRO488      0.0268
    128  CG        45.7180  172.2350    3.4220 C.3   488  PRO488      0.0207
    129  CD        45.2110  171.0740    2.6100 C.3   488  PRO488      0.0892
@<TRIPOS>BOND
     1    98    99    1
     2    25    27    1
     3    25    24    1
     4    20    21    1
     5   103   105    1
     6   103   102    1
     7    21    24    1
     8    21    22    1
     9    99   102    1
    10    99   100    1
    11   102   104    1
    12    24    26    1
    13    93    92    2
    14   106   107    1
    15   100   101    2
    16    22    23    2
    17    22    28   am
    18   110   107    1
    19   110   111    1
    20    36    37    1
    21   107   108    1
    22    97    95    1
    23    92    91    1
    24    28    29    1
    25    37    38    1
    26    37    40    1
    27    30    29    1
    28    30    31    2
    29    91    94    1
    30    91    90    1
    31    94    95    1
    32    95    96    1
    33    43    44    2
    34    43    42    1
    35   108   112   am
    36   108   109    2
    37    38    41   am
    38    38    39    2
    39    29    32    1
    40    41    42    1
    41    50    51    1
    42   112   113    1
    43    42    45    1
    44    32    33    1
    45    45    46    1
    46    34    33   ar
    47    51    52    1
    48    51    54    1
    49    46    47    1
    50    33    35   ar
    51    52    53    2
    52    86    85    2
    53   113   114    1
    54   113   116    1
    55    57    59   ar
    56    57    55   ar
    57   114   115    2
    58   116   117    1
    59    59    60   ar
    60    54    55    1
    61    55    56   ar
    62    47    49   am
    63    47    48    2
    64    15    14    2
    65    19    17    1
    66    85    84    1
    67    60    58   ar
    68    82    81    2
    69    56    58   ar
    70    17    16    1
    71    84    87    1
    72    84    83    1
    73   117   119   ar
    74   117   118   ar
    75    18    16    1
    76    14    13    1
    77   119   121   ar
    78    87    88    1
    79    16    13    1
    80    81    83   am
    81    81    80    1
    82    83    89    1
    83   118   120   ar
    84    13    12    1
    85   121   122   ar
    86    80    79    1
    87    88    89    1
    88   120   122   ar
    89     4     3    2
    90     3     2    1
    91   129   123    1
    92   129   128    1
    93     6     5    1
    94     6     7    1
    95   123   124    1
    96     5     2    1
    97     7     8    1
    98   128   127    1
    99     2     1    1
   100     8     9    2
   101    73    72    2
   102   127   124    1
   103   124   125    1
   104    78    76   ar
   105     9    10    1
   106     9    11    1
   107    64    63    2
   108    72    71    1
   109    76    75    1
   110    76    77   ar
   111    75    74    1
   112    71    74    1
   113    71    70    1
   114   125   126    2
   115    63    70   am
   116    63    62    1
   117    68    67   ar
   118    66    67    1
   119    66    65    1
   120    67    69   ar
   121    62    65    1
   122    62    61    1
