@<TRIPOS>MOLECULE
tmp/5i75A02.pdb
 85 79 0 0 0
SMALL
GASTEIGER

@<TRIPOS>ATOM
      1  N        166.2720  173.0940    0.0990 N.3   423  PRO423     -0.2116
      2  CA       166.0460  172.1380   -0.9990 C.3   423  PRO423      0.1372
      3  C        164.6070  172.0850   -1.4690 C.2   423  PRO423      0.2244
      4  O        164.3500  171.7240   -2.6250 O.2   423  PRO423     -0.2868
      5  CB       166.4720  170.7950   -0.3860 C.3   423  PRO423      0.0268
      6  CG       166.3600  171.0020    1.0940 C.3   423  PRO423      0.0207
      7  CD       166.7610  172.4260    1.3150 C.3   423  PRO423      0.0892
      8  N        163.4500  172.9760   -5.0980 N.3   427  THR427     -0.1218
      9  CA       162.6800  171.9440   -5.7840 C.3   427  THR427      0.1862
     10  C        161.4340  172.5380   -6.4340 C.2   427  THR427      0.2287
     11  O        161.2070  172.3590   -7.6350 O.2   427  THR427     -0.2866
     12  CB       162.3080  170.8240   -4.8090 C.3   427  THR427      0.1770
     13  OG1      163.4980  170.2830   -4.2230 O.3   427  THR427     -0.2211
     14  CG2      161.5470  169.7160   -5.5260 C.3   427  THR427      0.0375
     15  N        160.2690  172.9460  -10.3020 N.3   431  ILE431     -0.1245
     16  CA       158.9870  172.4850  -10.8230 C.3   431  ILE431      0.1561
     17  C        158.3210  173.6030  -11.6120 C.2   431  ILE431      0.2260
     18  O        157.7830  173.3780  -12.7000 O.2   431  ILE431     -0.2867
     19  CB       158.0820  172.0010   -9.6740 C.3   431  ILE431      0.0252
     20  CG1      158.7540  170.8860   -8.8830 C.3   431  ILE431      0.0019
     21  CG2      156.7900  171.4500  -10.2320 C.3   431  ILE431      0.0019
     22  CD1      159.0080  169.6630   -9.6890 C.3   431  ILE431      0.0001
     23  N        170.2900  171.7980   -7.0400 N.3   477  ILE477     -0.1245
     24  CA       169.5730  170.7220   -6.3530 C.3   477  ILE477      0.1561
     25  C        170.4060  169.4460   -6.3480 C.2   477  ILE477      0.2260
     26  O        170.5570  168.7840   -5.3140 O.2   477  ILE477     -0.2867
     27  CB       168.1920  170.4950   -6.9950 C.3   477  ILE477      0.0252
     28  CG1      167.1780  171.4850   -6.4310 C.3   477  ILE477      0.0019
     29  CG2      167.6990  169.0910   -6.7070 C.3   477  ILE477      0.0019
     30  CD1      166.7480  171.1530   -5.0180 C.3   477  ILE477      0.0001
     31  N        171.8220  167.4640   -3.0510 N.3   481  LEU481     -0.1245
     32  CA       171.3630  166.1080   -2.7720 C.3   481  LEU481      0.1561
     33  C        172.5100  165.1080   -2.8470 C.2   481  LEU481      0.2260
     34  O        172.5010  164.0960   -2.1360 O.2   481  LEU481     -0.2867
     35  CB       170.2550  165.7250   -3.7530 C.3   481  LEU481      0.0270
     36  CG       168.9320  166.4880   -3.6390 C.3   481  LEU481      0.0019
     37  CD1      167.9270  165.9640   -4.6520 C.3   481  LEU481      0.0001
     38  CD2      168.3650  166.4060   -2.2300 C.3   481  LEU481      0.0001
     39  N        168.0590  163.4920    8.1860 N.3   500  ILE500     -0.1245
     40  CA       166.8320  162.7170    8.1010 C.3   500  ILE500      0.1561
     41  C        165.6590  163.5810    8.5360 C.2   500  ILE500      0.2260
     42  O        164.5770  163.5350    7.9380 O.2   500  ILE500     -0.2867
     43  CB       166.9420  161.4500    8.9650 C.3   500  ILE500      0.0252
     44  CG1      168.2330  160.7020    8.6470 C.3   500  ILE500      0.0019
     45  CG2      165.7460  160.5450    8.7240 C.3   500  ILE500      0.0019
     46  CD1      168.5240  159.5760    9.6120 C.3   500  ILE500      0.0001
     47  N        165.0850  166.4110    5.7780 N.3   503  TYR503     -0.1227
     48  CA       164.3940  165.8850    4.6100 C.3   503  TYR503      0.1736
     49  C        162.9680  165.5260    4.9690 C.2   503  TYR503      0.2595
     50  O        162.0510  165.7790    4.1770 O.2   503  TYR503     -0.2718
     51  CB       165.1050  164.6400    4.0790 C.3   503  TYR503      0.0548
     52  CG       166.2720  164.9050    3.1590 C.ar  503  TYR503     -0.0200
     53  CD1      166.5330  166.1780    2.6750 C.ar  503  TYR503     -0.0009
     54  CD2      167.1180  163.8720    2.7780 C.ar  503  TYR503     -0.0009
     55  CE1      167.6090  166.4150    1.8380 C.ar  503  TYR503      0.0417
     56  CE2      168.1900  164.0980    1.9440 C.ar  503  TYR503      0.0417
     57  CZ       168.4330  165.3700    1.4760 C.ar  503  TYR503      0.1957
     58  OH       169.5060  165.5930    0.6440 O.3   503  TYR503     -0.2866
     59  N        162.7460  165.1160    6.2190 N.am  504  ALA504     -0.1980
     60  CA       161.3920  164.7900    6.6310 C.3   504  ALA504      0.1597
     61  C        160.5520  166.0500    6.5870 C.2   504  ALA504      0.2287
     62  O        159.4200  166.0360    6.0910 O.2   504  ALA504     -0.2864
     63  CB       161.3890  164.1690    8.0280 C.3   504  ALA504      0.0319
     64  N        161.3400  168.6640    4.8050 N.3   506  GLY506     -0.1210
     65  CA       161.3180  169.1200    3.4240 C.3   506  GLY506      0.1956
     66  C        160.2800  168.4140    2.5730 C.2   506  GLY506      0.2612
     67  O        159.4460  169.0580    1.9290 O.2   506  GLY506     -0.2717
     68  N        160.2500  167.0820    2.6370 N.am  507  THR507     -0.1952
     69  CA       159.3030  166.3530    1.8050 C.3   507  THR507      0.1897
     70  C        157.8780  166.6100    2.2590 C.2   507  THR507      0.2313
     71  O        156.9840  166.8050    1.4200 O.2   507  THR507     -0.2863
     72  CB       159.6220  164.8630    1.8500 C.3   507  THR507      0.1794
     73  OG1      159.7320  164.4400    3.2140 O.3   507  THR507     -0.2208
     74  CG2      160.9520  164.6230    1.1840 C.3   507  THR507      0.0378
     75  N        156.0950  169.4770    0.2540 N.3   510  PHE510     -0.1241
     76  CA       155.5000  169.2920   -1.0660 C.3   510  PHE510      0.1605
     77  C        154.8390  167.9250   -1.2180 C.2   510  PHE510      0.2264
     78  O        154.6140  167.4640   -2.3420 O.2   510  PHE510     -0.2867
     79  CB       156.5410  169.5010   -2.1630 C.3   510  PHE510      0.0534
     80  CG       157.7860  168.6900   -1.9770 C.ar  510  PHE510     -0.0203
     81  CD1      157.8790  167.4130   -2.5040 C.ar  510  PHE510     -0.0042
     82  CD2      158.8610  169.2000   -1.2690 C.ar  510  PHE510     -0.0042
     83  CE1      159.0240  166.6620   -2.3310 C.ar  510  PHE510     -0.0003
     84  CE2      160.0080  168.4530   -1.0910 C.ar  510  PHE510     -0.0003
     85  CZ       160.0890  167.1830   -1.6200 C.ar  510  PHE510     -0.0000
@<TRIPOS>BOND
     1    18    17    2
     2    17    16    1
     3    16    15    1
     4    16    19    1
     5    21    19    1
     6    22    20    1
     7    19    20    1
     8    11    10    2
     9    23    24    1
    10    27    29    1
    11    27    28    1
    12    27    24    1
    13    10     9    1
    14    28    30    1
    15    24    25    1
    16    25    26    2
    17     9     8    1
    18     9    12    1
    19    14    12    1
    20    12    13    1
    21    37    36    1
    22    35    36    1
    23    35    32    1
    24    36    38    1
    25    31    32    1
    26    33    32    1
    27    33    34    2
    28     4     3    2
    29    81    83   ar
    30    81    80   ar
    31    78    77    2
    32    83    85   ar
    33    79    80    1
    34    79    76    1
    35    80    82   ar
    36    85    84   ar
    37     3     2    1
    38    82    84   ar
    39    77    76    1
    40    76    75    1
    41     2     5    1
    42     2     1    1
    43     5     6    1
    44     1     7    1
    45    58    57    1
    46     6     7    1
    47    74    72    1
    48    71    70    2
    49    57    55   ar
    50    57    56   ar
    51    69    72    1
    52    69    70    1
    53    69    68    1
    54    55    53   ar
    55    72    73    1
    56    67    66    2
    57    56    54   ar
    58    66    68   am
    59    66    65    1
    60    53    52   ar
    61    54    52   ar
    62    52    51    1
    63    65    64    1
    64    51    48    1
    65    50    49    2
    66    48    49    1
    67    48    47    1
    68    49    59   am
    69    62    61    2
    70    59    60    1
    71    61    60    1
    72    60    63    1
    73    42    41    2
    74    40    39    1
    75    40    41    1
    76    40    43    1
    77    44    43    1
    78    44    46    1
    79    45    43    1
