@<TRIPOS>MOLECULE
tmp/5i75A00.pdb
 158 150 0 0 0
SMALL
GASTEIGER

@<TRIPOS>ATOM
      1  N        161.9750  193.3440   -0.5920 N.3    19  TYR19      -0.1227
      2  CA       161.9430  191.8990   -0.3890 C.3    19  TYR19       0.1736
      3  C        163.2470  191.2340   -0.8190 C.2    19  TYR19       0.2595
      4  O        163.7510  190.3470   -0.1210 O.2    19  TYR19      -0.2718
      5  CB       160.7690  191.2960   -1.1590 C.3    19  TYR19       0.0548
      6  CG       160.9720  189.8760   -1.6550 C.ar   19  TYR19      -0.0200
      7  CD1      160.6040  188.7890   -0.8710 C.ar   19  TYR19      -0.0009
      8  CD2      161.5040  189.6210   -2.9150 C.ar   19  TYR19      -0.0009
      9  CE1      160.7750  187.4910   -1.3180 C.ar   19  TYR19       0.0417
     10  CE2      161.6840  188.3250   -3.3660 C.ar   19  TYR19       0.0417
     11  CZ       161.3170  187.2640   -2.5650 C.ar   19  TYR19       0.1957
     12  OH       161.4910  185.9740   -3.0150 O.3    19  TYR19      -0.2866
     13  N        163.8150  191.6500   -1.9550 N.am   20  ALA20      -0.1980
     14  CA       165.0450  191.0220   -2.4340 C.3    20  ALA20       0.1597
     15  C        166.2310  191.2800   -1.5060 C.2    20  ALA20       0.2287
     16  O        167.0950  190.4090   -1.3440 O.2    20  ALA20      -0.2864
     17  CB       165.3600  191.5070   -3.8480 C.3    20  ALA20       0.0319
     18  N        168.0620  191.7570    2.0320 N.3    22  ASP22      -0.1239
     19  CA       167.8630  191.2950    3.4040 C.3    22  ASP22       0.1674
     20  C        169.2220  191.1830    4.0960 C.2    22  ASP22       0.2266
     21  O        170.2100  191.7850    3.6620 O.2    22  ASP22      -0.2867
     22  CB       167.0620  189.9780    3.4260 C.3    22  ASP22       0.1410
     23  CG       167.7990  188.8130    2.7730 C.2    22  ASP22       0.3668
     24  OD1      168.9960  188.9390    2.4400 O.co2  22  ASP22      -0.2456
     25  OD2      167.1720  187.7460    2.6150 O.co2  22  ASP22      -0.2456
     26  N        156.2260  178.5410    3.3360 N.3    93  ALA93      -0.1245
     27  CA       156.2060  179.8080    4.0540 C.3    93  ALA93       0.1562
     28  C        156.0830  179.5720    5.5520 C.2    93  ALA93       0.2260
     29  O        156.8100  180.1850    6.3450 O.2    93  ALA93      -0.2867
     30  CB       155.0630  180.6850    3.5470 C.3    93  ALA93       0.0290
     31  N        159.3980  178.8310    6.8250 N.3    96  ILE96      -0.1231
     32  CA       160.3090  179.9680    6.7130 C.3    96  ILE96       0.1692
     33  C        160.0370  180.9760    7.8200 C.2    96  ILE96       0.2591
     34  O        160.9430  181.3770    8.5600 O.2    96  ILE96      -0.2718
     35  CB       160.1830  180.6160    5.3230 C.3    96  ILE96       0.0266
     36  CG1      160.6800  179.6600    4.2370 C.3    96  ILE96       0.0019
     37  CG2      160.9130  181.9460    5.2940 C.3    96  ILE96       0.0020
     38  CD1      160.5970  180.2310    2.8430 C.3    96  ILE96       0.0001
     39  N        158.7810  181.4060    7.9430 N.am   97  ALA97      -0.1980
     40  CA       158.3930  182.3710    8.9630 C.3    97  ALA97       0.1597
     41  C        158.6600  181.8800   10.3820 C.2    97  ALA97       0.2287
     42  O        158.6240  182.6930   11.3130 O.2    97  ALA97      -0.2864
     43  CB       156.9140  182.7230    8.8010 C.3    97  ALA97       0.0319
     44  N        161.5040  180.8860   11.6080 N.3    99  TYR99      -0.1227
     45  CA       162.8280  181.3080   12.0510 C.3    99  TYR99       0.1736
     46  C        163.2410  182.6730   11.5220 C.2    99  TYR99       0.2595
     47  O        163.9240  183.4170   12.2330 O.2    99  TYR99      -0.2718
     48  CB       163.8810  180.2490   11.6690 C.3    99  TYR99       0.0548
     49  CG       164.1390  180.0800   10.1850 C.ar   99  TYR99      -0.0200
     50  CD1      165.1030  180.8400    9.5350 C.ar   99  TYR99      -0.0009
     51  CD2      163.4390  179.1400    9.4430 C.ar   99  TYR99      -0.0009
     52  CE1      165.3470  180.6820    8.1850 C.ar   99  TYR99       0.0417
     53  CE2      163.6780  178.9740    8.0920 C.ar   99  TYR99       0.0417
     54  CZ       164.6330  179.7480    7.4670 C.ar   99  TYR99       0.1957
     55  OH       164.8780  179.5890    6.1210 O.3    99  TYR99      -0.2866
     56  N        162.8540  183.0180   10.2900 N.am  100  TYR100     -0.1962
     57  CA       163.3090  184.2600    9.6680 C.3   100  TYR100      0.1771
     58  C        162.9730  185.4790   10.5220 C.2   100  TYR100      0.2619
     59  O        163.7000  186.4790   10.4900 O.2   100  TYR100     -0.2715
     60  CB       162.6950  184.4010    8.2730 C.3   100  TYR100      0.0574
     61  CG       163.2250  185.5740    7.4770 C.ar  100  TYR100     -0.0198
     62  CD1      164.3610  185.4410    6.6910 C.ar  100  TYR100     -0.0009
     63  CD2      162.5920  186.8100    7.5090 C.ar  100  TYR100     -0.0009
     64  CE1      164.8540  186.5030    5.9610 C.ar  100  TYR100      0.0417
     65  CE2      163.0790  187.8810    6.7810 C.ar  100  TYR100      0.0417
     66  CZ       164.2110  187.7200    6.0100 C.ar  100  TYR100      0.1957
     67  OH       164.7050  188.7770    5.2820 O.3   100  TYR100     -0.2866
     68  N        161.8760  185.4190   11.2800 N.am  101  ASN101     -0.1972
     69  CA       161.4980  186.5260   12.1540 C.3   101  ASN101      0.1688
     70  C        162.3070  186.5290   13.4470 C.2   101  ASN101      0.2292
     71  O        162.6530  187.6010   13.9560 O.2   101  ASN101     -0.2864
     72  CB       159.9990  186.4780   12.4510 C.3   101  ASN101      0.1181
     73  CG       159.1560  186.7700   11.2240 C.2   101  ASN101      0.2629
     74  OD1      158.8530  187.9250   10.9250 O.2   101  ASN101     -0.2716
     75  ND2      158.7670  185.7220   10.5110 N.am  101  ASN101     -0.0877
     76  N        168.9630  182.4300   -4.0820 N.3   259  PHE259     -0.1227
     77  CA       168.2980  182.8230   -2.8460 C.3   259  PHE259      0.1736
     78  C        168.2820  184.3340   -2.6510 C.2   259  PHE259      0.2596
     79  O        167.3120  184.8750   -2.1060 O.2   259  PHE259     -0.2718
     80  CB       168.9500  182.1310   -1.6530 C.3   259  PHE259      0.0547
     81  CG       168.6840  180.6540   -1.5960 C.ar  259  PHE259     -0.0202
     82  CD1      169.4910  179.7650   -2.2830 C.ar  259  PHE259     -0.0042
     83  CD2      167.6150  180.1570   -0.8710 C.ar  259  PHE259     -0.0042
     84  CE1      169.2480  178.4070   -2.2350 C.ar  259  PHE259     -0.0003
     85  CE2      167.3670  178.8000   -0.8240 C.ar  259  PHE259     -0.0003
     86  CZ       168.1830  177.9240   -1.5050 C.ar  259  PHE259     -0.0000
     87  N        169.3490  185.0360   -3.0450 N.am  260  SER260     -0.1952
     88  CA       169.2900  186.4910   -2.9360 C.3   260  SER260      0.1924
     89  C        168.2320  187.0750   -3.8660 C.2   260  SER260      0.2314
     90  O        167.4920  187.9860   -3.4770 O.2   260  SER260     -0.2863
     91  CB       170.6610  187.0980   -3.2330 C.3   260  SER260      0.2116
     92  OG       170.6340  188.5030   -3.0590 O.3   260  SER260     -0.2180
     93  N        165.6230  185.3210   -5.1460 N.3   262  GLY262     -0.1225
     94  CA       164.3660  184.7760   -4.6750 C.3   262  GLY262      0.1811
     95  C        163.2250  184.5160   -5.6620 C.2   262  GLY262      0.2280
     96  O        162.0590  184.7530   -5.3280 O.2   262  GLY262     -0.2866
     97  N        158.8160  181.7120   -5.8790 N.3   265  PHE265     -0.1241
     98  CA       158.1800  181.6150   -4.5770 C.3   265  PHE265      0.1605
     99  C        156.8050  182.2640   -4.5770 C.2   265  PHE265      0.2264
    100  O        156.0260  182.0430   -3.6450 O.2   265  PHE265     -0.2867
    101  CB       159.0540  182.2590   -3.4890 C.3   265  PHE265      0.0534
    102  CG       158.6200  181.9220   -2.0870 C.ar  265  PHE265     -0.0203
    103  CD1      159.0020  180.7250   -1.5020 C.ar  265  PHE265     -0.0042
    104  CD2      157.8240  182.7920   -1.3580 C.ar  265  PHE265     -0.0042
    105  CE1      158.6050  180.4060   -0.2190 C.ar  265  PHE265     -0.0003
    106  CE2      157.4200  182.4740   -0.0730 C.ar  265  PHE265     -0.0003
    107  CZ       157.8130  181.2800    0.4970 C.ar  265  PHE265     -0.0000
    108  N        161.3290  192.0650    3.6150 N.3   362  SER362     -0.1202
    109  CA       161.2990  190.6980    3.1130 C.3   362  SER362      0.2020
    110  C        160.2440  189.8680    3.8230 C.2   362  SER362      0.2619
    111  O        159.7330  188.9020    3.2440 O.2   362  SER362     -0.2717
    112  CB       162.6740  190.0470    3.2590 C.3   362  SER362      0.2103
    113  OG       163.6230  190.6560    2.4030 O.3   362  SER362     -0.2182
    114  N        159.8850  190.2200    5.0580 N.am  363  SER363     -0.1951
    115  CA       158.8380  189.4270    5.6880 C.3   363  SER363      0.1924
    116  C        157.4740  189.9560    5.2750 C.2   363  SER363      0.2314
    117  O        156.5070  189.1810    5.1820 O.2   363  SER363     -0.2863
    118  CB       158.9810  189.4450    7.2110 C.3   363  SER363      0.2116
    119  OG       158.0380  188.5790    7.8200 O.3   363  SER363     -0.2180
    120  N        157.2180  188.2830    1.9380 N.3   366  GLY366     -0.1210
    121  CA       157.1660  186.8700    2.2640 C.3   366  GLY366      0.1956
    122  C        155.7640  186.4190    2.6030 C.2   366  GLY366      0.2611
    123  O        155.3020  185.3740    2.1350 O.2   366  GLY366     -0.2717
    124  N        155.0510  187.1810    3.4130 N.am  367  LEU367     -0.1979
    125  CA       153.6700  186.8970    3.7770 C.3   367  LEU367      0.1596
    126  C        152.7250  187.3510    2.6720 C.2   367  LEU367      0.2287
    127  O        151.7140  186.7040    2.4010 O.2   367  LEU367     -0.2864
    128  CB       153.3020  187.5810    5.0930 C.3   367  LEU367      0.0297
    129  CG       153.9520  187.0290    6.3600 C.3   367  LEU367      0.0022
    130  CD1      153.4960  187.8210    7.5740 C.3   367  LEU367      0.0001
    131  CD2      153.6290  185.5520    6.5270 C.3   367  LEU367      0.0001
    132  N        166.7980  176.0890    7.9250 N.3   417  GLU417     -0.1245
    133  CA       167.2200  176.9610    6.8390 C.3   417  GLU417      0.1567
    134  C        168.0820  176.2260    5.8230 C.2   417  GLU417      0.2260
    135  O        168.1000  176.6060    4.6470 O.2   417  GLU417     -0.2867
    136  CB       167.9740  178.1680    7.3940 C.3   417  GLU417      0.0388
    137  CG       168.2580  179.2480    6.3650 C.3   417  GLU417      0.1160
    138  CD       168.9920  180.4320    6.9590 C.2   417  GLU417      0.3649
    139  OE1      169.1560  181.4480    6.2510 O.co2 417  GLU417     -0.2457
    140  OE2      169.4080  180.3440    8.1340 O.co2 417  GLU417     -0.2457
    141  N        164.0050  173.9730    4.3940 N.3   421  THR421     -0.1203
    142  CA       163.4120  174.9580    3.4940 C.3   421  THR421      0.1994
    143  C        164.1710  175.0540    2.1750 C.2   421  THR421      0.2618
    144  O        163.5600  175.0570    1.1020 O.2   421  THR421     -0.2717
    145  CB       163.3550  176.3240    4.1760 C.3   421  THR421      0.1784
    146  OG1      164.6770  176.7310    4.5440 O.3   421  THR421     -0.2211
    147  CG2      162.4910  176.2510    5.4210 C.3   421  THR421      0.0376
    148  N        165.4960  175.1630    2.2330 N.am  422  GLY422     -0.1956
    149  CA       166.3050  175.3460    1.0490 C.3   422  GLY422      0.1869
    150  C        166.0140  174.3930   -0.0980 C.2   422  GLY422      0.2309
    151  O        165.5240  174.8050   -1.1590 O.2   422  GLY422     -0.2863
    152  N        162.4620  174.8300   -1.5270 N.3   425  VAL425     -0.1245
    153  CA       162.2430  176.0070   -2.3620 C.3   425  VAL425      0.1561
    154  C        162.9160  175.8310   -3.7160 C.2   425  VAL425      0.2260
    155  O        162.3440  176.1770   -4.7560 O.2   425  VAL425     -0.2867
    156  CB       162.7310  177.2770   -1.6450 C.3   425  VAL425      0.0252
    157  CG1      162.6560  178.4820   -2.5790 C.3   425  VAL425      0.0019
    158  CG2      161.9190  177.5130   -0.3870 C.3   425  VAL425      0.0019
@<TRIPOS>BOND
     1    97    98    1
     2    95    96    2
     3    95    94    1
     4    93    94    1
     5   155   154    2
     6    98    99    1
     7    98   101    1
     8    99   100    2
     9    76    77    1
    10    89    90    2
    11    89    88    1
    12    17    14    1
    13   154   153    1
    14   101   102    1
    15    10     8   ar
    16    10    11   ar
    17    91    92    1
    18    91    88    1
    19    87    88    1
    20    87    78   am
    21    12    11    1
    22     8     6   ar
    23    77    78    1
    24    77    80    1
    25    78    79    2
    26   157   156    1
    27    11     9   ar
    28    14    13    1
    29    14    15    1
    30   153   156    1
    31   153   152    1
    32    82    84   ar
    33    82    81   ar
    34    84    86   ar
    35   102   103   ar
    36   102   104   ar
    37    13     3   am
    38     6     5    1
    39     6     7   ar
    40    80    81    1
    41   156   158    1
    42    81    83   ar
    43    15    16    2
    44    86    85   ar
    45   103   105   ar
    46   104   106   ar
    47     9     7   ar
    48   151   150    2
    49     5     2    1
    50    83    85   ar
    51     3     2    1
    52     3     4    2
    53     1     2    1
    54   105   107   ar
    55   150   149    1
    56   106   107   ar
    57   149   148    1
    58   144   143    2
    59   120   121    1
    60    18    19    1
    61   123   122    2
    62   143   148   am
    63   143   142    1
    64   121   122    1
    65   127   126    2
    66   113   112    1
    67    24    23   ar
    68   122   124   am
    69    25    23   ar
    70   126   125    1
    71    23    22    1
    72    38    36    1
    73   109   112    1
    74   109   108    1
    75   109   110    1
    76   111   110    2
    77    26    27    1
    78    19    22    1
    79    19    20    1
    80   124   125    1
    81   142   145    1
    82   142   141    1
    83    30    27    1
    84    21    20    2
    85   125   128    1
    86   110   114   am
    87    27    28    1
    88   145   146    1
    89   145   147    1
    90    36    35    1
    91   135   134    2
    92   114   115    1
    93   128   129    1
    94   117   116    2
    95   116   115    1
    96    67    66    1
    97    37    35    1
    98    35    32    1
    99    28    29    2
   100   115   118    1
   101   134   133    1
   102    64    66   ar
   103    64    62   ar
   104    66    65   ar
   105    55    54    1
   106   139   138   ar
   107   129   131    1
   108   129   130    1
   109   137   138    1
   110   137   136    1
   111    62    61   ar
   112    32    31    1
   113    32    33    1
   114    65    63   ar
   115   133   136    1
   116   133   132    1
   117   138   140   ar
   118   118   119    1
   119    54    53   ar
   120    54    52   ar
   121    61    63   ar
   122    61    60    1
   123    33    39   am
   124    33    34    2
   125    39    40    1
   126    53    51   ar
   127    52    50   ar
   128    60    57    1
   129    43    40    1
   130    40    41    1
   131    51    49   ar
   132    50    49   ar
   133    57    56    1
   134    57    58    1
   135    49    48    1
   136    56    46   am
   137    41    42    2
   138    59    58    2
   139    75    73   am
   140    58    68   am
   141    74    73    2
   142    73    72    1
   143    68    69    1
   144    46    45    1
   145    46    47    2
   146    44    45    1
   147    48    45    1
   148    69    72    1
   149    69    70    1
   150    70    71    2
