@<TRIPOS>MOLECULE
tmp/5i75A03.pdb
 125 118 0 0 0
SMALL
GASTEIGER

@<TRIPOS>ATOM
      1  N        171.1790  188.4790    4.3270 N.3    24  GLY24      -0.1225
      2  CA       172.1660  187.7040    3.5980 C.3    24  GLY24       0.1811
      3  C        172.9500  188.5520    2.6200 C.2    24  GLY24       0.2280
      4  O        174.1460  188.3330    2.4170 O.2    24  GLY24      -0.2866
      5  N        176.1960  187.3530    4.2060 N.3    28  ARG28      -0.1245
      6  CA       176.4800  186.1140    3.4870 C.3    28  ARG28       0.1563
      7  C        177.3380  186.3460    2.2490 C.2    28  ARG28       0.2260
      8  O        178.2930  185.5980    2.0070 O.2    28  ARG28      -0.2867
      9  CB       175.1750  185.4200    3.1020 C.3    28  ARG28       0.0307
     10  CG       175.1940  183.9180    3.3280 C.3    28  ARG28       0.0489
     11  CD       173.8650  183.4200    3.8660 C.3    28  ARG28       0.2205
     12  NE       173.9170  182.0040    4.2200 N.pl3  28  ARG28      -0.0865
     13  CZ       172.9250  181.3450    4.8110 C.cat  28  ARG28       0.5346
     14  NH1      173.0630  180.0590    5.1030 N.pl3  28  ARG28       0.1354
     15  NH2      171.7970  181.9730    5.1110 N.pl3  28  ARG28       0.1354
     16  N        178.1900  177.4020   -5.4780 N.3   252  ASP252     -0.1239
     17  CA       177.9890  178.3520   -4.3880 C.3   252  ASP252      0.1674
     18  C        177.4720  179.6830   -4.9200 C.2   252  ASP252      0.2266
     19  O        176.5520  180.2790   -4.3440 O.2   252  ASP252     -0.2867
     20  CB       179.2970  178.5540   -3.6210 C.3   252  ASP252      0.1410
     21  CG       179.6870  177.3410   -2.7920 C.2   252  ASP252      0.3668
     22  OD1      179.2320  176.2230   -3.1140 O.co2 252  ASP252     -0.2456
     23  OD2      180.4620  177.5050   -1.8250 O.co2 252  ASP252     -0.2456
     24  N        173.7300  179.2210   -6.1620 N.3   255  ALA255     -0.1231
     25  CA       172.8070  179.2120   -5.0330 C.3   255  ALA255      0.1694
     26  C        172.6820  180.6030   -4.4250 C.2   255  ALA255      0.2591
     27  O        171.5680  181.0690   -4.1440 O.2   255  ALA255     -0.2718
     28  CB       173.2660  178.2020   -3.9830 C.3   255  ALA255      0.0304
     29  N        173.8130  181.2920   -4.2380 N.am  256  GLN256     -0.1979
     30  CA       173.7770  182.6160   -3.6250 C.3   256  GLN256      0.1601
     31  C        172.9180  183.5790   -4.4380 C.2   256  GLN256      0.2287
     32  O        172.0740  184.2950   -3.8810 O.2   256  GLN256     -0.2864
     33  CB       175.2050  183.1570   -3.5030 C.3   256  GLN256      0.0394
     34  CG       175.3370  184.5770   -2.9510 C.3   256  GLN256      0.0908
     35  CD       174.8680  184.7230   -1.5170 C.2   256  GLN256      0.2608
     36  OE1      174.7970  183.7490   -0.7700 O.2   256  GLN256     -0.2717
     37  NE2      174.5470  185.9510   -1.1250 N.am  256  GLN256     -0.0878
     38  N        168.9630  182.4300   -4.0820 N.3   259  PHE259     -0.1227
     39  CA       168.2980  182.8230   -2.8460 C.3   259  PHE259      0.1736
     40  C        168.2820  184.3340   -2.6510 C.2   259  PHE259      0.2596
     41  O        167.3120  184.8750   -2.1060 O.2   259  PHE259     -0.2718
     42  CB       168.9500  182.1310   -1.6530 C.3   259  PHE259      0.0547
     43  CG       168.6840  180.6540   -1.5960 C.ar  259  PHE259     -0.0202
     44  CD1      169.4910  179.7650   -2.2830 C.ar  259  PHE259     -0.0042
     45  CD2      167.6150  180.1570   -0.8710 C.ar  259  PHE259     -0.0042
     46  CE1      169.2480  178.4070   -2.2350 C.ar  259  PHE259     -0.0003
     47  CE2      167.3670  178.8000   -0.8240 C.ar  259  PHE259     -0.0003
     48  CZ       168.1830  177.9240   -1.5050 C.ar  259  PHE259     -0.0000
     49  N        169.3490  185.0360   -3.0450 N.am  260  SER260     -0.1952
     50  CA       169.2900  186.4910   -2.9360 C.3   260  SER260      0.1924
     51  C        168.2320  187.0750   -3.8660 C.2   260  SER260      0.2314
     52  O        167.4920  187.9860   -3.4770 O.2   260  SER260     -0.2863
     53  CB       170.6610  187.0980   -3.2330 C.3   260  SER260      0.2116
     54  OG       170.6340  188.5030   -3.0590 O.3   260  SER260     -0.2180
     55  N        166.7980  176.0890    7.9250 N.3   417  GLU417     -0.1231
     56  CA       167.2200  176.9610    6.8390 C.3   417  GLU417      0.1699
     57  C        168.0820  176.2260    5.8230 C.2   417  GLU417      0.2592
     58  O        168.1000  176.6060    4.6470 O.2   417  GLU417     -0.2718
     59  CB       167.9740  178.1680    7.3940 C.3   417  GLU417      0.0402
     60  CG       168.2580  179.2480    6.3650 C.3   417  GLU417      0.1161
     61  CD       168.9920  180.4320    6.9590 C.2   417  GLU417      0.3649
     62  OE1      169.1560  181.4480    6.2510 O.co2 417  GLU417     -0.2457
     63  OE2      169.4080  180.3440    8.1340 O.co2 417  GLU417     -0.2457
     64  N        168.8090  175.1920    6.2450 N.am  418  GLU418     -0.1979
     65  CA       169.7510  174.5290    5.3560 C.3   418  GLU418      0.1602
     66  C        169.3290  173.1290    4.9350 C.2   418  GLU418      0.2287
     67  O        169.6350  172.7250    3.8120 O.2   418  GLU418     -0.2864
     68  CB       171.1360  174.4760    6.0100 C.3   418  GLU418      0.0415
     69  CG       172.2670  174.1920    5.0440 C.3   418  GLU418      0.1163
     70  CD       173.5750  174.8120    5.4990 C.2   418  GLU418      0.3649
     71  OE1      173.6050  175.3870    6.6100 O.co2 418  GLU418     -0.2457
     72  OE2      174.5690  174.7340    4.7430 O.co2 418  GLU418     -0.2457
     73  N        165.4960  175.1630    2.2330 N.3   422  GLY422     -0.1210
     74  CA       166.3050  175.3460    1.0490 C.3   422  GLY422      0.1940
     75  C        166.0140  174.3930   -0.0980 C.2   422  GLY422      0.2453
     76  O        165.5240  174.8050   -1.1590 O.2   422  GLY422     -0.2732
     77  N        166.2720  173.0940    0.0990 N.am  423  PRO423     -0.2728
     78  CA       166.0460  172.1380   -0.9990 C.3   423  PRO423      0.1401
     79  C        164.6070  172.0850   -1.4690 C.2   423  PRO423      0.2269
     80  O        164.3500  171.7240   -2.6250 O.2   423  PRO423     -0.2865
     81  CB       166.4720  170.7950   -0.3860 C.3   423  PRO423      0.0296
     82  CG       166.3600  171.0020    1.0940 C.3   423  PRO423      0.0237
     83  CD       166.7610  172.4260    1.3150 C.3   423  PRO423      0.0939
     84  N        164.1500  175.3150   -3.7280 N.3   426  LEU426     -0.1245
     85  CA       164.7910  175.0140   -5.0060 C.3   426  LEU426      0.1561
     86  C        163.9930  173.9810   -5.7870 C.2   426  LEU426      0.2260
     87  O        163.8830  174.0710   -7.0140 O.2   426  LEU426     -0.2867
     88  CB       166.2370  174.5710   -4.8090 C.3   426  LEU426      0.0270
     89  CG       167.2040  175.7520   -4.7850 C.3   426  LEU426      0.0019
     90  CD1      168.5080  175.3890   -4.1210 C.3   426  LEU426      0.0001
     91  CD2      167.4590  176.1750   -6.2200 C.3   426  LEU426      0.0001
     92  N        172.1140  173.0270   -8.8550 N.3   476  ILE476     -0.1231
     93  CA       172.1830  173.2950   -7.4210 C.3   476  ILE476      0.1692
     94  C        171.5060  172.1800   -6.6320 C.2   476  ILE476      0.2591
     95  O        172.0710  171.6520   -5.6640 O.2   476  ILE476     -0.2718
     96  CB       171.5590  174.6640   -7.0960 C.3   476  ILE476      0.0266
     97  CG1      172.1520  175.7590   -7.9810 C.3   476  ILE476      0.0019
     98  CG2      171.7510  175.0040   -5.6280 C.3   476  ILE476      0.0020
     99  CD1      171.5010  177.1050   -7.7740 C.3   476  ILE476      0.0001
    100  N        170.2900  171.7980   -7.0400 N.am  477  ILE477     -0.1980
    101  CA       169.5730  170.7220   -6.3530 C.3   477  ILE477      0.1595
    102  C        170.4060  169.4460   -6.3480 C.2   477  ILE477      0.2287
    103  O        170.5570  168.7840   -5.3140 O.2   477  ILE477     -0.2864
    104  CB       168.1920  170.4950   -6.9950 C.3   477  ILE477      0.0276
    105  CG1      167.1780  171.4850   -6.4310 C.3   477  ILE477      0.0022
    106  CG2      167.6990  169.0910   -6.7070 C.3   477  ILE477      0.0022
    107  CD1      166.7480  171.1530   -5.0180 C.3   477  ILE477      0.0001
    108  N        173.4300  169.6680   -3.9860 N.3   480  PHE480     -0.1241
    109  CA       173.0760  169.5020   -2.5790 C.3   480  PHE480      0.1605
    110  C        172.7280  168.0530   -2.2690 C.2   480  PHE480      0.2264
    111  O        173.2610  167.4660   -1.3210 O.2   480  PHE480     -0.2867
    112  CB       171.9140  170.4190   -2.2110 C.3   480  PHE480      0.0534
    113  CG       171.4090  170.2210   -0.8090 C.ar  480  PHE480     -0.0203
    114  CD1      172.1350  170.6840    0.2760 C.ar  480  PHE480     -0.0042
    115  CD2      170.2120  169.5640   -0.5780 C.ar  480  PHE480     -0.0042
    116  CE1      171.6730  170.4990    1.5660 C.ar  480  PHE480     -0.0003
    117  CE2      169.7460  169.3760    0.7090 C.ar  480  PHE480     -0.0003
    118  CZ       170.4780  169.8440    1.7820 C.ar  480  PHE480     -0.0000
    119  N        175.9420  169.4640    3.1100 N.3   485  PRO485     -0.2116
    120  CA       177.0480  169.9420    3.9510 C.3   485  PRO485      0.1372
    121  C        176.9020  169.5540    5.4170 C.2   485  PRO485      0.2244
    122  O        175.8020  169.5420    5.9740 O.2   485  PRO485     -0.2868
    123  CB       176.9900  171.4630    3.7760 C.3   485  PRO485      0.0268
    124  CG       175.5620  171.7400    3.4240 C.3   485  PRO485      0.0207
    125  CD       175.1060  170.5670    2.6070 C.3   485  PRO485      0.0892
@<TRIPOS>BOND
     1    92    93    1
     2    97    99    1
     3    97    96    1
     4    93    96    1
     5    93    94    1
     6    96    98    1
     7   100    94   am
     8   100   101    1
     9    87    86    2
    10   104   106    1
    11   104   105    1
    12   104   101    1
    13    94    95    2
    14   105   107    1
    15   101   102    1
    16   102   103    2
    17    91    89    1
    18    24    25    1
    19    86    85    1
    20    16    17    1
    21    25    26    1
    22    25    28    1
    23    85    88    1
    24    85    84    1
    25    18    17    1
    26    18    19    2
    27    88    89    1
    28    89    90    1
    29    31    32    2
    30    31    30    1
    31    26    29   am
    32    26    27    2
    33    17    20    1
    34    29    30    1
    35    38    39    1
    36   108   109    1
    37    51    52    2
    38    51    50    1
    39    30    33    1
    40    20    21    1
    41    33    34    1
    42    53    54    1
    43    53    50    1
    44    22    21   ar
    45    49    50    1
    46    49    40   am
    47    34    35    1
    48    39    40    1
    49    39    42    1
    50    21    23   ar
    51    40    41    2
    52    80    79    2
    53   109   110    1
    54   109   112    1
    55    44    46   ar
    56    44    43   ar
    57   110   111    2
    58    46    48   ar
    59   112   113    1
    60    42    43    1
    61    43    45   ar
    62    35    37   am
    63    35    36    2
    64    48    47   ar
    65    79    78    1
    66    76    75    2
    67    78    81    1
    68    78    77    1
    69    45    47   ar
    70   113   115   ar
    71   113   114   ar
    72   115   117   ar
    73    81    82    1
    74    75    77   am
    75    75    74    1
    76    77    83    1
    77   114   116   ar
    78   117   118   ar
    79    74    73    1
    80    82    83    1
    81   116   118   ar
    82     8     7    2
    83     7     6    1
    84     4     3    2
    85   125   119    1
    86   125   124    1
    87     3     2    1
    88     9    10    1
    89     9     6    1
    90   119   120    1
    91    10    11    1
    92   124   123    1
    93     6     5    1
    94     2     1    1
    95   123   120    1
    96    67    66    2
    97    11    12    1
    98   120   121    1
    99    12    13    2
   100    58    57    2
   101    72    70   ar
   102    13    14    1
   103    13    15    1
   104    66    65    1
   105    69    70    1
   106    69    68    1
   107    65    68    1
   108    65    64    1
   109   121   122    2
   110    70    71   ar
   111    57    64   am
   112    57    56    1
   113    62    61   ar
   114    60    61    1
   115    60    59    1
   116    56    59    1
   117    56    55    1
   118    61    63   ar
