@<TRIPOS>MOLECULE
tmp/5i77A01.pdb
 109 108 0 0 0
SMALL
GASTEIGER

@<TRIPOS>ATOM
      1  N         -3.6870   20.1340    6.8070 N.3    90  HIS90      -0.1241
      2  CA        -3.2590   18.7620    6.5190 C.3    90  HIS90       0.1621
      3  C         -2.8820   18.6440    5.0200 C.2    90  HIS90       0.2264
      4  O         -3.5840   17.9900    4.2560 O.2    90  HIS90      -0.2867
      5  CB        -4.3430   17.7900    6.9970 C.3    90  HIS90       0.0745
      6  CG        -3.8420   16.4160    7.3620 C.ar   90  HIS90       0.0817
      7  ND1       -4.0410   15.3060    6.5620 N.ar   90  HIS90      -0.2268
      8  CD2       -3.2170   15.9670    8.4640 C.ar   90  HIS90       0.1154
      9  CE1       -3.5110   14.2420    7.1340 C.ar   90  HIS90       0.1986
     10  NE2       -3.0230   14.6120    8.3040 N.ar   90  HIS90      -0.2212
     11  N          0.4830   18.5100    3.2570 N.3    92  TYR92      -0.1241
     12  CA         1.6220   17.8650    2.5620 C.3    92  TYR92       0.1605
     13  C          2.5360   18.8280    1.8480 C.2    92  TYR92       0.2264
     14  O          3.2480   18.4570    0.9070 O.2    92  TYR92      -0.2867
     15  CB         1.0960   16.8060    1.5830 C.3    92  TYR92       0.0534
     16  CG         0.1760   15.8660    2.2530 C.ar   92  TYR92      -0.0201
     17  CD1        0.6610   14.8100    3.0150 C.ar   92  TYR92      -0.0009
     18  CD2       -1.2350   16.0040    2.1320 C.ar   92  TYR92      -0.0009
     19  CE1       -0.1900   13.8940    3.6050 C.ar   92  TYR92       0.0417
     20  CE2       -2.1170   15.0750    2.7890 C.ar   92  TYR92       0.0417
     21  CZ        -1.5680   14.0300    3.4780 C.ar   92  TYR92       0.1957
     22  OH        -2.3580   13.1370    4.1390 O.3    92  TYR92      -0.2866
     23  N          3.0970   16.6220    7.1150 N.3   130  GLU130     -0.1245
     24  CA         3.8840   15.6790    6.2630 C.3   130  GLU130      0.1567
     25  C          4.3860   16.2460    4.9130 C.2   130  GLU130      0.2260
     26  O          3.9770   15.8470    3.8380 O.2   130  GLU130     -0.2867
     27  CB         3.1040   14.3820    6.0480 C.3   130  GLU130      0.0388
     28  CG         2.6990   13.6730    7.3140 C.3   130  GLU130      0.1160
     29  CD         2.0640   12.3190    7.1250 C.2   130  GLU130      0.3649
     30  OE1        1.5260   12.0800    6.0190 O.co2 130  GLU130     -0.2457
     31  OE2        2.0770   11.4830    8.0690 O.co2 130  GLU130     -0.2457
     32  N          7.6900   12.7040    5.1130 N.3   167  TRP167     -0.1241
     33  CA         6.3900   12.5640    5.7830 C.3   167  TRP167      0.1605
     34  C          6.5270   12.7280    7.3010 C.2   167  TRP167      0.2264
     35  O          5.8970   12.0880    8.0850 O.2   167  TRP167     -0.2867
     36  CB         5.7590   11.2120    5.4230 C.3   167  TRP167      0.0550
     37  CG         5.7190   10.9460    3.9080 C.ar  167  TRP167      0.0003
     38  CD1        6.7120   10.4600    3.1560 C.ar  167  TRP167      0.0946
     39  CD2        4.6170   11.1770    3.0310 C.ar  167  TRP167      0.0152
     40  NE1        6.2820   10.3100    1.8720 N.ar  167  TRP167     -0.2442
     41  CE2        5.0230   10.8060    1.7580 C.ar  167  TRP167      0.0810
     42  CE3        3.3260   11.6650    3.2000 C.ar  167  TRP167      0.0012
     43  CZ2        4.1740   10.8590    0.6570 C.ar  167  TRP167      0.0191
     44  CZ3        2.4650   11.7550    2.0760 C.ar  167  TRP167      0.0001
     45  CH2        2.9080   11.3520    0.8320 C.ar  167  TRP167      0.0015
     46  N          4.5610    4.9200   12.1740 N.3   197  TYR197     -0.1241
     47  CA         3.6920    3.7630   12.1450 C.3   197  TYR197      0.1605
     48  C          4.5700    2.5060   12.1880 C.2   197  TYR197      0.2264
     49  O          5.8240    2.5780   12.0190 O.2   197  TYR197     -0.2867
     50  CB         2.8100    3.8110   10.9130 C.3   197  TYR197      0.0534
     51  CG         1.8420    4.9110   10.9280 C.ar  197  TYR197     -0.0201
     52  CD1        0.6370    4.7610   11.5720 C.ar  197  TYR197     -0.0009
     53  CD2        2.1020    6.0830   10.2930 C.ar  197  TYR197     -0.0009
     54  CE1       -0.2860    5.7930   11.6050 C.ar  197  TYR197      0.0417
     55  CE2        1.2150    7.1510   10.3430 C.ar  197  TYR197      0.0417
     56  CZ        -0.0150    6.9670   11.0020 C.ar  197  TYR197      0.1957
     57  OH        -0.9590    7.9230   11.0750 O.3   197  TYR197     -0.2866
     58  N          3.8670    2.8650    6.3560 N.3   203  SER203     -0.1202
     59  CA         2.8380    3.6680    5.7110 C.3   203  SER203      0.2020
     60  C          1.5780    3.8110    6.6200 C.2   203  SER203      0.2619
     61  O          0.7230    4.6830    6.4570 O.2   203  SER203     -0.2717
     62  CB         2.4670    3.0030    4.3530 C.3   203  SER203      0.2103
     63  OG         1.7550    1.8290    4.5440 O.3   203  SER203     -0.2182
     64  N          1.4500    2.9600    7.6130 N.am  204  GLY204     -0.1942
     65  CA         0.2960    3.0240    8.4770 C.3   204  GLY204      0.2014
     66  C         -0.9920    2.5700    7.7650 C.2   204  GLY204      0.2639
     67  O         -2.0650    3.1530    8.0060 O.2   204  GLY204     -0.2714
     68  N         -0.8450    1.5610    6.8920 N.am  205  THR205     -0.1950
     69  CA        -1.9610    1.0200    6.0710 C.3   205  THR205      0.1897
     70  C         -2.3250   -0.4130    6.4040 C.2   205  THR205      0.2313
     71  O         -3.3590   -0.9070    5.9590 O.2   205  THR205     -0.2863
     72  CB        -1.7210    1.1710    4.5450 C.3   205  THR205      0.1794
     73  OG1       -0.5310    0.4860    4.1660 O.3   205  THR205     -0.2208
     74  CG2       -1.6280    2.5970    4.1590 C.3   205  THR205      0.0378
     75  N          1.3500   11.5480   15.0410 N.3   237  GLU237     -0.1245
     76  CA         0.5860   10.3770   14.5470 C.3   237  GLU237      0.1567
     77  C          1.3010    9.1220   14.8160 C.2   237  GLU237      0.2260
     78  O          2.5010    8.9820   14.4930 O.2   237  GLU237     -0.2867
     79  CB         0.2770   10.4410   13.0110 C.3   237  GLU237      0.0388
     80  CG        -0.3810   11.7120   12.4920 C.3   237  GLU237      0.1160
     81  CD        -0.6830   11.6320   10.9790 C.2   237  GLU237      0.3649
     82  OE1       -0.4650   10.5210   10.3730 O.co2 237  GLU237     -0.2457
     83  OE2       -0.9900   12.6830   10.3790 O.co2 237  GLU237     -0.2457
     84  N         -3.4750    8.2580   15.6920 N.3   270  TRP270     -0.1298
     85  CA        -4.1850    8.4360   14.4140 C.3   270  TRP270      0.1291
     86  C         -5.2190    7.2880   14.4840 C.3   270  TRP270      0.2013
     87  O         -4.7620    6.1710   14.2910 O.3   270  TRP270     -0.2188
     88  CB        -3.2410    8.3340   13.1970 C.3   270  TRP270      0.0497
     89  CG        -4.0160    8.5880   11.9250 C.ar  270  TRP270     -0.0001
     90  CD1       -4.5790    7.6280   11.1440 C.ar  270  TRP270      0.0946
     91  CD2       -4.3210    9.8320   11.3160 C.ar  270  TRP270      0.0152
     92  NE1       -5.2130    8.2130   10.0820 N.ar  270  TRP270     -0.2442
     93  CE2       -5.1000    9.5610   10.1850 C.ar  270  TRP270      0.0810
     94  CE3       -4.0850   11.1770   11.6430 C.ar  270  TRP270      0.0012
     95  CZ2       -5.5820   10.5650    9.3870 C.ar  270  TRP270      0.0191
     96  CZ3       -4.5450   12.1240   10.8880 C.ar  270  TRP270      0.0001
     97  CH2       -5.3000   11.8360    9.7450 C.ar  270  TRP270      0.0015
     98  N        -12.4890    1.4640   10.1360 N.3   279  TYR279     -0.1241
     99  CA       -11.0690    1.7200   10.0210 C.3   279  TYR279      0.1605
    100  C        -10.3170    0.9480   11.0940 C.2   279  TYR279      0.2264
    101  O        -10.6390    1.0390   12.2480 O.2   279  TYR279     -0.2867
    102  CB       -10.8680    3.2130   10.1770 C.3   279  TYR279      0.0534
    103  CG        -9.4870    3.7020    9.9470 C.ar  279  TYR279     -0.0201
    104  CD1       -8.7070    3.1880    8.9190 C.ar  279  TYR279     -0.0009
    105  CD2       -8.9710    4.7690   10.7300 C.ar  279  TYR279     -0.0009
    106  CE1       -7.4300    3.7080    8.6420 C.ar  279  TYR279      0.0417
    107  CE2       -7.6870    5.2830   10.4730 C.ar  279  TYR279      0.0417
    108  CZ        -6.9160    4.7610    9.4530 C.ar  279  TYR279      0.1957
    109  OH        -5.6550    5.3040    9.1640 O.3   279  TYR279     -0.2866
@<TRIPOS>BOND
     1    43    45   ar
     2    43    41   ar
     3    45    44   ar
     4    14    13    2
     5    15    16    1
     6    15    12    1
     7    41    40   ar
     8    41    39   ar
     9    13    12    1
    10    40    38   ar
    11    44    42   ar
    12    18    16   ar
    13    18    20   ar
    14    16    17   ar
    15    12    11    1
    16    20    21   ar
    17    17    19   ar
    18    39    42   ar
    19    39    37   ar
    20    38    37   ar
    21    21    19   ar
    22    21    22    1
    23    26    25    2
    24    37    36    1
    25    74    72    1
    26    73    72    1
    27     4     3    2
    28    62    63    1
    29    62    59    1
    30    72    69    1
    31    25    24    1
    32     3     2    1
    33    32    33    1
    34    36    33    1
    35    59    58    1
    36    59    60    1
    37    33    34    1
    38    71    70    2
    39    30    29   ar
    40    27    24    1
    41    27    28    1
    42    69    70    1
    43    69    68    1
    44    24    23    1
    45    61    60    2
    46     2     1    1
    47     2     5    1
    48     7     9   ar
    49     7     6   ar
    50    60    64   am
    51    68    66   am
    52     5     6    1
    53    29    28    1
    54    29    31   ar
    55     9    10   ar
    56    34    35    2
    57     6     8   ar
    58    64    65    1
    59    66    67    2
    60    66    65    1
    61    10     8   ar
    62   106   104   ar
    63   106   108   ar
    64   104   103   ar
    65   109   108    1
    66    95    97   ar
    67    95    93   ar
    68   108   107   ar
    69    97    96   ar
    70   103   102    1
    71   103   105   ar
    72    99    98    1
    73    99   102    1
    74    99   100    1
    75    92    93   ar
    76    92    90   ar
    77    93    91   ar
    78    53    55   ar
    79    53    51   ar
    80    55    56   ar
    81    82    81   ar
    82    83    81   ar
    83   107   105   ar
    84    96    94   ar
    85    50    51    1
    86    50    47    1
    87    51    52   ar
    88    81    80    1
    89    56    57    1
    90    56    54   ar
    91   100   101    2
    92    90    89   ar
    93    91    94   ar
    94    91    89   ar
    95    52    54   ar
    96    89    88    1
    97    49    48    2
    98    47    46    1
    99    47    48    1
   100    80    79    1
   101    79    76    1
   102    88    85    1
   103    87    86    1
   104    85    86    1
   105    85    84    1
   106    78    77    2
   107    76    77    1
   108    76    75    1
