@<TRIPOS>MOLECULE
tmp/5i78A01.pdb
 88 88 0 0 0
SMALL
GASTEIGER

@<TRIPOS>ATOM
      1  N         57.5030   18.2170   -0.4260 N.3   133  GLU133     -0.1245
      2  CA        57.7710   19.0290   -1.6570 C.3   133  GLU133      0.1567
      3  C         57.1180   18.4470   -2.9110 C.2   133  GLU133      0.2260
      4  O         57.8100   18.1260   -3.9120 O.2   133  GLU133     -0.2867
      5  CB        59.2730   19.3140   -1.8870 C.3   133  GLU133      0.0388
      6  CG        59.8640   20.1600   -0.7340 C.3   133  GLU133      0.1160
      7  CD        61.3550   20.3810   -0.7250 C.2   133  GLU133      0.3649
      8  OE1       62.1050   19.6250   -1.3270 O.co2 133  GLU133     -0.2457
      9  OE2       61.7880   21.2960    0.0470 O.co2 133  GLU133     -0.2457
     10  N         54.7790   23.4480   -5.9610 N.3   169  SER169     -0.1202
     11  CA        55.9130   24.3720   -6.0640 C.3   169  SER169      0.2020
     12  C         56.9160   24.1660   -4.9730 C.2   169  SER169      0.2618
     13  O         57.4290   25.1200   -4.3480 O.2   169  SER169     -0.2717
     14  CB        55.4960   25.8350   -6.1730 C.3   169  SER169      0.2103
     15  OG        54.9470   26.0380   -7.5210 O.3   169  SER169     -0.2182
     16  N         57.1340   22.8870   -4.6760 N.am  170  TRP170     -0.1975
     17  CA        58.0990   22.4810   -3.6370 C.3   170  TRP170      0.1640
     18  C         57.7320   23.0770   -2.2670 C.2   170  TRP170      0.2290
     19  O         58.5860   23.4280   -1.4420 O.2   170  TRP170     -0.2864
     20  CB        59.5200   22.8650   -3.9660 C.3   170  TRP170      0.0576
     21  CG        59.9670   22.4170   -5.3710 C.ar  170  TRP170      0.0006
     22  CD1       59.6690   23.0610   -6.5500 C.ar  170  TRP170      0.0946
     23  CD2       60.7540   21.2860   -5.7480 C.ar  170  TRP170      0.0152
     24  NE1       60.2050   22.4050   -7.6220 N.ar  170  TRP170     -0.2442
     25  CE2       60.8680   21.3170   -7.1490 C.ar  170  TRP170      0.0810
     26  CE3       61.4150   20.2240   -5.0420 C.ar  170  TRP170      0.0012
     27  CZ2       61.5470   20.3450   -7.8560 C.ar  170  TRP170      0.0191
     28  CZ3       62.0610   19.3260   -5.7530 C.ar  170  TRP170      0.0001
     29  CH2       62.1400   19.3970   -7.1360 C.ar  170  TRP170      0.0015
     30  N         56.9040   25.9360   -1.4880 N.3   172  GLY172     -0.1225
     31  CA        57.5670   27.1850   -1.1150 C.3   172  GLY172      0.1811
     32  C         56.6410   28.2400   -0.5290 C.2   172  GLY172      0.2280
     33  O         55.5270   28.4550   -1.0150 O.2   172  GLY172     -0.2866
     34  N         57.1590   31.4480   -0.7220 N.3   174  TRP174     -0.1241
     35  CA        57.1480   32.5990   -1.6390 C.3   174  TRP174      0.1605
     36  C         56.2250   32.4380   -2.8270 C.2   174  TRP174      0.2264
     37  O         55.8170   33.4660   -3.3960 O.2   174  TRP174     -0.2867
     38  CB        58.5280   32.9580   -2.0910 C.3   174  TRP174      0.0550
     39  CG        59.2890   31.9710   -2.9330 C.ar  174  TRP174      0.0003
     40  CD1       59.1630   30.6060   -3.0200 C.ar  174  TRP174      0.0946
     41  CD2       60.3420   32.2910   -3.8750 C.ar  174  TRP174      0.0152
     42  NE1       60.0380   30.0850   -3.9470 N.ar  174  TRP174     -0.2442
     43  CE2       60.7910   31.0890   -4.4530 C.ar  174  TRP174      0.0810
     44  CE3       60.9050   33.4700   -4.2440 C.ar  174  TRP174      0.0012
     45  CZ2       61.8250   31.0560   -5.4130 C.ar  174  TRP174      0.0191
     46  CZ3       61.9450   33.4290   -5.1870 C.ar  174  TRP174      0.0001
     47  CH2       62.3490   32.2590   -5.7370 C.ar  174  TRP174      0.0015
     48  N         58.2650   25.6910    2.8810 N.3   198  HIS198     -0.1226
     49  CA        59.7200   25.6370    2.9120 C.3   198  HIS198      0.1752
     50  C         60.2110   26.9590    2.3140 C.2   198  HIS198      0.2596
     51  O         59.5130   27.5900    1.4970 O.2   198  HIS198     -0.2718
     52  CB        60.2860   24.4610    2.1310 C.3   198  HIS198      0.0759
     53  CG        59.8890   23.1570    2.7040 C.ar  198  HIS198      0.0818
     54  ND1       60.2360   21.9600    2.1010 N.ar  198  HIS198     -0.2268
     55  CD2       59.2680   22.8410    3.8640 C.ar  198  HIS198      0.1154
     56  CE1       59.7850   20.9650    2.8420 C.ar  198  HIS198      0.1986
     57  NE2       59.1910   21.4610    3.9190 N.ar  198  HIS198     -0.2212
     58  N         61.3600   27.4260    2.7610 N.am  199  GLN199     -0.1965
     59  CA        61.8900   28.6990    2.2050 C.3   199  GLN199      0.1733
     60  C         63.3620   28.7960    2.2790 C.2   199  GLN199      0.2616
     61  O         63.9540   28.7310    3.3260 O.2   199  GLN199     -0.2715
     62  CB        61.2420   29.9260    2.8490 C.3   199  GLN199      0.0408
     63  CG        61.4650   31.1430    1.9610 C.3   199  GLN199      0.0908
     64  CD        60.8720   31.0130    0.6250 C.2   199  GLN199      0.2608
     65  OE1       59.6600   30.8300    0.4660 O.2   199  GLN199     -0.2717
     66  NE2       61.7030   31.0800   -0.3720 N.am  199  GLN199     -0.0878
     67  N         63.9630   28.9530    1.1130 N.am  200  TYR200     -0.1974
     68  CA        65.3620   29.3310    1.0200 C.3   200  TYR200      0.1639
     69  C         65.5430   30.7420    0.5390 C.2   200  TYR200      0.2290
     70  O         64.6280   31.3980    0.0870 O.2   200  TYR200     -0.2864
     71  CB        66.1300   28.2720    0.1750 C.3   200  TYR200      0.0560
     72  CG        66.0100   26.8690    0.7660 C.ar  200  TYR200     -0.0198
     73  CD1       66.7710   26.4950    1.8440 C.ar  200  TYR200     -0.0009
     74  CD2       65.0940   25.9450    0.3040 C.ar  200  TYR200     -0.0009
     75  CE1       66.5860   25.3120    2.4490 C.ar  200  TYR200      0.0417
     76  CE2       64.9380   24.7530    0.9460 C.ar  200  TYR200      0.0417
     77  CZ        65.6540   24.4640    2.0250 C.ar  200  TYR200      0.1957
     78  OH        65.5270   23.2320    2.6290 O.3   200  TYR200     -0.2866
     79  N         65.8540   30.6550   -4.8980 N.3   205  GLY205     -0.1210
     80  CA        65.1240   29.8800   -3.8620 C.3   205  GLY205      0.1956
     81  C         65.3630   28.3950   -3.8510 C.2   205  GLY205      0.2612
     82  O         64.6450   27.6760   -3.1700 O.2   205  GLY205     -0.2717
     83  N         66.4370   27.9190   -4.4530 N.am  206  SER206     -0.1952
     84  CA        66.6670   26.4680   -4.5260 C.3   206  SER206      0.1924
     85  C         67.4580   25.9670   -3.3380 C.2   206  SER206      0.2314
     86  O         67.6360   24.7760   -3.1880 O.2   206  SER206     -0.2863
     87  CB        67.5200   26.1740   -5.7670 C.3   206  SER206      0.2116
     88  OG        68.7650   26.8100   -5.6870 O.3   206  SER206     -0.2180
@<TRIPOS>BOND
     1    27    25   ar
     2    27    29   ar
     3    24    25   ar
     4    24    22   ar
     5    15    14    1
     6    25    23   ar
     7    29    28   ar
     8    22    21   ar
     9    14    11    1
    10    11    10    1
    11    11    12    1
    12    87    88    1
    13    87    84    1
    14    28    26   ar
    15    23    21   ar
    16    23    26   ar
    17    47    45   ar
    18    47    46   ar
    19    45    43   ar
    20    21    20    1
    21    46    44   ar
    22    12    16   am
    23    12    13    2
    24    79    80    1
    25    16    17    1
    26    84    83    1
    27    84    85    1
    28    83    81   am
    29    43    42   ar
    30    43    41   ar
    31    44    41   ar
    32    20    17    1
    33    42    40   ar
    34     4     3    2
    35    41    39   ar
    36    80    81    1
    37    81    82    2
    38    17    18    1
    39    37    36    2
    40    85    86    2
    41    40    39   ar
    42    39    38    1
    43     3     2    1
    44    36    35    1
    45    18    19    2
    46    38    35    1
    47     5     2    1
    48     5     6    1
    49     2     1    1
    50    35    34    1
    51    30    31    1
    52     8     7   ar
    53    31    32    1
    54    33    32    2
    55     6     7    1
    56     7     9   ar
    57    66    64   am
    58    70    69    2
    59    71    72    1
    60    71    68    1
    61    74    72   ar
    62    74    76   ar
    63    65    64    2
    64    69    68    1
    65    64    63    1
    66    72    73   ar
    67    76    77   ar
    68    68    67    1
    69    67    60   am
    70    51    50    2
    71    73    75   ar
    72    63    62    1
    73    77    75   ar
    74    77    78    1
    75    54    53   ar
    76    54    56   ar
    77    52    53    1
    78    52    49    1
    79    59    60    1
    80    59    58    1
    81    59    62    1
    82    60    61    2
    83    50    58   am
    84    50    49    1
    85    53    55   ar
    86    56    57   ar
    87    48    49    1
    88    55    57   ar
