@<TRIPOS>MOLECULE
tmp/5i79B00.pdb
 208 208 0 0 0
SMALL
GASTEIGER

@<TRIPOS>ATOM
      1  N         13.6010  -31.4650   -3.8840 N.3    15  GLU15      -0.1231
      2  CA        14.0020  -31.2590   -2.5040 C.3    15  GLU15       0.1699
      3  C         12.8150  -31.0120   -1.5730 C.2    15  GLU15       0.2592
      4  O         13.0010  -30.8210   -0.3940 O.2    15  GLU15      -0.2718
      5  CB        15.0500  -30.1220   -2.3840 C.3    15  GLU15       0.0402
      6  CG        14.5250  -28.6730   -2.2360 C.3    15  GLU15       0.1161
      7  CD        13.7180  -28.1390   -3.4330 C.2    15  GLU15       0.3649
      8  OE1       13.3550  -28.9290   -4.3450 O.co2  15  GLU15      -0.2457
      9  OE2       13.4610  -26.9010   -3.4430 O.co2  15  GLU15      -0.2457
     10  N         11.5990  -31.0690   -2.0740 N.am   16  PHE16      -0.1962
     11  CA        10.4480  -30.6980   -1.2650 C.3    16  PHE16       0.1771
     12  C         10.1750  -31.7070   -0.1750 C.2    16  PHE16       0.2620
     13  O         10.6300  -32.8410   -0.2330 O.2    16  PHE16      -0.2715
     14  CB         9.2130  -30.6290   -2.1440 C.3    16  PHE16       0.0574
     15  CG         9.0350  -29.3210   -2.8480 C.ar   16  PHE16      -0.0200
     16  CD1       10.0800  -28.4110   -2.9670 C.ar   16  PHE16      -0.0042
     17  CD2        7.8090  -29.0200   -3.4140 C.ar   16  PHE16      -0.0042
     18  CE1        9.8970  -27.2250   -3.6250 C.ar   16  PHE16      -0.0003
     19  CE2        7.6130  -27.8200   -4.0640 C.ar   16  PHE16      -0.0003
     20  CZ         8.6570  -26.9200   -4.1770 C.ar   16  PHE16      -0.0000
     21  N          9.4170  -31.2720    0.8130 N.am   17  GLY17      -0.1940
     22  CA         8.9250  -32.1580    1.8410 C.3    17  GLY17       0.2014
     23  C          9.8220  -32.2610    3.0420 C.2    17  GLY17       0.2639
     24  O         10.9180  -31.7240    3.0630 O.2    17  GLY17      -0.2714
     25  N          9.3250  -32.9990    4.0280 N.am   18  THR18      -0.1950
     26  CA         9.9620  -33.2020    5.3260 C.3    18  THR18       0.1897
     27  C         10.3160  -34.6540    5.6150 C.2    18  THR18       0.2313
     28  O         11.0090  -34.8910    6.5780 O.2    18  THR18      -0.2863
     29  CB         9.0000  -32.8250    6.4580 C.3    18  THR18       0.1794
     30  OG1        8.0430  -33.8840    6.6330 O.3    18  THR18      -0.2208
     31  CG2        8.2450  -31.5290    6.1400 C.3    18  THR18       0.0378
     32  N          4.4490  -38.0380   -3.5390 N.3    26  THR26      -0.1203
     33  CA         3.7830  -37.7710   -2.2950 C.3    26  THR26       0.1994
     34  C          4.5560  -36.6550   -1.6020 C.2    26  THR26       0.2617
     35  O          3.9860  -35.6110   -1.2670 O.2    26  THR26      -0.2717
     36  CB         3.7810  -39.0600   -1.4400 C.3    26  THR26       0.1784
     37  OG1        2.8760  -40.0200   -2.0080 O.3    26  THR26      -0.2211
     38  CG2        3.4070  -38.7960    0.0000 C.3    26  THR26       0.0376
     39  N          5.8590  -36.8870   -1.3960 N.am   27  ASP27      -0.1973
     40  CA         6.7250  -35.9900   -0.6270 C.3    27  ASP27       0.1709
     41  C          7.4900  -35.0340   -1.5080 C.2    27  ASP27       0.2293
     42  O          7.6720  -33.8460   -1.1430 O.2    27  ASP27      -0.2864
     43  CB         7.7140  -36.8010    0.1900 C.3    27  ASP27       0.1436
     44  CG         7.0320  -37.5880    1.2790 C.2    27  ASP27       0.3671
     45  OD1        6.5500  -36.9280    2.2380 O.co2  27  ASP27      -0.2456
     46  OD2        6.9420  -38.8320    1.1460 O.co2  27  ASP27      -0.2456
     47  N         18.6360  -23.7130  -12.5170 N.3    48  ARG48      -0.1245
     48  CA        19.2630  -24.2220  -11.2920 C.3    48  ARG48       0.1563
     49  C         18.3200  -25.2610  -10.6860 C.2    48  ARG48       0.2260
     50  O         17.2250  -24.9330  -10.2480 O.2    48  ARG48      -0.2867
     51  CB        19.4870  -23.0700  -10.3390 C.3    48  ARG48       0.0307
     52  CG        20.1760  -23.4060   -9.0180 C.3    48  ARG48       0.0489
     53  CD        20.4860  -22.1270   -8.2820 C.3    48  ARG48       0.2205
     54  NE        21.1910  -22.4100   -7.0240 N.pl3  48  ARG48      -0.0865
     55  CZ        20.6710  -22.3220   -5.8010 C.cat  48  ARG48       0.5346
     56  NH1       19.4130  -21.9620   -5.6520 N.pl3  48  ARG48       0.1354
     57  NH2       21.4180  -22.5950   -4.7240 N.pl3  48  ARG48       0.1354
     58  N         20.7430  -28.8210   -2.4150 N.3    92  HIS92      -0.1241
     59  CA        20.0430  -27.8400   -1.6780 C.3    92  HIS92       0.1621
     60  C         20.0980  -28.1900   -0.2110 C.2    92  HIS92       0.2264
     61  O         19.0770  -28.4570    0.3840 O.2    92  HIS92      -0.2867
     62  CB        18.5980  -27.7820   -2.1470 C.3    92  HIS92       0.0745
     63  CG        18.0120  -26.4160   -2.0620 C.ar   92  HIS92       0.0817
     64  ND1       16.9820  -26.0920   -1.2040 N.ar   92  HIS92      -0.2268
     65  CD2       18.3300  -25.2790   -2.7080 C.ar   92  HIS92       0.1154
     66  CE1       16.6730  -24.8140   -1.3430 C.ar   92  HIS92       0.1986
     67  NE2       17.4740  -24.2990   -2.2600 N.ar   92  HIS92      -0.2212
     68  N         22.3920  -26.6600    2.5430 N.3    94  TYR94      -0.1241
     69  CA        22.6190  -25.7410    3.6770 C.3    94  TYR94       0.1605
     70  C         23.8910  -26.0830    4.4440 C.2    94  TYR94       0.2264
     71  O         23.9750  -25.8530    5.6500 O.2    94  TYR94      -0.2867
     72  CB        21.3880  -25.7300    4.6380 C.3    94  TYR94       0.0534
     73  CG        20.0660  -25.3980    3.9140 C.ar   94  TYR94      -0.0201
     74  CD1       19.7240  -24.0680    3.6380 C.ar   94  TYR94      -0.0009
     75  CD2       19.2020  -26.4010    3.4550 C.ar   94  TYR94      -0.0009
     76  CE1       18.5620  -23.7500    2.9880 C.ar   94  TYR94       0.0417
     77  CE2       18.0520  -26.0790    2.7850 C.ar   94  TYR94       0.0417
     78  CZ        17.7380  -24.7410    2.5540 C.ar   94  TYR94       0.1957
     79  OH        16.6060  -24.3530    1.8550 O.3    94  TYR94      -0.2866
     80  N         23.8040  -25.1990   -1.5190 N.3   131  ASN131     -0.1225
     81  CA        22.9080  -24.1110   -1.3290 C.3   131  ASN131      0.1785
     82  C         22.9470  -23.5220    0.1030 C.2   131  ASN131      0.2597
     83  O         22.6350  -24.2370    1.0630 O.2   131  ASN131     -0.2718
     84  CB        21.5010  -24.5840   -1.5880 C.3   131  ASN131      0.1169
     85  CG        20.4670  -23.5160   -1.2680 C.2   131  ASN131      0.2627
     86  OD1       20.1970  -22.6600   -2.0930 O.2   131  ASN131     -0.2716
     87  ND2       19.8670  -23.5930   -0.0870 N.am  131  ASN131     -0.0877
     88  N         23.3210  -22.2350    0.2200 N.am  132  GLU132     -0.1979
     89  CA        23.1470  -21.4530    1.4370 C.3   132  GLU132      0.1602
     90  C         23.7260  -22.0090    2.7340 C.2   132  GLU132      0.2287
     91  O         23.0090  -22.3950    3.6420 O.2   132  GLU132     -0.2864
     92  CB        21.6800  -21.1110    1.6040 C.3   132  GLU132      0.0415
     93  CG        21.2070  -20.2140    0.4820 C.3   132  GLU132      0.1163
     94  CD        19.7400  -19.8990    0.5280 C.2   132  GLU132      0.3649
     95  OE1       18.9710  -20.6720    1.1430 O.co2 132  GLU132     -0.2457
     96  OE2       19.3250  -18.8890   -0.0910 O.co2 132  GLU132     -0.2457
     97  N         23.7080  -17.5130    4.4320 N.3   169  TRP169     -0.1241
     98  CA        22.7570  -17.9450    3.3720 C.3   169  TRP169      0.1605
     99  C         23.1620  -17.3490    2.0260 C.2   169  TRP169      0.2264
    100  O         22.3160  -17.0430    1.1970 O.2   169  TRP169     -0.2867
    101  CB        21.2960  -17.6300    3.7510 C.3   169  TRP169      0.0550
    102  CG        20.9080  -18.0410    5.2170 C.ar  169  TRP169      0.0003
    103  CD1       21.1890  -17.3460    6.3590 C.ar  169  TRP169      0.0946
    104  CD2       20.1500  -19.1950    5.6430 C.ar  169  TRP169      0.0152
    105  NE1       20.6850  -17.9830    7.4590 N.ar  169  TRP169     -0.2442
    106  CE2       20.0400  -19.1200    7.0570 C.ar  169  TRP169      0.0810
    107  CE3       19.5430  -20.2800    4.9650 C.ar  169  TRP169      0.0012
    108  CZ2       19.3580  -20.1000    7.8230 C.ar  169  TRP169      0.0191
    109  CZ3       18.8740  -21.2210    5.7030 C.ar  169  TRP169      0.0001
    110  CH2       18.7830  -21.1250    7.1420 C.ar  169  TRP169      0.0015
    111  N         22.6530  -14.7910   -3.0000 N.3   197  HIS197     -0.1241
    112  CA        21.1860  -14.7670   -3.0950 C.3   197  HIS197      0.1621
    113  C         20.7140  -13.4700   -2.4710 C.2   197  HIS197      0.2264
    114  O         21.4410  -12.8350   -1.6820 O.2   197  HIS197     -0.2867
    115  CB        20.5370  -15.9520   -2.4160 C.3   197  HIS197      0.0745
    116  CG        20.9140  -17.2840   -2.9980 C.ar  197  HIS197      0.0817
    117  ND1       20.5970  -18.4700   -2.3800 N.ar  197  HIS197     -0.2268
    118  CD2       21.6240  -17.6300   -4.1000 C.ar  197  HIS197      0.1154
    119  CE1       21.0640  -19.4890   -3.0800 C.ar  197  HIS197      0.1986
    120  NE2       21.6990  -19.0090   -4.1250 N.ar  197  HIS197     -0.2212
    121  N         16.9440  -11.4520   -1.3100 N.3   199  TYR199     -0.1241
    122  CA        15.5540  -11.1900   -1.2740 C.3   199  TYR199      0.1605
    123  C         15.3610   -9.7660   -0.7940 C.2   199  TYR199      0.2264
    124  O         16.3000   -9.1180   -0.3400 O.2   199  TYR199     -0.2867
    125  CB        14.8780  -12.2200   -0.3940 C.3   199  TYR199      0.0534
    126  CG        14.9420  -13.6030   -1.0210 C.ar  199  TYR199     -0.0201
    127  CD1       14.1660  -13.9060   -2.1290 C.ar  199  TYR199     -0.0009
    128  CD2       15.7830  -14.5920   -0.5220 C.ar  199  TYR199     -0.0009
    129  CE1       14.2260  -15.1480   -2.7250 C.ar  199  TYR199      0.0417
    130  CE2       15.8360  -15.8450   -1.1060 C.ar  199  TYR199      0.0417
    131  CZ        15.0550  -16.1030   -2.2150 C.ar  199  TYR199      0.1957
    132  OH        15.0690  -17.3280   -2.8150 O.3   199  TYR199     -0.2866
    133  N         14.4450  -12.7850    4.2750 N.3   205  SER205     -0.1202
    134  CA        14.2040  -14.2370    4.2530 C.3   205  SER205      0.2020
    135  C         13.4640  -14.6870    2.9970 C.2   205  SER205      0.2619
    136  O         13.4310  -15.8820    2.6720 O.2   205  SER205     -0.2717
    137  CB        13.3640  -14.6360    5.4400 C.3   205  SER205      0.2103
    138  OG        12.1260  -13.9370    5.3660 O.3   205  SER205     -0.2182
    139  N         12.8500  -13.7510    2.2880 N.am  206  GLY206     -0.1942
    140  CA        12.1030  -14.0970    1.0960 C.3   206  GLY206      0.2014
    141  C         10.8730  -14.9120    1.4250 C.2   206  GLY206      0.2639
    142  O         10.5640  -15.8940    0.7370 O.2   206  GLY206     -0.2714
    143  N         10.1610  -14.4850    2.4630 N.am  207  THR207     -0.1950
    144  CA         8.8960  -15.1100    2.8550 C.3   207  THR207      0.1897
    145  C          7.7080  -14.1580    2.8310 C.2   207  THR207      0.2313
    146  O          6.6120  -14.5520    3.0660 O.2   207  THR207     -0.2863
    147  CB         9.0410  -15.7920    4.2420 C.3   207  THR207      0.1794
    148  OG1        9.4510  -14.8420    5.2060 O.3   207  THR207     -0.2208
    149  CG2       10.1320  -16.8860    4.1890 C.3   207  THR207      0.0378
    150  N         19.4820  -16.8430   -6.6160 N.3   239  ALA239     -0.1245
    151  CA        18.1280  -16.8400   -6.0870 C.3   239  ALA239      0.1562
    152  C         17.7130  -15.4250   -5.6830 C.2   239  ALA239      0.2260
    153  O         18.3550  -14.7890   -4.8680 O.2   239  ALA239     -0.2867
    154  CB        18.0180  -17.7950   -4.9120 C.3   239  ALA239      0.0290
    155  N         13.8860  -17.2940   -8.0810 N.3   272  TRP272     -0.1241
    156  CA        13.3030  -18.2690   -7.1600 C.3   272  TRP272      0.1605
    157  C         11.8000  -18.1070   -7.1380 C.2   272  TRP272      0.2264
    158  O         11.3160  -17.1550   -6.5530 O.2   272  TRP272     -0.2867
    159  CB        13.8220  -18.0650   -5.7200 C.3   272  TRP272      0.0550
    160  CG        13.3470  -19.1690   -4.8320 C.ar  272  TRP272      0.0003
    161  CD1       12.2460  -19.1500   -4.0290 C.ar  272  TRP272      0.0946
    162  CD2       13.8970  -20.4840   -4.7260 C.ar  272  TRP272      0.0152
    163  NE1       12.0700  -20.3670   -3.4530 N.ar  272  TRP272     -0.2442
    164  CE2       13.0830  -21.2010   -3.8370 C.ar  272  TRP272      0.0810
    165  CE3       15.0080  -21.1120   -5.2750 C.ar  272  TRP272      0.0012
    166  CZ2       13.3420  -22.5330   -3.4780 C.ar  272  TRP272      0.0191
    167  CZ3       15.2800  -22.4500   -4.9240 C.ar  272  TRP272      0.0001
    168  CH2       14.4440  -23.1440   -4.0420 C.ar  272  TRP272      0.0015
    169  N          5.1840  -28.0400   -8.3430 N.3   277  TRP277     -0.1227
    170  CA         4.3610  -28.2430   -7.1540 C.3   277  TRP277      0.1737
    171  C          4.2920  -26.9620   -6.3300 C.2   277  TRP277      0.2595
    172  O          4.0300  -27.0130   -5.1230 O.2   277  TRP277     -0.2718
    173  CB         4.9340  -29.3770   -6.3070 C.3   277  TRP277      0.0564
    174  CG         4.3950  -30.7420   -6.6160 C.ar  277  TRP277      0.0003
    175  CD1        3.6910  -31.1160   -7.7110 C.ar  277  TRP277      0.0946
    176  CD2        4.5520  -31.9280   -5.8210 C.ar  277  TRP277      0.0152
    177  NE1        3.3700  -32.4560   -7.6460 N.ar  277  TRP277     -0.2442
    178  CE2        3.8990  -32.9840   -6.5050 C.ar  277  TRP277      0.0810
    179  CE3        5.1700  -32.2030   -4.5870 C.ar  277  TRP277      0.0012
    180  CZ2        3.8500  -34.2880   -6.0060 C.ar  277  TRP277      0.0191
    181  CZ3        5.1060  -33.5170   -4.0810 C.ar  277  TRP277      0.0001
    182  CH2        4.4580  -34.5270   -4.7870 C.ar  277  TRP277      0.0015
    183  N          4.5120  -25.8120   -6.9610 N.am  278  TRP278     -0.1976
    184  CA         4.4970  -24.5530   -6.1950 C.3   278  TRP278      0.1640
    185  C          3.0770  -24.0620   -5.9580 C.2   278  TRP278      0.2290
    186  O          2.8460  -23.2870   -5.0620 O.2   278  TRP278     -0.2864
    187  CB         5.3060  -23.4320   -6.8780 C.3   278  TRP278      0.0576
    188  CG         6.7810  -23.5680   -6.7230 C.ar  278  TRP278      0.0006
    189  CD1        7.6900  -23.7890   -7.7020 C.ar  278  TRP278      0.0946
    190  CD2        7.5200  -23.4680   -5.5180 C.ar  278  TRP278      0.0152
    191  NE1        8.9380  -23.8540   -7.1820 N.ar  278  TRP278     -0.2442
    192  CE2        8.8600  -23.6440   -5.8370 C.ar  278  TRP278      0.0810
    193  CE3        7.1770  -23.2420   -4.1980 C.ar  278  TRP278      0.0012
    194  CZ2        9.8460  -23.6070   -4.8930 C.ar  278  TRP278      0.0191
    195  CZ3        8.1640  -23.2050   -3.2720 C.ar  278  TRP278      0.0001
    196  CH2        9.4800  -23.3930   -3.6140 C.ar  278  TRP278      0.0015
    197  N          2.1930  -20.4580   -4.6030 N.3   281  TYR281     -0.1241
    198  CA         3.3650  -19.7700   -4.1310 C.3   281  TYR281      0.1605
    199  C          3.4240  -18.3670   -4.7280 C.2   281  TYR281      0.2264
    200  O          3.2590  -18.1760   -5.9240 O.2   281  TYR281     -0.2867
    201  CB         4.5900  -20.5750   -4.5310 C.3   281  TYR281      0.0534
    202  CG         5.8940  -20.1590   -3.8960 C.ar  281  TYR281     -0.0201
    203  CD1        5.9780  -19.8600   -2.5430 C.ar  281  TYR281     -0.0009
    204  CD2        7.0660  -20.1480   -4.6460 C.ar  281  TYR281     -0.0009
    205  CE1        7.1830  -19.5080   -1.9700 C.ar  281  TYR281      0.0417
    206  CE2        8.2750  -19.7930   -4.0840 C.ar  281  TYR281      0.0417
    207  CZ         8.3440  -19.4760   -2.7520 C.ar  281  TYR281      0.1957
    208  OH         9.5730  -19.1190   -2.2000 O.3   281  TYR281     -0.2866
@<TRIPOS>BOND
     1    47    48    1
     2    48    49    1
     3    48    51    1
     4    49    50    2
     5    51    52    1
     6    52    53    1
     7   169   170    1
     8    53    54    1
     9   155   156    1
    10   175   177   ar
    11   175   174   ar
    12   189   191   ar
    13   189   188   ar
    14   177   178   ar
    15   191   192   ar
    16   156   157    1
    17   156   159    1
    18   170   171    1
    19   170   173    1
    20   157   158    2
    21    54    55    2
    22   183   171   am
    23   183   184    1
    24   187   188    1
    25   187   184    1
    26   188   190   ar
    27   174   173    1
    28   174   176   ar
    29   150   151    1
    30   178   180   ar
    31   178   176   ar
    32   171   172    2
    33   184   185    1
    34   151   152    1
    35   151   154    1
    36   180   182   ar
    37   185   186    2
    38   200   199    2
    39   192   190   ar
    40   192   194   ar
    41   176   179   ar
    42    55    56    1
    43    55    57    1
    44   159   160    1
    45   152   153    2
    46   190   193   ar
    47   165   167   ar
    48   165   162   ar
    49   167   168   ar
    50   194   196   ar
    51   160   162   ar
    52   160   161   ar
    53   182   181   ar
    54   199   198    1
    55   162   164   ar
    56   204   206   ar
    57   204   202   ar
    58   197   198    1
    59   179   181   ar
    60   201   198    1
    61   201   202    1
    62     8     7   ar
    63   193   195   ar
    64    20    19   ar
    65    20    18   ar
    66   120   118   ar
    67   120   119   ar
    68   118   116   ar
    69   206   207   ar
    70    19    17   ar
    71   168   166   ar
    72   161   163   ar
    73   202   203   ar
    74     1     2    1
    75   164   166   ar
    76   164   163   ar
    77    18    16   ar
    78   196   195   ar
    79    32    33    1
    80     9     7   ar
    81     7     6    1
    82    17    15   ar
    83   112   111    1
    84   112   113    1
    85   112   115    1
    86   119   117   ar
    87   116   115    1
    88   116   117   ar
    89    16    15   ar
    90    15    14    1
    91   132   131    1
    92   207   208    1
    93   207   205   ar
    94   129   131   ar
    95   129   127   ar
    96    65    67   ar
    97    65    63   ar
    98   203   205   ar
    99     2     5    1
   100     2     3    1
   101   113   114    2
   102    58    59    1
   103     5     6    1
   104    33    34    1
   105    33    36    1
   106    67    66   ar
   107   131   130   ar
   108    62    63    1
   109    62    59    1
   110    14    11    1
   111   127   126   ar
   112    86    85    2
   113    10     3   am
   114    10    11    1
   115    63    64   ar
   116    37    36    1
   117    59    60    1
   118    34    39   am
   119    34    35    2
   120    84    81    1
   121    84    85    1
   122     3     4    2
   123    80    81    1
   124    41    42    2
   125    41    40    1
   126    36    38    1
   127    39    40    1
   128    66    64   ar
   129    81    82    1
   130   121   122    1
   131   122   123    1
   132   122   125    1
   133    85    87   am
   134    11    12    1
   135   130   128   ar
   136   126   128   ar
   137   126   125    1
   138   123   124    2
   139    40    43    1
   140    13    12    2
   141    60    61    2
   142    12    21   am
   143    96    94   ar
   144    82    88   am
   145    82    83    2
   146    43    44    1
   147    88    89    1
   148    93    94    1
   149    93    92    1
   150    94    95   ar
   151   142   141    2
   152    21    22    1
   153   140   141    1
   154   140   139    1
   155    46    44   ar
   156   100    99    2
   157    44    45   ar
   158   141   143   am
   159    89    92    1
   160    89    90    1
   161    22    23    1
   162    79    78    1
   163    99    98    1
   164   139   135   am
   165   143   144    1
   166    68    69    1
   167    78    77   ar
   168    78    76   ar
   169   136   135    2
   170    90    91    2
   171    77    75   ar
   172   145   144    1
   173   145   146    2
   174   144   147    1
   175    76    74   ar
   176   135   134    1
   177    23    24    2
   178    23    25   am
   179    98   101    1
   180    98    97    1
   181    75    73   ar
   182    74    73   ar
   183    69    70    1
   184    69    72    1
   185   101   102    1
   186    73    72    1
   187    25    26    1
   188   149   147    1
   189   147   148    1
   190   134   133    1
   191   134   137    1
   192    70    71    2
   193   107   104   ar
   194   107   109   ar
   195   102   104   ar
   196   102   103   ar
   197    26    27    1
   198    26    29    1
   199   138   137    1
   200    27    28    2
   201   104   106   ar
   202   109   110   ar
   203    31    29    1
   204   103   105   ar
   205    29    30    1
   206   106   105   ar
   207   106   108   ar
   208   110   108   ar
