@<TRIPOS>MOLECULE
tmp/5i7fJ01.pdb
 142 135 0 0 0
SMALL
GASTEIGER

@<TRIPOS>ATOM
      1  N        -28.4460   39.5540  245.8530 N.3    91  ILE91      -0.1231
      2  CA       -27.9570   40.7630  246.5120 C.3    91  ILE91       0.1692
      3  C        -27.5210   40.5260  247.9470 C.2    91  ILE91       0.2593
      4  O        -28.1720   39.8080  248.7020 O.2    91  ILE91      -0.2718
      5  CB       -29.0350   41.8600  246.5090 C.3    91  ILE91       0.0266
      6  CG1      -29.2500   42.3570  245.0800 C.3    91  ILE91       0.0019
      7  CG2      -28.6500   43.0200  247.4410 C.3    91  ILE91       0.0020
      8  CD1      -30.3800   43.3460  244.9320 C.3    91  ILE91       0.0001
      9  N        -26.4140   41.1580  248.3140 N.am   92  GLY92      -0.1942
     10  CA       -25.9130   41.1010  249.6690 C.3    92  GLY92       0.2014
     11  C        -24.9800   42.2570  249.9620 C.2    92  GLY92       0.2639
     12  O        -24.2500   42.7220  249.0870 O.2    92  GLY92      -0.2714
     13  N        -25.0180   42.7290  251.2000 N.am   93  PHE93      -0.1959
     14  CA       -24.1010   43.7570  251.6560 C.3    93  PHE93       0.1771
     15  C        -23.9970   43.7470  253.1670 C.2    93  PHE93       0.2619
     16  O        -24.9750   43.5040  253.8680 O.2    93  PHE93      -0.2715
     17  CB       -24.5380   45.1540  251.2240 C.3    93  PHE93       0.0574
     18  CG       -23.6080   46.2340  251.7020 C.ar   93  PHE93      -0.0200
     19  CD1      -22.2440   46.1440  251.4710 C.ar   93  PHE93      -0.0042
     20  CD2      -24.0800   47.2830  252.4700 C.ar   93  PHE93      -0.0042
     21  CE1      -21.3810   47.1170  251.9320 C.ar   93  PHE93      -0.0003
     22  CE2      -23.2180   48.2570  252.9390 C.ar   93  PHE93      -0.0003
     23  CZ       -21.8660   48.1700  252.6730 C.ar   93  PHE93      -0.0000
     24  N        -22.7990   44.0120  253.6610 N.am   94  ALA94      -0.1977
     25  CA       -22.6120   44.3200  255.0630 C.3    94  ALA94       0.1597
     26  C        -21.3480   45.1480  255.1920 C.2    94  ALA94       0.2287
     27  O        -20.3960   44.9320  254.4410 O.2    94  ALA94      -0.2864
     28  CB       -22.5200   43.0590  255.8880 C.3    94  ALA94       0.0319
     29  N        -18.1720   41.6570  258.9340 N.3    99  ILE99      -0.1245
     30  CA       -17.8990   40.3440  258.3550 C.3    99  ILE99       0.1561
     31  C        -16.3990   40.0980  258.4390 C.2    99  ILE99       0.2260
     32  O        -15.7850   39.5510  257.5230 O.2    99  ILE99      -0.2867
     33  CB       -18.3880   40.2300  256.8900 C.3    99  ILE99       0.0252
     34  CG1      -17.8050   41.3590  256.0310 C.3    99  ILE99       0.0019
     35  CG2      -19.9120   40.2300  256.8480 C.3    99  ILE99       0.0019
     36  CD1      -18.2690   41.3520  254.5790 C.3    99  ILE99       0.0001
     37  N        -28.4590   32.2180  249.4520 N.3   144  SER144     -0.1202
     38  CA       -28.0440   32.2170  250.8490 C.3   144  SER144      0.2020
     39  C        -26.7430   31.4480  250.9890 C.2   144  SER144      0.2618
     40  O        -26.1810   30.9850  250.0000 O.2   144  SER144     -0.2717
     41  CB       -29.1220   31.6050  251.7420 C.3   144  SER144      0.2103
     42  OG       -28.7600   31.6990  253.1080 O.3   144  SER144     -0.2182
     43  N        -26.2700   31.3230  252.2220 N.am  145  TYR145     -0.1975
     44  CA       -25.0360   30.6070  252.5110 C.3   145  TYR145      0.1639
     45  C        -25.2090   29.7870  253.7770 C.2   145  TYR145      0.2290
     46  O        -26.0140   30.1260  254.6410 O.2   145  TYR145     -0.2864
     47  CB       -23.8540   31.5740  252.6520 C.3   145  TYR145      0.0560
     48  CG       -22.5340   30.8790  252.9170 C.ar  145  TYR145     -0.0198
     49  CD1      -22.0790   29.8720  252.0750 C.ar  145  TYR145     -0.0009
     50  CD2      -21.7420   31.2320  254.0020 C.ar  145  TYR145     -0.0009
     51  CE1      -20.8800   29.2290  252.3110 C.ar  145  TYR145      0.0417
     52  CE2      -20.5380   30.5960  254.2450 C.ar  145  TYR145      0.0417
     53  CZ       -20.1140   29.5930  253.3950 C.ar  145  TYR145      0.1957
     54  OH       -18.9180   28.9540  253.6260 O.3   145  TYR145     -0.2866
     55  N        -18.1900   35.2200  258.9740 N.3   155  TYR155     -0.1241
     56  CA       -19.4430   35.4870  258.2990 C.3   155  TYR155      0.1605
     57  C        -20.2920   36.3690  259.1990 C.2   155  TYR155      0.2264
     58  O        -20.9550   37.2970  258.7350 O.2   155  TYR155     -0.2867
     59  CB       -20.1630   34.1860  257.9490 C.3   155  TYR155      0.0534
     60  CG       -21.1240   34.3500  256.8060 C.ar  155  TYR155     -0.0201
     61  CD1      -20.6890   34.8450  255.5880 C.ar  155  TYR155     -0.0009
     62  CD2      -22.4600   34.0100  256.9420 C.ar  155  TYR155     -0.0009
     63  CE1      -21.5520   35.0080  254.5410 C.ar  155  TYR155      0.0417
     64  CE2      -23.3390   34.1640  255.8940 C.ar  155  TYR155      0.0417
     65  CZ       -22.8760   34.6650  254.6950 C.ar  155  TYR155      0.1957
     66  OH       -23.7300   34.8280  253.6370 O.3   155  TYR155     -0.2866
     67  N        -23.5670   38.6640  258.8680 N.3   158  MET158     -0.1245
     68  CA       -24.1660   38.2880  257.6060 C.3   158  MET158      0.1570
     69  C        -24.9210   36.9700  257.7650 C.2   158  MET158      0.2261
     70  O        -25.8430   36.6810  257.0100 O.2   158  MET158     -0.2867
     71  CB       -23.1000   38.1740  256.5220 C.3   158  MET158      0.0387
     72  CG       -23.6660   38.1590  255.1240 C.3   158  MET158      0.0595
     73  SD       -24.4910   39.7050  254.7080 S.3   158  MET158     -0.1393
     74  CE       -24.8870   39.3620  253.0030 C.3   158  MET158      0.0692
     75  N        -28.7980   36.3060  256.7220 N.3   162  LYS162     -0.1245
     76  CA       -29.0930   35.1560  255.8840 C.3   162  LYS162      0.1561
     77  C        -30.0800   34.2100  256.5490 C.2   162  LYS162      0.2260
     78  O        -30.8180   33.5020  255.8710 O.2   162  LYS162     -0.2867
     79  CB       -27.8100   34.4170  255.5400 C.3   162  LYS162      0.0271
     80  CG       -26.9460   35.1470  254.5490 C.3   162  LYS162      0.0035
     81  CD       -27.6080   35.3380  253.1980 C.3   162  LYS162      0.0206
     82  CE       -26.6110   35.8810  252.1890 C.3   162  LYS162      0.1093
     83  NZ       -27.2450   36.4130  250.9520 N.3   162  LYS162     -0.1314
     84  N        -18.8260   28.2300  248.5360 N.3   190  PRO190     -0.2102
     85  CA       -17.9400   29.3710  248.2860 C.3   190  PRO190      0.1504
     86  C        -17.5490   29.5410  246.8250 C.2   190  PRO190      0.2575
     87  O        -17.0980   28.5950  246.1830 O.2   190  PRO190     -0.2718
     88  CB       -16.7030   29.0550  249.1380 C.3   190  PRO190      0.0282
     89  CG       -17.1160   27.9800  250.0740 C.3   190  PRO190      0.0208
     90  CD       -18.1830   27.2110  249.3790 C.3   190  PRO190      0.0893
     91  N        -17.7400   30.7530  246.3160 N.am  191  ILE191     -0.1980
     92  CA       -17.3230   31.1140  244.9700 C.3   191  ILE191      0.1595
     93  C        -16.5400   32.4130  245.0170 C.2   191  ILE191      0.2287
     94  O        -16.9350   33.3560  245.6960 O.2   191  ILE191     -0.2864
     95  CB       -18.5180   31.2690  244.0320 C.3   191  ILE191      0.0276
     96  CG1      -19.2650   29.9400  243.9260 C.3   191  ILE191      0.0022
     97  CG2      -18.0590   31.7330  242.6520 C.3   191  ILE191      0.0022
     98  CD1      -20.5910   30.0440  243.2260 C.3   191  ILE191      0.0001
     99  N        -15.9570   35.6820  244.1010 N.3   193  THR193     -0.1218
    100  CA       -16.6080   36.8030  243.4360 C.3   193  THR193      0.1862
    101  C        -16.1720   38.1020  244.1010 C.2   193  THR193      0.2287
    102  O        -15.4470   38.0780  245.0910 O.2   193  THR193     -0.2866
    103  CB       -18.1380   36.6930  243.4930 C.3   193  THR193      0.1770
    104  OG1      -18.5650   36.7840  244.8520 O.3   193  THR193     -0.2211
    105  CG2      -18.6000   35.3650  242.9140 C.3   193  THR193      0.0375
    106  N        -17.9080   40.1300  245.8820 N.3   195  ALA195     -0.1231
    107  CA       -18.4090   40.1450  247.2500 C.3   195  ALA195      0.1694
    108  C        -17.5520   39.2800  248.1690 C.2   195  ALA195      0.2591
    109  O        -17.3670   39.6020  249.3400 O.2   195  ALA195     -0.2718
    110  CB       -19.8520   39.6750  247.2870 C.3   195  ALA195      0.0304
    111  N        -17.0200   38.1910  247.6230 N.am  196  ALA196     -0.1980
    112  CA       -16.2400   37.2340  248.4010 C.3   196  ALA196      0.1597
    113  C        -14.9960   37.8620  249.0190 C.2   196  ALA196      0.2287
    114  O        -14.5470   37.4490  250.0870 O.2   196  ALA196     -0.2864
    115  CB       -15.8510   36.0440  247.5290 C.3   196  ALA196      0.0319
    116  N        -14.7830   39.0000  252.7050 N.3   199  ILE199     -0.1245
    117  CA       -14.7200   37.9920  253.7630 C.3   199  ILE199      0.1561
    118  C        -13.3120   37.5390  254.1370 C.2   199  ILE199      0.2260
    119  O        -12.5810   36.9790  253.3160 O.2   199  ILE199     -0.2867
    120  CB       -15.5190   36.7470  253.3920 C.3   199  ILE199      0.0252
    121  CG1      -17.0010   37.0900  253.3220 C.3   199  ILE199      0.0019
    122  CG2      -15.2950   35.6680  254.4310 C.3   199  ILE199      0.0019
    123  CD1      -17.5600   37.5750  254.6370 C.3   199  ILE199      0.0001
    124  N        -11.4090   34.0650  253.1460 N.3   202  PHE202     -0.1241
    125  CA       -12.2650   33.3900  252.1760 C.3   202  PHE202      0.1605
    126  C        -11.5090   32.2130  251.5950 C.2   202  PHE202      0.2264
    127  O        -12.0900   31.1760  251.2890 O.2   202  PHE202     -0.2867
    128  CB       -12.7150   34.3240  251.0540 C.3   202  PHE202      0.0534
    129  CG       -13.3950   33.6060  249.9250 C.ar  202  PHE202     -0.0203
    130  CD1      -14.6940   33.1550  250.0470 C.ar  202  PHE202     -0.0042
    131  CD2      -12.7200   33.3700  248.7400 C.ar  202  PHE202     -0.0042
    132  CE1      -15.3070   32.4840  249.0020 C.ar  202  PHE202     -0.0003
    133  CE2      -13.3290   32.7040  247.6960 C.ar  202  PHE202     -0.0003
    134  CZ       -14.6250   32.2610  247.8290 C.ar  202  PHE202     -0.0000
    135  N        -11.7380   29.0400  253.5290 N.3   205  ILE205     -0.1245
    136  CA       -13.0220   28.3840  253.3640 C.3   205  ILE205      0.1561
    137  C        -13.0480   27.6020  252.0490 C.2   205  ILE205      0.2260
    138  O        -13.5480   26.4820  252.0040 O.2   205  ILE205     -0.2867
    139  CB       -14.1660   29.4080  253.4210 C.3   205  ILE205      0.0252
    140  CG1      -14.0730   30.2030  254.7310 C.3   205  ILE205      0.0019
    141  CG2      -15.5130   28.7110  253.2550 C.3   205  ILE205      0.0019
    142  CD1      -15.1810   31.1970  254.9510 C.3   205  ILE205      0.0001
@<TRIPOS>BOND
     1    97    95    1
     2   105   103    1
     3    98    96    1
     4   100   103    1
     5   100    99    1
     6   100   101    1
     7   103   104    1
     8    96    95    1
     9    95    92    1
    10   101   102    2
    11     8     6    1
    12    92    93    1
    13    92    91    1
    14    93    94    2
    15     6     5    1
    16     1     2    1
    17   106   107    1
    18    87    86    2
    19    91    86   am
    20     5     2    1
    21     5     7    1
    22     2     3    1
    23    86    85    1
    24   107   110    1
    25   107   108    1
    26   115   112    1
    27   111   108   am
    28   111   112    1
    29   133   134   ar
    30   133   131   ar
    31   134   132   ar
    32     3     9   am
    33     3     4    2
    34   108   109    2
    35    85    84    1
    36    85    88    1
    37     9    10    1
    38   112   113    1
    39    84    90    1
    40   131   129   ar
    41   132   130   ar
    42   113   114    2
    43    12    11    2
    44    88    89    1
    45    90    89    1
    46    37    38    1
    47    10    11    1
    48   129   130   ar
    49   129   128    1
    50    11    13   am
    51    40    39    2
    52    38    39    1
    53    38    41    1
    54    83    82    1
    55    39    43   am
    56   128   125    1
    57    13    14    1
    58    17    14    1
    59    17    18    1
    60   127   126    2
    61    19    18   ar
    62    19    21   ar
    63   126   125    1
    64    14    15    1
    65    18    20   ar
    66    41    42    1
    67    21    23   ar
    68   138   137    2
    69   137   136    1
    70    49    51   ar
    71    49    48   ar
    72   125   124    1
    73    82    81    1
    74    43    44    1
    75    51    53   ar
    76    20    22   ar
    77    44    47    1
    78    44    45    1
    79    47    48    1
    80    23    22   ar
    81   116   117    1
    82    48    50   ar
    83    74    73    1
    84    15    24   am
    85    15    16    2
    86    81    80    1
    87   141   139    1
    88   119   118    2
    89   121   120    1
    90   121   123    1
    91   136   139    1
    92   136   135    1
    93   120   117    1
    94   120   122    1
    95    53    54    1
    96    53    52   ar
    97   139   140    1
    98    66    65    1
    99    24    25    1
   100   117   118    1
   101    45    46    2
   102    50    52   ar
   103    27    26    2
   104    63    65   ar
   105    63    61   ar
   106    80    79    1
   107    36    34    1
   108    65    64   ar
   109    73    72    1
   110   140   142    1
   111    25    26    1
   112    25    28    1
   113    72    71    1
   114    79    76    1
   115    61    60   ar
   116    78    77    2
   117    76    77    1
   118    76    75    1
   119    64    62   ar
   120    34    33    1
   121    71    68    1
   122    60    62   ar
   123    60    59    1
   124    35    33    1
   125    33    30    1
   126    70    69    2
   127    32    31    2
   128    68    69    1
   129    68    67    1
   130    59    56    1
   131    56    55    1
   132    56    57    1
   133    30    31    1
   134    30    29    1
   135    58    57    2
