@<TRIPOS>MOLECULE
tmp/5i7hC00.pdb
 121 115 0 0 0
SMALL
GASTEIGER

@<TRIPOS>ATOM
      1  N        -23.4100   -5.6680  -16.9980 N.3    45  LYS45      -0.1245
      2  CA       -24.3310   -5.9380  -15.9140 C.3    45  LYS45       0.1561
      3  C        -23.7480   -5.6450  -14.5540 C.2    45  LYS45       0.2260
      4  O        -24.5010   -5.5970  -13.6000 O.2    45  LYS45      -0.2867
      5  CB       -24.8190   -7.3850  -15.9380 C.3    45  LYS45       0.0271
      6  CG       -25.4790   -7.8020  -17.2420 C.3    45  LYS45       0.0035
      7  CD       -26.6370   -6.8610  -17.5490 C.3    45  LYS45       0.0206
      8  CE       -27.6630   -7.4780  -18.4970 C.3    45  LYS45       0.1093
      9  NZ       -27.1180   -7.8210  -19.7860 N.3    45  LYS45      -0.1314
     10  N        -31.6370  -15.1460  -15.3760 N.3    72  THR72      -0.1203
     11  CA       -30.5530  -14.5720  -16.1550 C.3    72  THR72       0.1994
     12  C        -30.2060  -15.4670  -17.3430 C.2    72  THR72       0.2618
     13  O        -30.5360  -16.6560  -17.3730 O.2    72  THR72      -0.2717
     14  CB       -29.2960  -14.3520  -15.2930 C.3    72  THR72       0.1784
     15  OG1      -28.3260  -13.6410  -16.0590 O.3    72  THR72      -0.2211
     16  CG2      -28.6780  -15.6900  -14.8330 C.3    72  THR72       0.0376
     17  N        -29.5680  -14.8600  -18.3300 N.am   73  SER73      -0.1951
     18  CA       -28.9870  -15.5830  -19.4470 C.3    73  SER73       0.1924
     19  C        -27.4930  -15.7400  -19.2120 C.2    73  SER73       0.2314
     20  O        -26.8160  -16.4360  -19.9760 O.2    73  SER73      -0.2863
     21  CB       -29.2580  -14.8470  -20.7660 C.3    73  SER73       0.2116
     22  OG       -28.6460  -13.5780  -20.7720 O.3    73  SER73      -0.2180
     23  N        -24.8490  -13.0670  -17.5960 N.3    75  ASN75      -0.1225
     24  CA       -24.0520  -11.9780  -17.0940 C.3    75  ASN75       0.1785
     25  C        -24.5410  -11.3700  -15.8160 C.2    75  ASN75       0.2597
     26  O        -23.7520  -11.0260  -14.9440 O.2    75  ASN75      -0.2718
     27  CB       -23.9330  -10.9210  -18.1870 C.3    75  ASN75       0.1169
     28  CG       -23.0220  -11.3790  -19.2880 C.2    75  ASN75       0.2627
     29  OD1      -22.3400  -12.3820  -19.1150 O.2    75  ASN75      -0.2716
     30  ND2      -23.0140  -10.6850  -20.4150 N.am   75  ASN75      -0.0877
     31  N        -25.8510  -11.2290  -15.7200 N.am   76  THR76      -0.1953
     32  CA       -26.4640  -10.6720  -14.5330 C.3    76  THR76       0.1897
     33  C        -26.2900  -11.6000  -13.3430 C.2    76  THR76       0.2313
     34  O        -25.9950  -11.1440  -12.2410 O.2    76  THR76      -0.2863
     35  CB       -27.9490  -10.3320  -14.7800 C.3    76  THR76       0.1794
     36  OG1      -28.0170   -9.2970  -15.7670 O.3    76  THR76      -0.2208
     37  CG2      -28.6070   -9.8610  -13.5040 C.3    76  THR76       0.0378
     38  N        -34.6480   -7.9690  -13.0560 N.3   145  GLN145     -0.1231
     39  CA       -33.8880   -7.0320  -13.8840 C.3   145  GLN145      0.1698
     40  C        -34.6310   -6.4030  -15.0630 C.2   145  GLN145      0.2592
     41  O        -34.2100   -5.3930  -15.5960 O.2   145  GLN145     -0.2718
     42  CB       -32.5950   -7.6890  -14.3790 C.3   145  GLN145      0.0381
     43  CG       -32.7430   -8.8390  -15.3660 C.3   145  GLN145      0.0905
     44  CD       -31.3870   -9.3950  -15.7390 C.2   145  GLN145      0.2608
     45  OE1      -30.4230   -8.6440  -15.8040 O.2   145  GLN145     -0.2717
     46  NE2      -31.2990  -10.6990  -15.9640 N.am  145  GLN145     -0.0878
     47  N        -35.7300   -7.0120  -15.4640 N.am  146  TYR146     -0.1976
     48  CA       -36.5280   -6.5140  -16.5860 C.3   146  TYR146      0.1639
     49  C        -37.4040   -5.2940  -16.2340 C.2   146  TYR146      0.2290
     50  O        -37.6020   -4.4200  -17.0790 O.2   146  TYR146     -0.2864
     51  CB       -37.3700   -7.6690  -17.1760 C.3   146  TYR146      0.0560
     52  CG       -36.5040   -8.7110  -17.8720 C.ar  146  TYR146     -0.0198
     53  CD1      -36.1520   -8.5570  -19.2100 C.ar  146  TYR146     -0.0009
     54  CD2      -36.0180   -9.8300  -17.1830 C.ar  146  TYR146     -0.0009
     55  CE1      -35.3500   -9.4810  -19.8460 C.ar  146  TYR146      0.0417
     56  CE2      -35.2080  -10.7650  -17.8110 C.ar  146  TYR146      0.0417
     57  CZ       -34.8770  -10.5880  -19.1450 C.ar  146  TYR146      0.1957
     58  OH       -34.0660  -11.4950  -19.7970 O.3   146  TYR146     -0.2866
     59  N        -27.0560   -2.9800  -27.5350 N.3   176  GLY176     -0.1210
     60  CA       -27.9760   -4.0790  -27.5810 C.3   176  GLY176      0.1956
     61  C        -29.1620   -3.7520  -26.7140 C.2   176  GLY176      0.2612
     62  O        -29.0790   -2.9260  -25.8130 O.2   176  GLY176     -0.2717
     63  N        -30.2570   -4.4370  -26.9950 N.am  177  LEU177     -0.1965
     64  CA       -31.5170   -4.2350  -26.3330 C.3   177  LEU177      0.1728
     65  C        -31.9430   -5.5440  -25.7020 C.2   177  LEU177      0.2617
     66  O        -32.3410   -6.4710  -26.4090 O.2   177  LEU177     -0.2715
     67  CB       -32.5390   -3.8200  -27.3760 C.3   177  LEU177      0.0311
     68  CG       -33.8490   -3.2920  -26.8240 C.3   177  LEU177      0.0022
     69  CD1      -33.6820   -1.8340  -26.4330 C.3   177  LEU177      0.0001
     70  CD2      -34.9360   -3.4510  -27.8720 C.3   177  LEU177      0.0001
     71  N        -31.8660   -5.6100  -24.3740 N.am  178  GLY178     -0.1940
     72  CA       -32.1700   -6.8420  -23.6220 C.3   178  GLY178      0.2014
     73  C        -33.1840   -6.6250  -22.5120 C.2   178  GLY178      0.2639
     74  O        -34.3790   -6.8680  -22.7100 O.2   178  GLY178     -0.2714
     75  N        -32.7170   -6.1880  -21.3360 N.am  179  THR179     -0.1950
     76  CA       -33.6150   -5.7020  -20.2700 C.3   179  THR179      0.1897
     77  C        -34.1030   -4.3230  -20.6500 C.2   179  THR179      0.2313
     78  O        -35.1600   -3.8740  -20.1770 O.2   179  THR179     -0.2863
     79  CB       -32.9240   -5.5490  -18.8910 C.3   179  THR179      0.1794
     80  OG1      -31.7980   -4.6730  -19.0060 O.3   179  THR179     -0.2208
     81  CG2      -32.4820   -6.8660  -18.3380 C.3   179  THR179      0.0378
     82  N        -29.7950   -2.6500  -31.2300 N.3   202  ALA202     -0.1231
     83  CA       -29.6510   -3.9420  -31.8740 C.3   202  ALA202      0.1694
     84  C        -30.3880   -4.9760  -31.0310 C.2   202  ALA202      0.2592
     85  O        -30.3330   -4.9330  -29.8050 O.2   202  ALA202     -0.2718
     86  CB       -28.1800   -4.3100  -32.0040 C.3   202  ALA202      0.0304
     87  N        -31.1020   -5.8830  -31.6960 N.am  203  GLU203     -0.1966
     88  CA       -31.8080   -6.9810  -31.0210 C.3   203  GLU203      0.1718
     89  C        -31.7310   -8.2090  -31.9060 C.2   203  GLU203      0.2458
     90  O        -31.4700   -8.0800  -33.0990 O.2   203  GLU203     -0.2730
     91  CB       -33.2610   -6.6030  -30.7030 C.3   203  GLU203      0.0428
     92  CG       -34.2230   -6.6370  -31.8790 C.3   203  GLU203      0.1163
     93  CD       -35.5240   -5.9280  -31.5640 C.2   203  GLU203      0.3649
     94  OE1      -36.2420   -6.3400  -30.6270 O.co2 203  GLU203     -0.2457
     95  OE2      -35.8330   -4.9330  -32.2480 O.co2 203  GLU203     -0.2457
     96  N        -31.9270   -9.4080  -31.3200 N.am  204  PRO204     -0.2727
     97  CA       -31.7330  -10.6370  -32.1040 C.3   204  PRO204      0.1402
     98  C        -32.7930  -10.8570  -33.2000 C.2   204  PRO204      0.2269
     99  O        -33.7730  -10.0990  -33.2810 O.2   204  PRO204     -0.2865
    100  CB       -31.7800  -11.7520  -31.0460 C.3   204  PRO204      0.0296
    101  CG       -32.4240  -11.1670  -29.8400 C.3   204  PRO204      0.0237
    102  CD       -32.2970   -9.6770  -29.9150 C.3   204  PRO204      0.0939
    103  N        -20.5380  -11.5890  -28.3580 N.3   242  ILE242     -0.1231
    104  CA       -21.3330  -11.6920  -29.5700 C.3   242  ILE242      0.1692
    105  C        -22.3190  -10.5300  -29.7280 C.2   242  ILE242      0.2592
    106  O        -22.5120  -10.0020  -30.8480 O.2   242  ILE242     -0.2718
    107  CB       -22.1500  -12.9790  -29.5850 C.3   242  ILE242      0.0266
    108  CG1      -21.2430  -14.1820  -29.3480 C.3   242  ILE242      0.0019
    109  CG2      -22.8670  -13.0960  -30.9140 C.3   242  ILE242      0.0020
    110  CD1      -20.3790  -14.5510  -30.5380 C.3   242  ILE242      0.0001
    111  N        -22.9550  -10.1470  -28.6140 N.am  243  SER243     -0.1952
    112  CA       -23.9150   -9.0490  -28.6370 C.3   243  SER243      0.1924
    113  C        -23.2280   -7.8630  -29.2620 C.2   243  SER243      0.2314
    114  O        -23.8110   -7.1750  -30.0620 O.2   243  SER243     -0.2863
    115  CB       -24.4410   -8.7120  -27.2300 C.3   243  SER243      0.2116
    116  OG       -23.6250   -7.7680  -26.5350 O.3   243  SER243     -0.2180
    117  N        -23.4270   -7.9170  -33.0000 N.3   246  ALA246     -0.1245
    118  CA       -24.7420   -7.4070  -33.3600 C.3   246  ALA246      0.1562
    119  C        -24.7750   -5.8760  -33.2950 C.2   246  ALA246      0.2260
    120  O        -25.3080   -5.2090  -34.1920 O.2   246  ALA246     -0.2867
    121  CB       -25.7970   -7.9990  -32.4450 C.3   246  ALA246      0.0290
@<TRIPOS>BOND
     1   120   119    2
     2   118   119    1
     3   118   117    1
     4   118   121    1
     5    99    98    2
     6    98    97    1
     7    90    89    2
     8    95    93   ar
     9    97    96    1
    10    97   100    1
    11    86    83    1
    12    89    96   am
    13    89    88    1
    14    92    93    1
    15    92    91    1
    16    83    82    1
    17    83    84    1
    18    87    84   am
    19    87    88    1
    20    93    94   ar
    21    96   102    1
    22   100   101    1
    23    84    85    2
    24    88    91    1
    25   109   107    1
    26   106   105    2
    27   110   108    1
    28   114   113    2
    29   102   101    1
    30   105   104    1
    31   105   111   am
    32   107   104    1
    33   107   108    1
    34   104   103    1
    35   113   112    1
    36   112   111    1
    37   112   115    1
    38    70    68    1
    39    60    59    1
    40    60    61    1
    41    67    68    1
    42    67    64    1
    43   115   116    1
    44    63    61   am
    45    63    64    1
    46    68    69    1
    47    61    62    2
    48    66    65    2
    49    64    65    1
    50    65    71   am
    51    71    72    1
    52    72    73    1
    53    74    73    2
    54    73    75   am
    55    75    76    1
    56    22    21    1
    57    21    18    1
    58    77    76    1
    59    77    78    2
    60    30    28   am
    61    76    79    1
    62    20    19    2
    63    55    53   ar
    64    55    57   ar
    65    58    57    1
    66     9     8    1
    67    18    19    1
    68    18    17    1
    69    28    29    2
    70    28    27    1
    71    53    52   ar
    72    57    56   ar
    73    80    79    1
    74    79    81    1
    75     8     7    1
    76    17    12   am
    77    27    24    1
    78    52    54   ar
    79    52    51    1
    80    56    54   ar
    81    23    24    1
    82     7     6    1
    83    13    12    2
    84    12    11    1
    85     6     5    1
    86    51    48    1
    87    24    25    1
    88    50    49    2
    89     1     2    1
    90    48    49    1
    91    48    47    1
    92    11    10    1
    93    11    14    1
    94    15    14    1
    95    46    44   am
    96     5     2    1
    97     2     3    1
    98    25    31   am
    99    25    26    2
   100    45    44    2
   101    36    35    1
   102    44    43    1
   103    31    32    1
   104    41    40    2
   105    47    40   am
   106    43    42    1
   107    14    16    1
   108    40    39    1
   109    35    32    1
   110    35    37    1
   111     3     4    2
   112    32    33    1
   113    42    39    1
   114    39    38    1
   115    33    34    2
