@<TRIPOS>MOLECULE
tmp/5i7iB00.pdb
 147 143 0 0 0
SMALL
GASTEIGER

@<TRIPOS>ATOM
      1  N         21.2720   -1.1690    4.7960 N.3    11  PHE11      -0.1241
      2  CA        21.6350   -0.9350    3.4070 C.3    11  PHE11       0.1605
      3  C         22.6950    0.1390    3.1540 C.2    11  PHE11       0.2264
      4  O         23.4470   -0.0120    2.1860 O.2    11  PHE11      -0.2867
      5  CB        20.3930   -0.6680    2.5350 C.3    11  PHE11       0.0534
      6  CG        19.6540    0.5960    2.8880 C.ar   11  PHE11      -0.0203
      7  CD1       20.0420    1.8250    2.3710 C.ar   11  PHE11      -0.0042
      8  CD2       18.5630    0.5540    3.7340 C.ar   11  PHE11      -0.0042
      9  CE1       19.3850    2.9880    2.7350 C.ar   11  PHE11      -0.0003
     10  CE2       17.8970    1.7270    4.0970 C.ar   11  PHE11      -0.0003
     11  CZ        18.3210    2.9420    3.5850 C.ar   11  PHE11      -0.0000
     12  N         18.0920   -1.3170   10.5420 N.3    68  TRP68      -0.1241
     13  CA        17.7550    0.0930   10.3800 C.3    68  TRP68       0.1605
     14  C         17.3220    0.2580    8.9330 C.2    68  TRP68       0.2264
     15  O         18.0240   -0.2090    8.0240 O.2    68  TRP68      -0.2867
     16  CB        18.9560    0.9950   10.6840 C.3    68  TRP68       0.0550
     17  CG        18.6560    2.4680   10.5470 C.ar   68  TRP68       0.0003
     18  CD1       18.2790    3.3000   11.5360 C.ar   68  TRP68       0.0946
     19  CD2       18.7610    3.2750    9.3590 C.ar   68  TRP68       0.0152
     20  NE1       18.1220    4.5800   11.0480 N.ar   68  TRP68      -0.2442
     21  CE2       18.4120    4.5910    9.7160 C.ar   68  TRP68       0.0810
     22  CE3       19.1060    3.0150    8.0410 C.ar   68  TRP68       0.0012
     23  CZ2       18.4140    5.6360    8.8120 C.ar   68  TRP68       0.0191
     24  CZ3       19.0990    4.0550    7.1330 C.ar   68  TRP68       0.0001
     25  CH2       18.7460    5.3510    7.5250 C.ar   68  TRP68       0.0015
     26  N         14.1190    2.3160    6.0800 N.3    70  VAL70      -0.1245
     27  CA        13.1110    3.3280    5.7890 C.3    70  VAL70       0.1561
     28  C         11.7710    2.6040    5.7240 C.2    70  VAL70       0.2260
     29  O         11.5910    1.6980    4.9030 O.2    70  VAL70      -0.2867
     30  CB        13.4240    4.0390    4.4580 C.3    70  VAL70       0.0252
     31  CG1       12.2930    4.9940    4.0240 C.3    70  VAL70       0.0019
     32  CG2       14.7540    4.8040    4.5460 C.3    70  VAL70       0.0019
     33  N          9.9850    2.0900    2.3150 N.3    73  TYR73      -0.1241
     34  CA        10.5240    1.2200    1.2700 C.3    73  TYR73       0.1605
     35  C          9.6320    0.0120    1.0140 C.2    73  TYR73       0.2264
     36  O          9.7470   -0.6090   -0.0480 O.2    73  TYR73      -0.2867
     37  CB        11.9390    0.7520    1.6050 C.3    73  TYR73       0.0534
     38  CG        13.0670    1.7580    1.4310 C.ar   73  TYR73      -0.0201
     39  CD1       12.8380    3.0530    0.9780 C.ar   73  TYR73      -0.0009
     40  CD2       14.3670    1.3860    1.6890 C.ar   73  TYR73      -0.0009
     41  CE1       13.8720    3.9440    0.8040 C.ar   73  TYR73       0.0417
     42  CE2       15.4140    2.2800    1.5330 C.ar   73  TYR73       0.0417
     43  CZ        15.1630    3.5440    1.0800 C.ar   73  TYR73       0.1957
     44  OH        16.2400    4.3890    0.9240 O.3    73  TYR73      -0.2866
     45  N         14.7520   11.8440    9.4600 N.3   123  HIS123     -0.1241
     46  CA        15.8030   12.7730    9.0770 C.3   123  HIS123      0.1621
     47  C         15.3390   14.2180    9.1740 C.2   123  HIS123      0.2264
     48  O         14.1460   14.5100    9.2850 O.2   123  HIS123     -0.2867
     49  CB        16.3670   12.4390    7.6850 C.3   123  HIS123      0.0745
     50  CG        15.3630   12.3830    6.5550 C.ar  123  HIS123      0.0817
     51  ND1       14.8070   13.5060    5.9760 N.ar  123  HIS123     -0.2268
     52  CD2       14.8930   11.3300    5.8330 C.ar  123  HIS123      0.1154
     53  CE1       14.0380   13.1480    4.9590 C.ar  123  HIS123      0.1986
     54  NE2       14.0780   11.8350    4.8470 N.ar  123  HIS123     -0.2212
     55  N         13.1080   11.5980   -8.0800 N.3   147  ARG147     -0.1245
     56  CA        13.0020   10.4510   -7.2020 C.3   147  ARG147      0.1563
     57  C         12.5110   10.8530   -5.8280 C.2   147  ARG147      0.2260
     58  O         12.9220   11.8690   -5.2650 O.2   147  ARG147     -0.2867
     59  CB        14.3740    9.7980   -7.0430 C.3   147  ARG147      0.0307
     60  CG        14.4530    8.6810   -6.0060 C.3   147  ARG147      0.0489
     61  CD        14.8260    9.1890   -4.6230 C.3   147  ARG147      0.2205
     62  NE        14.8650    8.0500   -3.7150 N.pl3 147  ARG147     -0.0865
     63  CZ        15.0900    8.1110   -2.4060 C.cat 147  ARG147      0.5346
     64  NH1       15.2920    9.2620   -1.8040 N.pl3 147  ARG147      0.1354
     65  NH2       15.1380    7.0030   -1.6930 N.pl3 147  ARG147      0.1354
     66  N         11.5600    8.7090   -1.8940 N.3   149  PRO149     -0.2116
     67  CA        11.8570    7.4560   -1.1840 C.3   149  PRO149      0.1372
     68  C         10.6690    6.5460   -0.9770 C.2   149  PRO149      0.2244
     69  O         10.8850    5.3560   -0.6930 O.2   149  PRO149     -0.2868
     70  CB        12.3530    7.9430    0.1820 C.3   149  PRO149      0.0268
     71  CG        11.6570    9.2800    0.3530 C.3   149  PRO149      0.0207
     72  CD        11.6920    9.8750   -1.0080 C.3   149  PRO149      0.0892
     73  N         17.4340    4.5980   -1.8290 N.3   169  VAL169     -0.1245
     74  CA        18.5010    5.5680   -2.0880 C.3   169  VAL169      0.1561
     75  C         19.7310    4.9880   -2.7790 C.2   169  VAL169      0.2260
     76  O         20.3490    5.7060   -3.5730 O.2   169  VAL169     -0.2867
     77  CB        18.8460    6.4060   -0.8390 C.3   169  VAL169      0.0252
     78  CG1       19.5670    5.5960    0.2070 C.3   169  VAL169      0.0019
     79  CG2       19.6780    7.6160   -1.2100 C.3   169  VAL169      0.0019
     80  N         14.5310   14.0810   -4.0440 N.3   185  VAL185     -0.1231
     81  CA        14.5300   14.5930   -2.6840 C.3   185  VAL185      0.1692
     82  C         15.2720   13.6230   -1.7770 C.2   185  VAL185      0.2592
     83  O         15.1140   12.3980   -1.8700 O.2   185  VAL185     -0.2718
     84  CB        13.1140   14.8920   -2.1670 C.3   185  VAL185      0.0266
     85  CG1       12.5100   16.0530   -2.9430 C.3   185  VAL185      0.0020
     86  CG2       12.2230   13.6720   -2.2190 C.3   185  VAL185      0.0020
     87  N         16.1500   14.1890   -0.9510 N.am  186  VAL186     -0.1966
     88  CA        16.8480   13.5510    0.1710 C.3   186  VAL186      0.1712
     89  C         17.2720   14.6810    1.1040 C.2   186  VAL186      0.2458
     90  O         17.4680   15.8240    0.6460 O.2   186  VAL186     -0.2730
     91  CB        18.1050   12.7520   -0.2430 C.3   186  VAL186      0.0289
     92  CG1       17.7600   11.3610   -0.7300 C.3   186  VAL186      0.0023
     93  CG2       18.9450   13.4840   -1.2730 C.3   186  VAL186      0.0023
     94  N         17.4520   14.4260    2.3970 N.am  187  PRO187     -0.2727
     95  CA        18.2010   15.3680    3.2220 C.3   187  PRO187      0.1402
     96  C         19.6650   15.3600    2.7870 C.2   187  PRO187      0.2269
     97  O         20.1300   14.5080    2.0260 O.2   187  PRO187     -0.2865
     98  CB        18.0140   14.7880    4.6240 C.3   187  PRO187      0.0296
     99  CG        18.0200   13.3070    4.3750 C.3   187  PRO187      0.0237
    100  CD        17.2650   13.1350    3.0780 C.3   187  PRO187      0.0939
    101  N         22.2070   14.6100    4.5760 N.3   189  GLU189     -0.1231
    102  CA        23.1200   13.7340    5.3130 C.3   189  GLU189      0.1699
    103  C         23.4680   12.4690    4.5570 C.2   189  GLU189      0.2592
    104  O         24.5770   11.9500    4.7140 O.2   189  GLU189     -0.2718
    105  CB        22.5380   13.3720    6.6770 C.3   189  GLU189      0.0402
    106  CG        21.2910   12.4790    6.6340 C.3   189  GLU189      0.1161
    107  CD        21.5720   10.9770    6.7260 C.2   189  GLU189      0.3649
    108  OE1       20.6050   10.1910    6.5570 O.co2 189  GLU189     -0.2457
    109  OE2       22.7460   10.5780    6.9670 O.co2 189  GLU189     -0.2457
    110  N         22.5320   11.9420    3.7640 N.am  190  ILE190     -0.1980
    111  CA        22.7470   10.6910    3.0470 C.3   190  ILE190      0.1595
    112  C         23.5330   10.8820    1.7620 C.2   190  ILE190      0.2287
    113  O         23.9900    9.8910    1.1710 O.2   190  ILE190     -0.2864
    114  CB        21.3680   10.0240    2.8370 C.3   190  ILE190      0.0276
    115  CG1       21.4980    8.5400    2.4230 C.3   190  ILE190      0.0022
    116  CG2       20.5390   10.7860    1.7990 C.3   190  ILE190      0.0022
    117  CD1       22.2290    7.6650    3.4350 C.3   190  ILE190      0.0001
    118  N          9.4890   17.8160    3.8070 N.3   213  TYR213     -0.1241
    119  CA         8.9850   16.4950    4.1620 C.3   213  TYR213      0.1605
    120  C         10.0650   15.8100    4.9780 C.2   213  TYR213      0.2264
    121  O         11.2230   16.2270    4.9920 O.2   213  TYR213     -0.2867
    122  CB         8.6610   15.6370    2.9140 C.3   213  TYR213      0.0534
    123  CG         9.9280   15.0870    2.3490 C.ar  213  TYR213     -0.0201
    124  CD1       10.7860   15.8940    1.6350 C.ar  213  TYR213     -0.0009
    125  CD2       10.3260   13.7840    2.6170 C.ar  213  TYR213     -0.0009
    126  CE1       12.0070   15.4190    1.1850 C.ar  213  TYR213      0.0417
    127  CE2       11.5480   13.3020    2.1790 C.ar  213  TYR213      0.0417
    128  CZ        12.3820   14.1210    1.4650 C.ar  213  TYR213      0.1957
    129  OH        13.6240   13.7100    1.0240 O.3   213  TYR213     -0.2866
    130  N         10.8770   11.3440    6.0950 N.3   215  THR215     -0.1218
    131  CA        10.3770    9.9780    5.9940 C.3   215  THR215      0.1862
    132  C         10.8180    9.1790    7.2160 C.2   215  THR215      0.2287
    133  O         11.9830    9.2750    7.6410 O.2   215  THR215     -0.2866
    134  CB        10.7720    9.3020    4.6820 C.3   215  THR215      0.1770
    135  OG1        9.8800    8.2080    4.4350 O.3   215  THR215     -0.2211
    136  CG2       12.2010    8.8530    4.6830 C.3   215  THR215      0.0375
    137  N         12.2900    6.4800    9.6510 N.3   217  PHE217     -0.1241
    138  CA        13.1930    5.3500    9.7990 C.3   217  PHE217      0.1605
    139  C         12.6910    4.4050   10.8870 C.2   217  PHE217      0.2264
    140  O         12.1280    4.8270   11.8990 O.2   217  PHE217     -0.2867
    141  CB        14.5670    5.8390   10.2410 C.3   217  PHE217      0.0534
    142  CG        15.2260    6.8550    9.3170 C.ar  217  PHE217     -0.0203
    143  CD1       15.2800    6.6550    7.9440 C.ar  217  PHE217     -0.0042
    144  CD2       15.8280    7.9840    9.8490 C.ar  217  PHE217     -0.0042
    145  CE1       15.9300    7.5660    7.1190 C.ar  217  PHE217     -0.0003
    146  CE2       16.4930    8.8770    9.0220 C.ar  217  PHE217     -0.0003
    147  CZ        16.5470    8.6590    7.6650 C.ar  217  PHE217     -0.0000
@<TRIPOS>BOND
     1    55    56    1
     2    56    59    1
     3    56    57    1
     4    59    60    1
     5    60    61    1
     6    57    58    2
     7    61    62    1
     8    80    81    1
     9    62    63    2
    10    76    75    2
    11    85    84    1
    12    75    74    1
    13    81    84    1
    14    81    82    1
    15    63    64    1
    16    63    65    1
    17    86    84    1
    18    74    73    1
    19    74    77    1
    20    66    67    1
    21    66    72    1
    22    83    82    2
    23    82    87   am
    24    93    91    1
    25    79    77    1
    26    67    68    1
    27    67    70    1
    28    72    71    1
    29    68    69    2
    30    87    88    1
    31    77    78    1
    32    92    91    1
    33    91    88    1
    34    36    35    2
    35    88    89    1
    36    70    71    1
    37    90    89    2
    38    41    39   ar
    39    41    43   ar
    40    44    43    1
    41    39    38   ar
    42    35    34    1
    43   129   128    1
    44    43    42   ar
    45    89    94   am
    46   113   112    2
    47   126   128   ar
    48   126   124   ar
    49    34    37    1
    50    34    33    1
    51    38    37    1
    52    38    40   ar
    53   128   127   ar
    54    42    40   ar
    55   124   123   ar
    56   112   111    1
    57   116   114    1
    58    97    96    2
    59   127   125   ar
    60     4     3    2
    61   123   125   ar
    62   123   122    1
    63     7     9   ar
    64     7     6   ar
    65    94   100    1
    66    94    95    1
    67   115   114    1
    68   115   117    1
    69     5     6    1
    70     5     2    1
    71     9    11   ar
    72    96    95    1
    73   114   111    1
    74     6     8   ar
    75   122   119    1
    76   111   110    1
    77   100    99    1
    78     3     2    1
    79    95    98    1
    80     2     1    1
    81    11    10   ar
    82     8    10   ar
    83   110   103   am
    84   118   119    1
    85    31    30    1
    86   119   120    1
    87    99    98    1
    88   135   134    1
    89    30    32    1
    90    30    27    1
    91   103   104    2
    92   103   102    1
    93   101   102    1
    94   134   136    1
    95   134   131    1
    96    54    53   ar
    97    54    52   ar
    98    29    28    2
    99    53    51   ar
   100   120   121    2
   101   102   105    1
   102    28    27    1
   103    27    26    1
   104    52    50   ar
   105    51    50   ar
   106   131   130    1
   107   131   132    1
   108    50    49    1
   109   108   107   ar
   110   106   105    1
   111   106   107    1
   112   107   109   ar
   113   145   147   ar
   114   145   143   ar
   115    24    25   ar
   116    24    22   ar
   117   132   133    2
   118    25    23   ar
   119   147   146   ar
   120    49    46    1
   121   143   142   ar
   122    15    14    2
   123    22    19   ar
   124    23    21   ar
   125    14    13    1
   126   146   144   ar
   127    46    47    1
   128    46    45    1
   129    47    48    2
   130   142   144   ar
   131   142   141    1
   132    19    21   ar
   133    19    17   ar
   134   137   138    1
   135    21    20   ar
   136   138   141    1
   137   138   139    1
   138    13    12    1
   139    13    16    1
   140    17    16    1
   141    17    18   ar
   142   139   140    2
   143    20    18   ar
