@<TRIPOS>MOLECULE
tmp/5i7sA01.pdb
 137 130 0 0 0
SMALL
GASTEIGER

@<TRIPOS>ATOM
      1  N         25.1020   -6.8580  -20.0080 N.3    92  GLY92      -0.1210
      2  CA        26.5190   -7.1830  -19.9720 C.3    92  GLY92       0.1956
      3  C         26.8420   -8.1680  -21.0770 C.2    92  GLY92       0.2612
      4  O         25.9910   -8.9880  -21.4410 O.2    92  GLY92      -0.2717
      5  N         28.0500   -8.0650  -21.6270 N.am   93  PHE93      -0.1962
      6  CA        28.5350   -9.0160  -22.6120 C.3    93  PHE93       0.1771
      7  C         30.0610   -9.0450  -22.6680 C.2    93  PHE93       0.2619
      8  O         30.7150   -8.0010  -22.6080 O.2    93  PHE93      -0.2715
      9  CB        27.9890   -8.6900  -24.0070 C.3    93  PHE93       0.0574
     10  CG        28.4690   -9.6370  -25.0700 C.ar   93  PHE93      -0.0200
     11  CD1       27.8410  -10.8630  -25.2570 C.ar   93  PHE93      -0.0042
     12  CD2       29.5560   -9.3170  -25.8710 C.ar   93  PHE93      -0.0042
     13  CE1       28.2850  -11.7480  -26.2260 C.ar   93  PHE93      -0.0003
     14  CE2       30.0100  -10.1950  -26.8380 C.ar   93  PHE93      -0.0003
     15  CZ        29.3730  -11.4110  -27.0200 C.ar   93  PHE93      -0.0000
     16  N         30.6130  -10.2470  -22.8000 N.am   94  ALA94      -0.1977
     17  CA        32.0150  -10.4260  -23.1650 C.3    94  ALA94       0.1597
     18  C         32.1210  -11.6760  -24.0140 C.2    94  ALA94       0.2287
     19  O         31.3670  -12.6290  -23.7980 O.2    94  ALA94      -0.2864
     20  CB        32.8870  -10.5580  -21.9280 C.3    94  ALA94       0.0319
     21  N         35.9840  -14.7570  -20.5770 N.3    99  ILE99      -0.1245
     22  CA        35.4130  -15.1210  -19.2780 C.3    99  ILE99       0.1561
     23  C         35.5850  -16.6190  -18.9940 C.2    99  ILE99       0.2260
     24  O         34.7170  -17.2700  -18.3990 O.2    99  ILE99      -0.2867
     25  CB        33.9280  -14.7240  -19.1680 C.3    99  ILE99       0.0252
     26  CG1       33.1670  -15.1410  -20.4300 C.3    99  ILE99       0.0019
     27  CG2       33.7870  -13.2140  -18.9580 C.3    99  ILE99       0.0019
     28  CD1       31.6650  -14.8260  -20.3930 C.3    99  ILE99       0.0001
     29  N         28.9850   -6.6240  -10.2950 N.3   145  TYR145     -0.1241
     30  CA        29.3350   -7.8590   -9.6140 C.3   145  TYR145      0.1605
     31  C         30.6370   -7.6890   -8.8350 C.2   145  TYR145      0.2264
     32  O         31.4860   -6.8780   -9.2080 O.2   145  TYR145     -0.2867
     33  CB        29.4290   -9.0150  -10.6240 C.3   145  TYR145      0.0534
     34  CG        29.7920  -10.3180   -9.9570 C.ar  145  TYR145     -0.0201
     35  CD1       28.9840  -10.8430   -8.9550 C.ar  145  TYR145     -0.0009
     36  CD2       30.9480  -11.0060  -10.3080 C.ar  145  TYR145     -0.0009
     37  CE1       29.3170  -12.0120   -8.3150 C.ar  145  TYR145      0.0417
     38  CE2       31.2880  -12.1810   -9.6820 C.ar  145  TYR145      0.0417
     39  CZ        30.4660  -12.6800   -8.6850 C.ar  145  TYR145      0.1957
     40  OH        30.7910  -13.8460   -8.0390 O.3   145  TYR145     -0.2866
     41  N         36.0910  -14.7920  -14.0880 N.3   155  TYR155     -0.1241
     42  CA        35.3560  -13.5710  -14.4030 C.3   155  TYR155      0.1605
     43  C         36.2140  -12.6460  -15.2610 C.2   155  TYR155      0.2264
     44  O         35.6980  -11.9450  -16.1420 O.2   155  TYR155     -0.2867
     45  CB        34.8780  -12.8620  -13.1310 C.3   155  TYR155      0.0534
     46  CG        33.7230  -11.9030  -13.3610 C.ar  155  TYR155     -0.0201
     47  CD1       32.5030  -12.3590  -13.8450 C.ar  155  TYR155     -0.0009
     48  CD2       33.8520  -10.5580  -13.0680 C.ar  155  TYR155     -0.0009
     49  CE1       31.4430  -11.4920  -14.0490 C.ar  155  TYR155      0.0417
     50  CE2       32.8090   -9.6840  -13.2620 C.ar  155  TYR155      0.0417
     51  CZ        31.6050  -10.1550  -13.7520 C.ar  155  TYR155      0.1957
     52  OH        30.5640   -9.2700  -13.9330 O.3   155  TYR155     -0.2866
     53  N         35.5880   -9.3490  -17.6210 N.3   158  MET158     -0.1245
     54  CA        34.3800   -8.7140  -17.0830 C.3   158  MET158      0.1570
     55  C         34.6450   -7.9840  -15.7660 C.2   158  MET158      0.2261
     56  O         33.9670   -7.0090  -15.4520 O.2   158  MET158     -0.2867
     57  CB        33.2360   -9.7230  -16.9300 C.3   158  MET158      0.0387
     58  CG        32.4910  -10.0080  -18.2190 C.3   158  MET158      0.0595
     59  SD        31.7270   -8.5400  -18.9340 S.3   158  MET158     -0.1393
     60  CE        30.5630   -8.0930  -17.6600 C.3   158  MET158      0.0692
     61  N         33.3700   -4.2520  -15.1660 N.3   162  LYS162     -0.1245
     62  CA        32.5300   -3.8780  -14.0290 C.3   162  LYS162      0.1561
     63  C         33.1740   -2.8010  -13.1490 C.2   162  LYS162      0.2260
     64  O         32.4720   -1.9630  -12.5980 O.2   162  LYS162     -0.2867
     65  CB        32.1540   -5.0930  -13.1780 C.3   162  LYS162      0.0271
     66  CG        31.2120   -6.1120  -13.8610 C.3   162  LYS162      0.0035
     67  CD        29.8700   -5.5000  -14.3150 C.3   162  LYS162      0.0206
     68  CE        28.8740   -6.5990  -14.6960 C.3   162  LYS162      0.1093
     69  NZ        27.5570   -6.0320  -15.1860 N.3   162  LYS162     -0.1314
     70  N         25.0310   -7.6070   -7.4450 N.3   188  ALA188     -0.1231
     71  CA        24.2450   -8.7950   -7.1540 C.3   188  ALA188      0.1694
     72  C         25.0980  -10.0330   -6.9350 C.2   188  ALA188      0.2593
     73  O         26.1340  -10.2220   -7.5820 O.2   188  ALA188     -0.2718
     74  CB        23.2540   -9.0540   -8.2850 C.3   188  ALA188      0.0304
     75  N         24.6370  -10.8920   -6.0330 N.am  189  GLY189     -0.1943
     76  CA        25.2010  -12.2210   -5.8930 C.3   189  GLY189      0.1998
     77  C         24.9050  -13.0750   -7.1180 C.2   189  GLY189      0.2481
     78  O         24.1030  -12.6940   -7.9790 O.2   189  GLY189     -0.2729
     79  N         25.5390  -14.2500   -7.1990 N.am  190  PRO190     -0.2715
     80  CA        25.3380  -15.1020   -8.3730 C.3   190  PRO190      0.1536
     81  C         23.9080  -15.6380   -8.4770 C.2   190  PRO190      0.2598
     82  O         23.3280  -16.1160   -7.4940 O.2   190  PRO190     -0.2715
     83  CB        26.3430  -16.2370   -8.1580 C.3   190  PRO190      0.0310
     84  CG        26.5580  -16.2760   -6.6620 C.3   190  PRO190      0.0237
     85  CD        26.4800  -14.8380   -6.2320 C.3   190  PRO190      0.0939
     86  N         23.3520  -15.5360   -9.6810 N.am  191  ILE191     -0.1978
     87  CA        22.0200  -16.0400   -9.9990 C.3   191  ILE191      0.1596
     88  C         22.1170  -16.7470  -11.3390 C.2   191  ILE191      0.2287
     89  O         22.7070  -16.2080  -12.2720 O.2   191  ILE191     -0.2864
     90  CB        21.0150  -14.8840  -10.1350 C.3   191  ILE191      0.0276
     91  CG1       20.9130  -14.1030   -8.8190 C.3   191  ILE191      0.0022
     92  CG2       19.6330  -15.4040  -10.5490 C.3   191  ILE191      0.0022
     93  CD1       20.1100  -12.8010   -8.9130 C.3   191  ILE191      0.0001
     94  N         21.4300  -17.2860  -14.7230 N.3   193  THR193     -0.1218
     95  CA        20.7810  -16.6150  -15.8440 C.3   193  THR193      0.1862
     96  C         21.4950  -17.0610  -17.1060 C.2   193  THR193      0.2287
     97  O         22.5070  -17.7630  -17.0260 O.2   193  THR193     -0.2866
     98  CB        20.9300  -15.0930  -15.7430 C.3   193  THR193      0.1770
     99  OG1       22.3270  -14.7670  -15.6900 O.3   193  THR193     -0.2211
    100  CG2       20.2500  -14.5490  -14.4870 C.3   193  THR193      0.0375
    101  N         23.2350  -15.1780  -19.2420 N.3   195  ALA195     -0.1231
    102  CA        24.5530  -14.5550  -19.2250 C.3   195  ALA195      0.1694
    103  C         25.5040  -15.2560  -18.2590 C.2   195  ALA195      0.2591
    104  O         26.6810  -15.4360  -18.5660 O.2   195  ALA195     -0.2718
    105  CB        24.4440  -13.0670  -18.8820 C.3   195  ALA195      0.0304
    106  N         24.9950  -15.6430  -17.0920 N.am  196  ALA196     -0.1980
    107  CA        25.8350  -16.2720  -16.0700 C.3   196  ALA196      0.1597
    108  C         26.4530  -17.5650  -16.5650 C.2   196  ALA196      0.2287
    109  O         27.5800  -17.9130  -16.1930 O.2   196  ALA196     -0.2864
    110  CB        25.0370  -16.5170  -14.7940 C.3   196  ALA196      0.0319
    111  N         30.0340  -17.8270  -18.0150 N.3   199  ILE199     -0.1245
    112  CA        31.2260  -17.8180  -17.1720 C.3   199  ILE199      0.1561
    113  C         31.6270  -19.2460  -16.8620 C.2   199  ILE199      0.2260
    114  O         30.8170  -20.0330  -16.3570 O.2   199  ILE199     -0.2867
    115  CB        31.0070  -17.0570  -15.8480 C.3   199  ILE199      0.0252
    116  CG1       30.5090  -15.6360  -16.1120 C.3   199  ILE199      0.0019
    117  CG2       32.3140  -17.0150  -15.0380 C.3   199  ILE199      0.0019
    118  CD1       29.8840  -14.9680  -14.8930 C.3   199  ILE199      0.0001
    119  N         30.7280  -21.2580  -13.4110 N.3   202  PHE202     -0.1241
    120  CA        29.7300  -20.4930  -12.6670 C.3   202  PHE202      0.1605
    121  C         29.0810  -21.3330  -11.5580 C.2   202  PHE202      0.2264
    122  O         28.8250  -20.8280  -10.4600 O.2   202  PHE202     -0.2867
    123  CB        28.6480  -19.9320  -13.6020 C.3   202  PHE202      0.0534
    124  CG        27.4990  -19.2880  -12.8670 C.ar  202  PHE202     -0.0203
    125  CD1       27.6440  -18.0240  -12.3020 C.ar  202  PHE202     -0.0042
    126  CD2       26.2990  -19.9580  -12.7050 C.ar  202  PHE202     -0.0042
    127  CE1       26.6030  -17.4410  -11.6140 C.ar  202  PHE202     -0.0003
    128  CE2       25.2540  -19.3810  -12.0150 C.ar  202  PHE202     -0.0003
    129  CZ        25.4040  -18.1240  -11.4680 C.ar  202  PHE202     -0.0000
    130  N         30.8400  -21.1060   -8.3190 N.3   205  ILE205     -0.1245
    131  CA        30.6430  -19.8280   -7.6370 C.3   205  ILE205      0.1561
    132  C         29.3100  -19.8680   -6.8990 C.2   205  ILE205      0.2260
    133  O         29.2290  -19.5290   -5.7160 O.2   205  ILE205     -0.2867
    134  CB        30.6620  -18.6340   -8.6170 C.3   205  ILE205      0.0252
    135  CG1       32.0010  -18.5590   -9.3530 C.3   205  ILE205      0.0019
    136  CG2       30.3800  -17.3160   -7.8760 C.3   205  ILE205      0.0019
    137  CD1       32.0560  -17.5170  -10.4550 C.3   205  ILE205      0.0001
@<TRIPOS>BOND
     1    15    14   ar
     2    15    13   ar
     3    14    12   ar
     4    13    11   ar
     5    12    10   ar
     6    11    10   ar
     7    10     9    1
     8    18    19    2
     9    18    17    1
    10     9     6    1
    11    17    16    1
    12    17    20    1
    13    16     7   am
    14     7     6    1
    15     7     8    2
    16     6     5    1
    17     5     3   am
    18     4     3    2
    19     3     2    1
    20    21    22    1
    21    26    28    1
    22    26    25    1
    23     1     2    1
    24    22    25    1
    25    22    23    1
    26   101   102    1
    27   102   105    1
    28   102   103    1
    29    25    27    1
    30    23    24    2
    31    59    58    1
    32    59    60    1
    33   104   103    2
    34   103   106   am
    35    58    57    1
    36   111   112    1
    37    53    54    1
    38   112   113    1
    39   112   115    1
    40    96    97    2
    41    96    95    1
    42   106   107    1
    43    54    57    1
    44    54    55    1
    45   113   114    2
    46   108   109    2
    47   108   107    1
    48    44    43    2
    49   116   115    1
    50   116   118    1
    51   107   110    1
    52   115   117    1
    53    95    98    1
    54    95    94    1
    55    55    56    2
    56    98    99    1
    57    98   100    1
    58    43    42    1
    59    69    68    1
    60    61    62    1
    61    68    67    1
    62    42    41    1
    63    42    45    1
    64    67    66    1
    65    49    47   ar
    66    49    51   ar
    67    62    65    1
    68    62    63    1
    69    52    51    1
    70    66    65    1
    71    47    46   ar
    72    51    50   ar
    73   123   124    1
    74   123   120    1
    75   119   120    1
    76    46    45    1
    77    46    48   ar
    78    50    48   ar
    79    63    64    2
    80   124   126   ar
    81   124   125   ar
    82   126   128   ar
    83   120   121    1
    84   125   127   ar
    85    89    88    2
    86   128   129   ar
    87   127   129   ar
    88   121   122    2
    89    88    87    1
    90    33    34    1
    91    33    30    1
    92    92    90    1
    93   137   135    1
    94    36    34   ar
    95    36    38   ar
    96    29    30    1
    97    90    87    1
    98    90    91    1
    99    87    86    1
   100    34    35   ar
   101    38    39   ar
   102    86    81   am
   103    30    31    1
   104   135   134    1
   105    32    31    2
   106    35    37   ar
   107    93    91    1
   108    39    37   ar
   109    39    40    1
   110   134   136    1
   111   134   131    1
   112    81    80    1
   113    81    82    2
   114    80    83    1
   115    80    79    1
   116   130   131    1
   117    74    71    1
   118    83    84    1
   119    78    77    2
   120   131   132    1
   121    73    72    2
   122    70    71    1
   123    79    77   am
   124    79    85    1
   125    71    72    1
   126    77    76    1
   127    72    75   am
   128   132   133    2
   129    84    85    1
   130    75    76    1
