@<TRIPOS>MOLECULE
tmp/5i7uA07.pdb
 199 195 0 0 0
SMALL
GASTEIGER

@<TRIPOS>ATOM
      1  N         37.7080   61.8550   36.7940 N.3    87  ARG87      -0.1245
      2  CA        38.6050   61.4580   37.8830 C.3    87  ARG87       0.1563
      3  C         39.7960   62.4090   38.1040 C.2    87  ARG87       0.2260
      4  O         40.1410   62.6860   39.2500 O.2    87  ARG87      -0.2867
      5  CB        39.1090   60.0180   37.7120 C.3    87  ARG87       0.0307
      6  CG        39.8270   59.4740   38.9570 C.3    87  ARG87       0.0489
      7  CD        40.4570   58.1070   38.6940 C.3    87  ARG87       0.2205
      8  NE        39.4610   57.1010   38.3160 N.pl3  87  ARG87      -0.0865
      9  CZ        38.9300   56.2180   39.1550 C.cat  87  ARG87       0.5346
     10  NH1       39.2380   56.2490   40.4430 N.pl3  87  ARG87       0.1354
     11  NH2       38.0810   55.3020   38.7120 N.pl3  87  ARG87       0.1354
     12  N         40.7970   58.2570   31.8350 N.3   167  GLU167     -0.1231
     13  CA        40.4440   57.2130   32.7840 C.3   167  GLU167      0.1699
     14  C         41.2790   55.9370   32.6750 C.2   167  GLU167      0.2592
     15  O         41.6330   55.3500   33.7030 O.2   167  GLU167     -0.2718
     16  CB        38.9420   56.8710   32.6250 C.3   167  GLU167      0.0402
     17  CG        38.3830   55.8160   33.6000 C.3   167  GLU167      0.1161
     18  CD        38.5450   56.0790   35.0860 C.2   167  GLU167      0.3649
     19  OE1       38.7180   57.2540   35.4850 O.co2 167  GLU167     -0.2457
     20  OE2       38.4550   55.1010   35.8620 O.co2 167  GLU167     -0.2457
     21  N         41.5250   55.4860   31.4420 N.am  168  GLU168     -0.1979
     22  CA        42.1050   54.1780   31.1380 C.3   168  GLU168      0.1602
     23  C         43.5110   54.1170   30.5510 C.2   168  GLU168      0.2287
     24  O         44.0480   53.0130   30.4820 O.2   168  GLU168     -0.2864
     25  CB        41.1360   53.3980   30.2130 C.3   168  GLU168      0.0415
     26  CG        39.6950   53.3260   30.7190 C.3   168  GLU168      0.1163
     27  CD        39.4890   52.4970   31.9790 C.2   168  GLU168      0.3649
     28  OE1       40.4830   52.1510   32.6520 O.co2 168  GLU168     -0.2457
     29  OE2       38.3220   52.2010   32.3000 O.co2 168  GLU168     -0.2457
     30  N         45.8250   58.0010   33.1080 N.3   171  SER171     -0.1217
     31  CA        45.4470   58.2930   34.5160 C.3   171  SER171      0.1889
     32  C         45.7090   59.7850   34.7720 C.2   171  SER171      0.2288
     33  O         46.2670   60.1690   35.8020 O.2   171  SER171     -0.2866
     34  CB        46.2210   57.4170   35.5050 C.3   171  SER171      0.2089
     35  OG        46.1280   56.0520   35.1400 O.3   171  SER171     -0.2183
     36  N         48.3440   47.1800   33.2560 N.3   319  PHE319     -0.1241
     37  CA        47.1950   47.9050   32.7040 C.3   319  PHE319      0.1605
     38  C         47.5780   48.5520   31.3700 C.2   319  PHE319      0.2264
     39  O         46.7000   48.9720   30.6220 O.2   319  PHE319     -0.2867
     40  CB        46.6900   48.9660   33.6890 C.3   319  PHE319      0.0534
     41  CG        46.0440   48.3480   34.9040 C.ar  319  PHE319     -0.0203
     42  CD1       44.7100   47.9590   34.8780 C.ar  319  PHE319     -0.0042
     43  CD2       46.7840   48.1210   36.0680 C.ar  319  PHE319     -0.0042
     44  CE1       44.1160   47.3870   36.0010 C.ar  319  PHE319     -0.0003
     45  CE2       46.1940   47.5280   37.1790 C.ar  319  PHE319     -0.0003
     46  CZ        44.8610   47.1730   37.1400 C.ar  319  PHE319     -0.0000
     47  N         34.4690   40.8660   51.0530 N.3   507  ASP507     -0.1225
     48  CA        34.7120   42.2020   50.4630 C.3   507  ASP507      0.1805
     49  C         35.5010   41.9260   49.1880 C.2   507  ASP507      0.2598
     50  O         36.6330   41.4370   49.2470 O.2   507  ASP507     -0.2718
     51  CB        35.4730   43.0650   51.4840 C.3   507  ASP507      0.1424
     52  CG        35.9190   44.4440   51.0190 C.2   507  ASP507      0.3668
     53  OD1       35.7730   44.7430   49.8180 O.co2 507  ASP507     -0.2456
     54  OD2       36.3970   45.2210   51.8660 O.co2 507  ASP507     -0.2456
     55  N         34.8800   42.2220   48.0160 N.am  508  VAL508     -0.1966
     56  CA        35.4130   41.8670   46.6920 C.3   508  VAL508      0.1727
     57  C         35.8260   43.0080   45.7620 C.2   508  VAL508      0.2616
     58  O         35.0980   43.9910   45.6460 O.2   508  VAL508     -0.2715
     59  CB        34.3570   41.0020   45.9370 C.3   508  VAL508      0.0290
     60  CG1       34.9750   40.2470   44.7560 C.3   508  VAL508      0.0023
     61  CG2       33.6470   40.0440   46.8820 C.3   508  VAL508      0.0023
     62  N         36.9290   42.7980   45.0090 N.am  509  TYR509     -0.1974
     63  CA        37.3800   43.6360   43.8890 C.3   509  TYR509      0.1639
     64  C         37.4380   42.5420   42.7890 C.2   509  TYR509      0.2290
     65  O         36.4590   42.3740   42.0620 O.2   509  TYR509     -0.2864
     66  CB        38.7330   44.3540   44.1430 C.3   509  TYR509      0.0560
     67  CG        39.2940   45.1380   42.9580 C.ar  509  TYR509     -0.0198
     68  CD1       38.7490   45.0050   41.6760 C.ar  509  TYR509     -0.0009
     69  CD2       40.4120   45.9600   43.1080 C.ar  509  TYR509     -0.0009
     70  CE1       39.2860   45.6980   40.5840 C.ar  509  TYR509      0.0417
     71  CE2       40.9730   46.6310   42.0200 C.ar  509  TYR509      0.0417
     72  CZ        40.4080   46.4950   40.7580 C.ar  509  TYR509      0.1957
     73  OH        40.9620   47.1510   39.6790 O.3   509  TYR509     -0.2866
     74  N         43.5710   42.3840   46.9250 N.3   516  LYS516     -0.1245
     75  CA        42.7830   42.7170   48.1140 C.3   516  LYS516      0.1561
     76  C         43.3200   42.1050   49.4230 C.2   516  LYS516      0.2260
     77  O         42.8060   42.4060   50.5000 O.2   516  LYS516     -0.2867
     78  CB        41.3040   42.3480   47.8800 C.3   516  LYS516      0.0271
     79  CG        40.5860   43.3760   47.0170 C.3   516  LYS516      0.0035
     80  CD        40.1950   44.6300   47.8180 C.3   516  LYS516      0.0206
     81  CE        38.7490   44.5500   48.2470 C.3   516  LYS516      0.1093
     82  NZ        38.3610   45.7270   49.0620 N.3   516  LYS516     -0.1314
     83  N         32.1760   47.0790   44.8740 N.3   591  TRP591     -0.1227
     84  CA        31.9490   48.2920   44.0980 C.3   591  TRP591      0.1737
     85  C         32.6290   48.0810   42.7460 C.2   591  TRP591      0.2596
     86  O         33.6720   47.3970   42.6790 O.2   591  TRP591     -0.2718
     87  CB        32.6170   49.4780   44.8490 C.3   591  TRP591      0.0564
     88  CG        32.0330   50.8410   44.6150 C.ar  591  TRP591      0.0003
     89  CD1       32.0270   51.5380   43.4390 C.ar  591  TRP591      0.0946
     90  CD2       31.5860   51.7600   45.6280 C.ar  591  TRP591      0.0152
     91  NE1       31.5360   52.8080   43.6420 N.ar  591  TRP591     -0.2442
     92  CE2       31.2730   52.9800   44.9790 C.ar  591  TRP591      0.0810
     93  CE3       31.4060   51.6650   47.0260 C.ar  591  TRP591      0.0012
     94  CZ2       30.7660   54.0920   45.6680 C.ar  591  TRP591      0.0191
     95  CZ3       30.9320   52.7810   47.7220 C.ar  591  TRP591      0.0001
     96  CH2       30.5960   53.9720   47.0400 C.ar  591  TRP591      0.0015
     97  N         32.0530   48.6650   41.6600 N.am  592  SER592     -0.1938
     98  CA        32.6420   48.6070   40.2950 C.3   592  SER592      0.2055
     99  C         32.8200   47.1440   39.8420 C.2   592  SER592      0.2643
    100  O         31.8270   46.4320   39.7830 O.2   592  SER592     -0.2714
    101  CB        33.9790   49.3540   40.2460 C.3   592  SER592      0.2130
    102  OG        33.9760   50.5280   41.0480 O.3   592  SER592     -0.2179
    103  N         34.0640   46.6940   39.5420 N.am  593  TYR593     -0.1959
    104  CA        34.3380   45.2920   39.1750 C.3   593  TYR593      0.1771
    105  C         33.8720   44.3660   40.3420 C.2   593  TYR593      0.2620
    106  O         33.3310   43.2930   40.0930 O.2   593  TYR593     -0.2715
    107  CB        35.8430   45.0430   38.8530 C.3   593  TYR593      0.0574
    108  CG        36.0370   43.7920   38.0090 C.ar  593  TYR593     -0.0198
    109  CD1       35.9390   42.5180   38.5740 C.ar  593  TYR593     -0.0009
    110  CD2       36.2710   43.8810   36.6380 C.ar  593  TYR593     -0.0009
    111  CE1       36.0580   41.3620   37.7880 C.ar  593  TYR593      0.0417
    112  CE2       36.4020   42.7350   35.8480 C.ar  593  TYR593      0.0417
    113  CZ        36.2810   41.4790   36.4280 C.ar  593  TYR593      0.1957
    114  OH        36.4520   40.3600   35.6670 O.3   593  TYR593     -0.2866
    115  N         34.0460   44.8210   41.5790 N.am  594  GLY594     -0.1954
    116  CA        33.5720   44.1160   42.7730 C.3   594  GLY594      0.1869
    117  C         32.0540   43.9780   42.7970 C.2   594  GLY594      0.2309
    118  O         31.5360   42.9580   43.2470 O.2   594  GLY594     -0.2863
    119  N         29.2760   46.7660   36.9270 N.3   618  VAL618     -0.1245
    120  CA        29.2100   46.4810   35.4970 C.3   618  VAL618      0.1561
    121  C         28.1880   45.3060   35.4390 C.2   618  VAL618      0.2260
    122  O         28.1960   44.4590   36.3360 O.2   618  VAL618     -0.2867
    123  CB        30.5970   46.0710   34.9460 C.3   618  VAL618      0.0252
    124  CG1       30.4870   45.2130   33.6760 C.3   618  VAL618      0.0019
    125  CG2       31.4500   47.3040   34.6880 C.3   618  VAL618      0.0019
    126  N         29.5250   43.4490   29.5510 N.3   621  TRP621     -0.1241
    127  CA        30.7720   44.0410   29.0340 C.3   621  TRP621      0.1605
    128  C         30.6200   45.0050   27.8510 C.2   621  TRP621      0.2264
    129  O         31.3700   45.9820   27.7720 O.2   621  TRP621     -0.2867
    130  CB        31.9300   43.0200   28.9090 C.3   621  TRP621      0.0550
    131  CG        32.3780   42.5300   30.2610 C.ar  621  TRP621      0.0003
    132  CD1       32.1410   41.3030   30.8100 C.ar  621  TRP621      0.0946
    133  CD2       33.0020   43.3200   31.2900 C.ar  621  TRP621      0.0152
    134  NE1       32.5870   41.2750   32.1150 N.ar  621  TRP621     -0.2442
    135  CE2       33.1040   42.5070   32.4400 C.ar  621  TRP621      0.0810
    136  CE3       33.4620   44.6580   31.3570 C.ar  621  TRP621      0.0012
    137  CZ2       33.6790   42.9680   33.6360 C.ar  621  TRP621      0.0191
    138  CZ3       34.0240   45.1180   32.5410 C.ar  621  TRP621      0.0001
    139  CH2       34.1240   44.2810   33.6670 C.ar  621  TRP621      0.0015
    140  N         30.5450   48.6980   29.0020 N.3   624  TYR624     -0.1241
    141  CA        31.7440   49.3210   29.5730 C.3   624  TYR624      0.1605
    142  C         32.6920   49.8550   28.4980 C.2   624  TYR624      0.2264
    143  O         32.5210   49.5340   27.3030 O.2   624  TYR624     -0.2867
    144  CB        32.4120   48.4430   30.6710 C.3   624  TYR624      0.0534
    145  CG        33.2540   49.2720   31.6320 C.ar  624  TYR624     -0.0201
    146  CD1       32.6980   50.3430   32.3340 C.ar  624  TYR624     -0.0009
    147  CD2       34.6110   49.0080   31.8080 C.ar  624  TYR624     -0.0009
    148  CE1       33.4770   51.1480   33.1610 C.ar  624  TYR624      0.0417
    149  CE2       35.3980   49.7950   32.6560 C.ar  624  TYR624      0.0417
    150  CZ        34.8230   50.8620   33.3350 C.ar  624  TYR624      0.1957
    151  OH        35.5880   51.6550   34.1580 O.3   624  TYR624     -0.2866
    152  N         39.5210   49.5440   28.6910 N.3   628  TYR628     -0.1241
    153  CA        39.5920   48.5630   29.7690 C.3   628  TYR628      0.1605
    154  C         38.9840   47.2140   29.3210 C.2   628  TYR628      0.2264
    155  O         39.6540   46.1980   29.4230 O.2   628  TYR628     -0.2867
    156  CB        38.9030   49.1040   31.0390 C.3   628  TYR628      0.0534
    157  CG        38.9450   48.1790   32.2350 C.ar  628  TYR628     -0.0201
    158  CD1       37.9510   47.2170   32.4360 C.ar  628  TYR628     -0.0009
    159  CD2       39.9630   48.2810   33.1850 C.ar  628  TYR628     -0.0009
    160  CE1       37.9810   46.3680   33.5430 C.ar  628  TYR628      0.0417
    161  CE2       39.9910   47.4500   34.3070 C.ar  628  TYR628      0.0417
    162  CZ        38.9800   46.5150   34.4970 C.ar  628  TYR628      0.1957
    163  OH        38.9960   45.7000   35.6100 O.3   628  TYR628     -0.2866
    164  N         40.8710   45.0510   26.5490 N.3   631  ARG631     -0.1245
    165  CA        42.1930   44.6030   26.9940 C.3   631  ARG631      0.1563
    166  C         42.1010   43.1340   27.4470 C.2   631  ARG631      0.2260
    167  O         43.0040   42.3470   27.1730 O.2   631  ARG631     -0.2867
    168  CB        42.6790   45.4680   28.1740 C.3   631  ARG631      0.0307
    169  CG        44.0710   45.1180   28.6780 C.3   631  ARG631      0.0489
    170  CD        44.4500   45.9940   29.8650 C.3   631  ARG631      0.2205
    171  NE        44.3850   47.4200   29.5300 N.pl3 631  ARG631     -0.0865
    172  CZ        43.8340   48.3630   30.2850 C.cat 631  ARG631      0.5346
    173  NH1       43.2640   48.0490   31.4450 N.pl3 631  ARG631      0.1354
    174  NH2       43.8750   49.6330   29.9040 N.pl3 631  ARG631      0.1354
    175  N         31.1740   56.8010   34.4460 N.3   672  ASN672     -0.1225
    176  CA        32.1360   55.7110   34.2830 C.3   672  ASN672      0.1785
    177  C         31.4080   54.3870   34.0530 C.2   672  ASN672      0.2597
    178  O         31.4850   53.8250   32.9490 O.2   672  ASN672     -0.2718
    179  CB        33.0680   55.7000   35.5220 C.3   672  ASN672      0.1169
    180  CG        34.2660   54.8040   35.4070 C.2   672  ASN672      0.2627
    181  OD1       34.2600   53.7990   34.7000 O.2   672  ASN672     -0.2716
    182  ND2       35.3500   55.1720   36.0620 N.am  672  ASN672     -0.0877
    183  N         30.7020   53.8880   35.0910 N.am  673  VAL673     -0.1980
    184  CA        29.8570   52.7000   34.9260 C.3   673  VAL673      0.1595
    185  C         28.4570   53.3080   34.8190 C.2   673  VAL673      0.2287
    186  O         27.9160   53.7810   35.8130 O.2   673  VAL673     -0.2864
    187  CB        29.9790   51.6920   36.0890 C.3   673  VAL673      0.0276
    188  CG1       28.9990   50.5220   35.8730 C.3   673  VAL673      0.0022
    189  CG2       31.4160   51.1890   36.2040 C.3   673  VAL673      0.0022
    190  N         30.5760   57.8830   39.9580 N.3   702  HIS702     -0.1241
    191  CA        31.1150   56.5630   40.3230 C.3   702  HIS702      0.1621
    192  C         31.6170   56.4670   41.7710 C.2   702  HIS702      0.2264
    193  O         31.6190   55.3820   42.3580 O.2   702  HIS702     -0.2867
    194  CB        32.2000   56.1150   39.3070 C.3   702  HIS702      0.0745
    195  CG        32.4070   54.6340   39.3070 C.ar  702  HIS702      0.0817
    196  ND1       31.3460   53.7530   39.0950 N.ar  702  HIS702     -0.2268
    197  CD2       33.5310   53.9200   39.5430 C.ar  702  HIS702      0.1154
    198  CE1       31.8590   52.5360   39.2270 C.ar  702  HIS702      0.1986
    199  NE2       33.1720   52.5820   39.4830 N.ar  702  HIS702     -0.2212
@<TRIPOS>BOND
     1   164   165    1
     2   165   166    1
     3   165   168    1
     4   167   166    2
     5   143   142    2
     6   129   128    2
     7   128   127    1
     8   168   169    1
     9   142   141    1
    10   169   170    1
    11   152   153    1
    12   130   127    1
    13   130   131    1
    14   140   141    1
    15   127   126    1
    16   154   155    2
    17   154   153    1
    18   171   170    1
    19   171   172    2
    20   141   144    1
    21   153   156    1
    22   174   172    1
    23    25    26    1
    24    25    22    1
    25   131   132   ar
    26   131   133   ar
    27   172   173    1
    28    24    23    2
    29    23    22    1
    30    39    38    2
    31   144   145    1
    32    26    27    1
    33   132   134   ar
    34   156   157    1
    35    22    21    1
    36   133   136   ar
    37   133   135   ar
    38   136   138   ar
    39    38    37    1
    40    21    14   am
    41   145   147   ar
    42   145   146   ar
    43   147   149   ar
    44    12    13    1
    45    27    29   ar
    46    27    28   ar
    47   134   135   ar
    48   157   158   ar
    49   157   159   ar
    50   146   148   ar
    51   158   160   ar
    52   135   137   ar
    53   138   139   ar
    54    16    13    1
    55    16    17    1
    56   149   150   ar
    57    14    13    1
    58    14    15    2
    59    37    36    1
    60    37    40    1
    61   178   177    2
    62    30    31    1
    63   148   150   ar
    64   159   161   ar
    65   150   151    1
    66   160   162   ar
    67    17    18    1
    68   137   139   ar
    69   124   123    1
    70    40    41    1
    71   177   176    1
    72   177   183   am
    73   176   175    1
    74   176   179    1
    75   161   162   ar
    76   162   163    1
    77    31    32    1
    78    31    34    1
    79   125   123    1
    80   181   180    2
    81    32    33    2
    82   185   184    1
    83   185   186    2
    84    42    41   ar
    85    42    44   ar
    86    41    43   ar
    87   184   183    1
    88   184   187    1
    89   123   120    1
    90    18    19   ar
    91    18    20   ar
    92    35    34    1
    93   180   179    1
    94   180   182   am
    95   121   120    1
    96   121   122    2
    97   120   119    1
    98   114   113    1
    99   112   113   ar
   100   112   110   ar
   101   188   187    1
   102    44    46   ar
   103    43    45   ar
   104   187   189    1
   105   113   111   ar
   106   110   108   ar
   107     1     2    1
   108    46    45   ar
   109     5     2    1
   110     5     6    1
   111   111   109   ar
   112     2     3    1
   113   108   109   ar
   114   108   107    1
   115     3     4    2
   116     8     7    1
   117     8     9    2
   118     7     6    1
   119    11     9    1
   120   107   104    1
   121   196   198   ar
   122   196   195   ar
   123     9    10    1
   124   104   103    1
   125   104   105    1
   126   198   199   ar
   127   195   194    1
   128   195   197   ar
   129   194   191    1
   130   199   197   ar
   131   103    99   am
   132    73    72    1
   133   100    99    2
   134    99    98    1
   135   190   191    1
   136   106   105    2
   137   101    98    1
   138   101   102    1
   139    98    97    1
   140   191   192    1
   141   105   115   am
   142    70    72   ar
   143    70    68   ar
   144    72    71   ar
   145   115   116    1
   146    97    85   am
   147    68    67   ar
   148   192   193    2
   149    71    69   ar
   150    65    64    2
   151    86    85    2
   152    85    84    1
   153   116   117    1
   154    64    63    1
   155   117   118    2
   156    67    69   ar
   157    67    66    1
   158    89    91   ar
   159    89    88   ar
   160    91    92   ar
   161    63    66    1
   162    63    62    1
   163    84    87    1
   164    84    83    1
   165    88    87    1
   166    88    90   ar
   167    60    59    1
   168    92    90   ar
   169    92    94   ar
   170    62    57   am
   171    90    93   ar
   172    58    57    2
   173    94    96   ar
   174    57    56    1
   175    59    56    1
   176    59    61    1
   177    56    55    1
   178    74    75    1
   179    79    80    1
   180    79    78    1
   181    93    95   ar
   182    96    95   ar
   183    80    81    1
   184    78    75    1
   185    55    49   am
   186    75    76    1
   187    81    82    1
   188    49    50    2
   189    49    48    1
   190    76    77    2
   191    53    52   ar
   192    48    47    1
   193    48    51    1
   194    52    51    1
   195    52    54   ar
