@<TRIPOS>MOLECULE
tmp/5i7wA00.pdb
 86 82 0 0 0
SMALL
GASTEIGER

@<TRIPOS>ATOM
      1  N         17.6490   -7.1580  -12.8840 N.3    68  THR68      -0.1203
      2  CA        17.1010   -8.4460  -13.2890 C.3    68  THR68       0.1994
      3  C         18.0340   -9.5680  -12.8600 C.2    68  THR68       0.2618
      4  O         19.2570   -9.4410  -12.9560 O.2    68  THR68      -0.2717
      5  CB        16.8770   -8.5240  -14.8070 C.3    68  THR68       0.1784
      6  OG1       16.7750   -9.9090  -15.2090 O.3    68  THR68      -0.2211
      7  CG2       18.0180   -7.8590  -15.5670 C.3    68  THR68       0.0376
      8  N         17.4430  -10.6740  -12.4080 N.am   69  ALA69      -0.1965
      9  CA        18.2220  -11.8680  -12.1030 C.3    69  ALA69       0.1728
     10  C         18.7140  -12.5910  -13.3490 C.2    69  ALA69       0.2617
     11  O         19.4510  -13.5790  -13.2180 O.2    69  ALA69      -0.2715
     12  CB        17.3970  -12.8420  -11.2580 C.3    69  ALA69       0.0334
     13  N         18.3090  -12.1520  -14.5380 N.am   70  GLY70      -0.1940
     14  CA        18.8420  -12.7250  -15.7530 C.3    70  GLY70       0.2014
     15  C         17.8610  -12.8420  -16.8980 C.2    70  GLY70       0.2639
     16  O         18.1500  -12.3450  -17.9910 O.2    70  GLY70      -0.2714
     17  N         16.7170  -13.5070  -16.6830 N.am   71  ASN71      -0.1958
     18  CA        15.8230  -13.8090  -17.8050 C.3    71  ASN71       0.1819
     19  C         15.2660  -12.5370  -18.4290 C.2    71  ASN71       0.2621
     20  O         15.2190  -12.4070  -19.6570 O.2    71  ASN71      -0.2715
     21  CB        14.6840  -14.7220  -17.3460 C.3    71  ASN71       0.1195
     22  CG        15.1030  -16.1690  -17.2760 C.2    71  ASN71       0.2630
     23  OD1       16.0580  -16.5710  -17.9400 O.2    71  ASN71      -0.2716
     24  ND2       14.3900  -16.9640  -16.4770 N.am   71  ASN71      -0.0877
     25  N         14.8470  -11.5790  -17.6030 N.am   72  THR72      -0.1951
     26  CA        14.3360  -10.3360  -18.1680 C.3    72  THR72       0.1897
     27  C         15.4380   -9.5650  -18.8810 C.2    72  THR72       0.2313
     28  O         15.1980   -8.9470  -19.9270 O.2    72  THR72      -0.2863
     29  CB        13.7000   -9.4900  -17.0750 C.3    72  THR72       0.1794
     30  OG1       12.5220  -10.1480  -16.6240 O.3    72  THR72      -0.2208
     31  CG2       13.3190   -8.0980  -17.5940 C.3    72  THR72       0.0378
     32  N         23.9850  -17.5200  -17.1660 N.3    99  LYS99      -0.1245
     33  CA        23.1260  -16.3560  -17.3840 C.3    99  LYS99       0.1561
     34  C         23.9360  -15.0980  -17.6830 C.2    99  LYS99       0.2260
     35  O         23.5560  -14.3050  -18.5530 O.2    99  LYS99      -0.2867
     36  CB        22.2390  -16.1120  -16.1660 C.3    99  LYS99       0.0271
     37  CG        21.1260  -17.1110  -15.9790 C.3    99  LYS99       0.0035
     38  CD        19.9380  -16.8060  -16.8560 C.3    99  LYS99       0.0206
     39  CE        18.6880  -17.4290  -16.2580 C.3    99  LYS99       0.1093
     40  NZ        18.5130  -17.0410  -14.8280 N.3    99  LYS99      -0.1314
     41  N         19.3100   -5.0070   -5.9440 N.3   124  TYR124     -0.1241
     42  CA        19.5310   -4.7440   -7.3670 C.3   124  TYR124      0.1605
     43  C         18.3320   -4.0660   -8.0270 C.2   124  TYR124      0.2264
     44  O         18.5130   -3.2550   -8.9460 O.2   124  TYR124     -0.2867
     45  CB        19.8740   -6.0460   -8.1020 C.3   124  TYR124      0.0534
     46  CG        18.7370   -7.0450   -8.2530 C.ar  124  TYR124     -0.0201
     47  CD1       18.2610   -7.7730   -7.1640 C.ar  124  TYR124     -0.0009
     48  CD2       18.1790   -7.3020   -9.5030 C.ar  124  TYR124     -0.0009
     49  CE1       17.2360   -8.7180   -7.3170 C.ar  124  TYR124      0.0417
     50  CE2       17.1520   -8.2270   -9.6670 C.ar  124  TYR124      0.0417
     51  CZ        16.6870   -8.9390   -8.5760 C.ar  124  TYR124      0.1957
     52  OH        15.6670   -9.8590   -8.7540 O.3   124  TYR124     -0.2866
     53  N         10.3230   -4.1060  -14.2530 N.3   148  GLN148     -0.1231
     54  CA         9.4340   -5.2500  -14.4630 C.3   148  GLN148      0.1698
     55  C          8.5220   -5.5350  -13.2630 C.2   148  GLN148      0.2592
     56  O          7.3480   -5.8790  -13.4370 O.2   148  GLN148     -0.2718
     57  CB        10.2740   -6.4880  -14.7900 C.3   148  GLN148      0.0381
     58  CG        11.2690   -6.8720  -13.6770 C.3   148  GLN148      0.0905
     59  CD        12.0000   -8.1800  -13.9470 C.2   148  GLN148      0.2608
     60  OE1       11.3950   -9.1780  -14.3770 O.2   148  GLN148     -0.2717
     61  NE2       13.3110   -8.1830  -13.6960 N.am  148  GLN148     -0.0878
     62  N          9.0400   -5.4130  -12.0390 N.am  149  PHE149     -0.1976
     63  CA         8.2390   -5.8060  -10.8820 C.3   149  PHE149      0.1639
     64  C          7.0360   -4.8930  -10.6980 C.2   149  PHE149      0.2290
     65  O          5.9660   -5.3510  -10.2860 O.2   149  PHE149     -0.2864
     66  CB         9.1200   -5.8450   -9.6240 C.3   149  PHE149      0.0560
     67  CG        10.0610   -7.0260   -9.6040 C.ar  149  PHE149     -0.0200
     68  CD1        9.6370   -8.2580   -9.1190 C.ar  149  PHE149     -0.0042
     69  CD2       11.3450   -6.9180  -10.1110 C.ar  149  PHE149     -0.0042
     70  CE1       10.4850   -9.3540   -9.1210 C.ar  149  PHE149     -0.0003
     71  CE2       12.2020   -8.0040  -10.1140 C.ar  149  PHE149     -0.0003
     72  CZ        11.7700   -9.2340   -9.6160 C.ar  149  PHE149     -0.0000
     73  N          6.8620  -14.1560   -9.5310 N.3   182  GLY182     -0.1210
     74  CA         8.0230  -13.3090   -9.3520 C.3   182  GLY182      0.1956
     75  C          7.6260  -11.8430   -9.3340 C.2   182  GLY182      0.2612
     76  O          7.5160  -11.2400   -8.2660 O.2   182  GLY182     -0.2717
     77  N          7.4110  -11.2590  -10.5150 N.am  183  SER183     -0.1952
     78  CA         6.7870   -9.9470  -10.6010 C.3   183  SER183      0.1924
     79  C          5.2850  -10.0310  -10.3870 C.2   183  SER183      0.2314
     80  O          4.6700   -9.0540   -9.9420 O.2   183  SER183     -0.2863
     81  CB         7.0710   -9.3090  -11.9650 C.3   183  SER183      0.2116
     82  OG         6.5230  -10.0860  -13.0340 O.3   183  SER183     -0.2180
     83  N         13.9030  -17.3560   -9.8740 N.3   232  GLY232     -0.1225
     84  CA        12.9480  -16.6820  -10.7310 C.3   232  GLY232      0.1811
     85  C         11.6430  -16.3210  -10.0510 C.2   232  GLY232      0.2280
     86  O         10.8480  -15.5540  -10.6210 O.2   232  GLY232     -0.2866
@<TRIPOS>BOND
     1    28    27    2
     2    20    19    2
     3    27    26    1
     4    35    34    2
     5    19    18    1
     6    19    25   am
     7    26    25    1
     8    26    29    1
     9    16    15    2
    10    23    22    2
    11    18    21    1
    12    18    17    1
    13    34    33    1
    14    31    29    1
    15    33    32    1
    16    33    36    1
    17    21    22    1
    18    22    24   am
    19    29    30    1
    20    15    17   am
    21    15    14    1
    22    38    39    1
    23    38    37    1
    24    39    40    1
    25    36    37    1
    26    14    13    1
    27     7     5    1
    28     6     5    1
    29     5     2    1
    30    57    54    1
    31    57    58    1
    32    13    10   am
    33    54    53    1
    34    54    55    1
    35    60    59    2
    36    59    61   am
    37    59    58    1
    38    56    55    2
    39    10    11    2
    40    10     9    1
    41     2     1    1
    42     2     3    1
    43    55    62   am
    44    82    81    1
    45     4     3    2
    46     3     8   am
    47     8     9    1
    48     9    12    1
    49    62    63    1
    50    81    78    1
    51    63    64    1
    52    63    66    1
    53    84    85    1
    54    84    83    1
    55    64    65    2
    56    86    85    2
    57    78    77    1
    58    78    79    1
    59    77    75   am
    60    79    80    2
    61    71    69   ar
    62    71    72   ar
    63    69    67   ar
    64    50    48   ar
    65    50    51   ar
    66    66    67    1
    67    72    70   ar
    68    67    68   ar
    69    73    74    1
    70    48    46   ar
    71    74    75    1
    72    75    76    2
    73    70    68   ar
    74    44    43    2
    75    52    51    1
    76    51    49   ar
    77    46    45    1
    78    46    47   ar
    79    45    42    1
    80    43    42    1
    81    42    41    1
    82    49    47   ar
