@<TRIPOS>MOLECULE
tmp/5i7xA00.pdb
 130 131 0 0 0
SMALL
GASTEIGER

@<TRIPOS>ATOM
      1  N        -15.9600    8.5230    0.7990 N.3    21  HIS21      -0.1226
      2  CA       -14.9740    8.5970    1.8720 C.3    21  HIS21       0.1752
      3  C        -14.5290    7.2320    2.3640 C.2    21  HIS21       0.2597
      4  O        -13.5610    7.1540    3.1300 O.2    21  HIS21      -0.2718
      5  CB       -15.5210    9.3710    3.0690 C.3    21  HIS21       0.0759
      6  CG       -15.7290   10.8240    2.8000 C.ar   21  HIS21       0.0818
      7  ND1      -14.6910   11.7320    2.7580 N.ar   21  HIS21      -0.2268
      8  CD2      -16.8580   11.5310    2.5630 C.ar   21  HIS21       0.1154
      9  CE1      -15.1730   12.9370    2.5080 C.ar   21  HIS21       0.1986
     10  NE2      -16.4840   12.8390    2.3770 N.ar   21  HIS21      -0.2212
     11  N        -15.2200    6.1700    1.9700 N.am   22  GLY22      -0.1942
     12  CA       -14.8760    4.8510    2.4570 C.3    22  GLY22       0.2014
     13  C        -15.1680    4.6450    3.9260 C.2    22  GLY22       0.2639
     14  O        -14.5100    3.8170    4.5660 O.2    22  GLY22      -0.2714
     15  N        -16.1620    5.3500    4.4770 N.am   23  PHE23      -0.1959
     16  CA       -16.5110    5.1230    5.8760 C.3    23  PHE23       0.1771
     17  C        -16.9300    3.6790    6.1070 C.2    23  PHE23       0.2619
     18  O        -16.7590    3.1540    7.2140 O.2    23  PHE23      -0.2715
     19  CB       -17.6650    6.0310    6.3110 C.3    23  PHE23       0.0574
     20  CG       -17.3700    7.5060    6.2410 C.ar   23  PHE23      -0.0200
     21  CD1      -16.1720    8.0270    6.7140 C.ar   23  PHE23      -0.0042
     22  CD2      -18.3210    8.3830    5.7430 C.ar   23  PHE23      -0.0042
     23  CE1      -15.9270    9.3910    6.6620 C.ar   23  PHE23      -0.0003
     24  CE2      -18.0800    9.7500    5.6900 C.ar   23  PHE23      -0.0003
     25  CZ       -16.8820   10.2520    6.1520 C.ar   23  PHE23      -0.0000
     26  N        -17.5290    3.0520    5.0930 N.am   24  PHE24      -0.1974
     27  CA       -18.0270    1.6920    5.1880 C.3    24  PHE24       0.1639
     28  C        -17.0890    0.6760    4.5460 C.2    24  PHE24       0.2290
     29  O        -17.4600   -0.4940    4.4010 O.2    24  PHE24      -0.2864
     30  CB       -19.4280    1.6100    4.5810 C.3    24  PHE24       0.0560
     31  CG       -20.4510    2.4020    5.3330 C.ar   24  PHE24      -0.0200
     32  CD1      -21.0150    1.9000    6.4920 C.ar   24  PHE24      -0.0042
     33  CD2      -20.8290    3.6640    4.9040 C.ar   24  PHE24      -0.0042
     34  CE1      -21.9560    2.6350    7.1980 C.ar   24  PHE24      -0.0003
     35  CE2      -21.7680    4.3990    5.6040 C.ar   24  PHE24      -0.0003
     36  CZ       -22.3330    3.8840    6.7510 C.ar   24  PHE24      -0.0000
     37  N        -14.1670   -0.7190    5.5790 N.3    26  PHE26      -0.1228
     38  CA       -13.4360   -1.6500    6.4250 C.3    26  PHE26       0.1721
     39  C        -14.1460   -1.7460    7.7660 C.2    26  PHE26       0.2437
     40  O        -14.9100   -0.8480    8.1350 O.2    26  PHE26      -0.2733
     41  CB       -11.9950   -1.1630    6.6490 C.3    26  PHE26       0.0547
     42  CG       -11.2230   -0.9670    5.3760 C.ar   26  PHE26      -0.0202
     43  CD1      -10.7650   -2.0560    4.6450 C.ar   26  PHE26      -0.0042
     44  CD2      -10.9420    0.3100    4.9120 C.ar   26  PHE26      -0.0042
     45  CE1      -10.0590   -1.8710    3.4770 C.ar   26  PHE26      -0.0003
     46  CE2      -10.2380    0.4980    3.7400 C.ar   26  PHE26      -0.0003
     47  CZ        -9.7900   -0.5870    3.0290 C.ar   26  PHE26      -0.0000
     48  N        -13.9140   -2.8180    8.5240 N.am   27  PRO27      -0.2718
     49  CA       -14.5380   -2.9210    9.8500 C.3    27  PRO27       0.1535
     50  C        -14.2320   -1.6960   10.7010 C.2    27  PRO27       0.2598
     51  O        -13.1150   -1.1780   10.6960 O.2    27  PRO27      -0.2715
     52  CB       -13.9130   -4.1940   10.4350 C.3    27  PRO27       0.0310
     53  CG       -13.4840   -4.9920    9.2390 C.3    27  PRO27       0.0237
     54  CD       -13.0720   -3.9860    8.2070 C.3    27  PRO27       0.0939
     55  N        -15.2430   -1.2310   11.4370 N.am   28  VAL28      -0.1964
     56  CA       -15.0630   -0.1040   12.3470 C.3    28  VAL28       0.1727
     57  C        -14.2340   -0.5540   13.5430 C.2    28  VAL28       0.2616
     58  O        -14.5290   -1.5780   14.1720 O.2    28  VAL28      -0.2715
     59  CB       -16.4250    0.4320   12.8190 C.3    28  VAL28       0.0290
     60  CG1      -16.2380    1.6030   13.7860 C.3    28  VAL28       0.0023
     61  CG2      -17.3150    0.8320   11.6430 C.3    28  VAL28       0.0023
     62  N        -13.1960    0.2080   13.8740 N.am   29  THR29      -0.1951
     63  CA       -12.3750   -0.1190   15.0320 C.3    29  THR29       0.1897
     64  C        -12.8410    0.6560   16.2560 C.2    29  THR29       0.2313
     65  O        -13.4170    1.7400   16.1460 O.2    29  THR29      -0.2863
     66  CB       -10.9060    0.2090   14.7670 C.3    29  THR29       0.1794
     67  OG1      -10.7410    1.6340   14.7050 O.3    29  THR29      -0.2208
     68  CG2      -10.4480   -0.4330   13.4610 C.3    29  THR29       0.0378
     69  N        -11.4670    4.2070   16.5050 N.3    32  ILE32      -0.1231
     70  CA       -12.1820    5.2340   15.7580 C.3    32  ILE32       0.1692
     71  C        -13.5390    5.5170   16.3860 C.2    32  ILE32       0.2591
     72  O        -14.0100    6.6600   16.3890 O.2    32  ILE32      -0.2718
     73  CB       -12.3220    4.7810   14.2940 C.3    32  ILE32       0.0266
     74  CG1      -10.9930    4.9320   13.5530 C.3    32  ILE32       0.0019
     75  CG2      -13.4620    5.5280   13.6020 C.3    32  ILE32       0.0020
     76  CD1      -10.5880    6.3630   13.3240 C.3    32  ILE32       0.0001
     77  N        -14.1890    4.4830   16.9150 N.am   33  ALA33      -0.1980
     78  CA       -15.5540    4.5710   17.4310 C.3    33  ALA33       0.1597
     79  C        -15.5680    3.9110   18.8010 C.2    33  ALA33       0.2287
     80  O        -15.8040    2.7010   18.9200 O.2    33  ALA33      -0.2864
     81  CB       -16.5390    3.8940   16.4820 C.3    33  ALA33       0.0319
     82  N        -17.3230    0.4900   20.1850 N.3    36  TYR36      -0.1241
     83  CA       -18.1110   -0.0440   19.0800 C.3    36  TYR36       0.1605
     84  C        -18.3830   -1.5350   19.2540 C.2    36  TYR36       0.2264
     85  O        -19.5250   -1.9880   19.1180 O.2    36  TYR36      -0.2867
     86  CB       -17.4100    0.2280   17.7490 C.3    36  TYR36       0.0534
     87  CG       -18.3110   -0.0020   16.5570 C.ar   36  TYR36      -0.0201
     88  CD1      -19.1290    1.0150   16.0880 C.ar   36  TYR36      -0.0009
     89  CD2      -18.3630   -1.2370   15.9160 C.ar   36  TYR36      -0.0009
     90  CE1      -19.9590    0.8220   15.0020 C.ar   36  TYR36       0.0417
     91  CE2      -19.2000   -1.4420   14.8330 C.ar   36  TYR36       0.0417
     92  CZ       -19.9940   -0.4090   14.3840 C.ar   36  TYR36       0.1957
     93  OH       -20.8320   -0.5990   13.3090 O.3    36  TYR36      -0.2866
     94  N        -24.8250    1.2880   11.7350 N.3    75  ALA75      -0.1245
     95  CA       -24.4880    2.7060   11.7700 C.3    75  ALA75       0.1562
     96  C        -25.6160    3.5310   12.3620 C.2    75  ALA75       0.2260
     97  O        -25.3580    4.5260   13.0460 O.2    75  ALA75      -0.2867
     98  CB       -24.1360    3.2030   10.3690 C.3    75  ALA75       0.0290
     99  N        -25.3510    2.7020   16.3690 N.3    78  TYR78      -0.1227
    100  CA       -24.2160    3.2200   17.1230 C.3    78  TYR78       0.1736
    101  C        -24.1770    4.7480   17.1230 C.2    78  TYR78       0.2595
    102  O        -23.9020    5.3650   18.1620 O.2    78  TYR78      -0.2718
    103  CB       -22.9070    2.6430   16.5690 C.3    78  TYR78       0.0548
    104  CG       -21.7010    3.2180   17.2670 C.ar   78  TYR78      -0.0200
    105  CD1      -21.2730    2.7160   18.4930 C.ar   78  TYR78      -0.0009
    106  CD2      -21.0150    4.2970   16.7270 C.ar   78  TYR78      -0.0009
    107  CE1      -20.1810    3.2610   19.1550 C.ar   78  TYR78       0.0417
    108  CE2      -19.9230    4.8440   17.3770 C.ar   78  TYR78       0.0417
    109  CZ       -19.5150    4.3300   18.5940 C.ar   78  TYR78       0.1957
    110  OH       -18.4260    4.8740   19.2360 O.3    78  TYR78      -0.2866
    111  N        -24.4510    5.3670   15.9780 N.am   79  ASN79      -0.1974
    112  CA       -24.3330    6.8100   15.8110 C.3    79  ASN79       0.1688
    113  C        -25.6670    7.5060   16.0480 C.2    79  ASN79       0.2292
    114  O        -26.7380    6.9290   15.8470 O.2    79  ASN79      -0.2864
    115  CB       -23.8540    7.1480   14.3980 C.3    79  ASN79       0.1181
    116  CG       -22.5450    6.4700   14.0410 C.2    79  ASN79       0.2629
    117  OD1      -21.4720    6.8830   14.4970 O.2    79  ASN79      -0.2716
    118  ND2      -22.6200    5.4370   13.2010 N.am   79  ASN79      -0.0877
    119  N        -22.2980    9.7210    9.5630 N.3    85  TYR85      -0.1241
    120  CA       -22.3960    8.2790    9.3560 C.3    85  TYR85       0.1605
    121  C        -23.8430    7.8060    9.3560 C.2    85  TYR85       0.2264
    122  O        -24.2250    6.9580    8.5400 O.2    85  TYR85      -0.2867
    123  CB       -21.5800    7.5580   10.4250 C.3    85  TYR85       0.0534
    124  CG       -20.2260    8.2080   10.6170 C.ar   85  TYR85      -0.0201
    125  CD1      -19.2570    8.1390    9.6230 C.ar   85  TYR85      -0.0009
    126  CD2      -19.9290    8.9220   11.7730 C.ar   85  TYR85      -0.0009
    127  CE1      -18.0220    8.7450    9.7820 C.ar   85  TYR85       0.0417
    128  CE2      -18.6970    9.5300   11.9390 C.ar   85  TYR85       0.0417
    129  CZ       -17.7490    9.4370   10.9400 C.ar   85  TYR85       0.1957
    130  OH       -16.5210   10.0370   11.0930 O.3    85  TYR85      -0.2866
@<TRIPOS>BOND
     1     1     2    1
     2     2     3    1
     3     2     5    1
     4    11     3   am
     5    11    12    1
     6     3     4    2
     7    10     9   ar
     8    10     8   ar
     9    12    13    1
    10     9     7   ar
    11     8     6   ar
    12     7     6   ar
    13     6     5    1
    14    47    45   ar
    15    47    46   ar
    16    45    43   ar
    17    46    44   ar
    18    13    15   am
    19    13    14    2
    20    29    28    2
    21    15    16    1
    22    28    27    1
    23    30    27    1
    24    30    31    1
    25    43    42   ar
    26    33    31   ar
    27    33    35   ar
    28    44    42   ar
    29    26    27    1
    30    26    17   am
    31    31    32   ar
    32    42    41    1
    33    37    38    1
    34    35    36   ar
    35    24    22   ar
    36    24    25   ar
    37    22    20   ar
    38    16    17    1
    39    16    19    1
    40    17    18    2
    41    25    23   ar
    42    20    19    1
    43    20    21   ar
    44    38    41    1
    45    38    39    1
    46    32    34   ar
    47    23    21   ar
    48    36    34   ar
    49    39    40    2
    50    39    48   am
    51    54    48    1
    52    54    53    1
    53    48    49    1
    54   122   121    2
    55    53    52    1
    56   120   121    1
    57   120   119    1
    58   120   123    1
    59   125   127   ar
    60   125   124   ar
    61   127   129   ar
    62    49    52    1
    63    49    50    1
    64    98    95    1
    65   123   124    1
    66   124   126   ar
    67    51    50    2
    68    50    55   am
    69   129   130    1
    70   129   128   ar
    71    55    56    1
    72    61    59    1
    73    94    95    1
    74    95    96    1
    75   126   128   ar
    76    56    59    1
    77    56    57    1
    78    96    97    2
    79    59    60    1
    80   118   116   am
    81    93    92    1
    82    76    74    1
    83    68    66    1
    84    57    62   am
    85    57    58    2
    86    74    73    1
    87    75    73    1
    88    62    63    1
    89   116   115    1
    90   116   117    2
    91    73    70    1
    92    92    91   ar
    93    92    90   ar
    94   115   112    1
    95    67    66    1
    96    66    63    1
    97    91    89   ar
    98    90    88   ar
    99    63    64    1
   100    70    71    1
   101    70    69    1
   102   112   111    1
   103   112   113    1
   104   114   113    2
   105    89    87   ar
   106   111   101   am
   107    88    87   ar
   108    65    64    2
   109    99   100    1
   110    71    72    2
   111    71    77   am
   112    81    78    1
   113    87    86    1
   114   103   100    1
   115   103   104    1
   116   106   104   ar
   117   106   108   ar
   118    77    78    1
   119   100   101    1
   120   101   102    2
   121   104   105   ar
   122   108   109   ar
   123    78    79    1
   124    86    83    1
   125   105   107   ar
   126   109   107   ar
   127   109   110    1
   128    79    80    2
   129    83    84    1
   130    83    82    1
   131    85    84    2
