@<TRIPOS>MOLECULE
tmp/5i7yA00.pdb
 114 111 0 0 0
SMALL
GASTEIGER

@<TRIPOS>ATOM
      1  N        -15.3590    6.2820    1.7960 N.3    22  GLY22      -0.1210
      2  CA       -15.0300    4.9620    2.2970 C.3    22  GLY22       0.1956
      3  C        -15.2920    4.7610    3.7740 C.2    22  GLY22       0.2612
      4  O        -14.6150    3.9350    4.4040 O.2    22  GLY22      -0.2717
      5  N        -16.2700    5.4770    4.3470 N.am   23  PHE23      -0.1962
      6  CA       -16.6280    5.2320    5.7460 C.3    23  PHE23       0.1771
      7  C        -17.0380    3.7760    5.9550 C.2    23  PHE23       0.2619
      8  O        -16.8030    3.2060    7.0310 O.2    23  PHE23      -0.2715
      9  CB       -17.7930    6.1250    6.1700 C.3    23  PHE23       0.0574
     10  CG       -17.5100    7.6070    6.1060 C.ar   23  PHE23      -0.0200
     11  CD1      -16.3450    8.1440    6.6230 C.ar   23  PHE23      -0.0042
     12  CD2      -18.4470    8.4660    5.5480 C.ar   23  PHE23      -0.0042
     13  CE1      -16.1120    9.5140    6.5650 C.ar   23  PHE23      -0.0003
     14  CE2      -18.2210    9.8390    5.4890 C.ar   23  PHE23      -0.0003
     15  CZ       -17.0550   10.3600    6.0030 C.ar   23  PHE23      -0.0000
     16  N        -17.6690    3.1660    4.9510 N.am   24  PHE24      -0.1974
     17  CA       -18.1210    1.7780    5.0180 C.3    24  PHE24       0.1639
     18  C        -17.0760    0.7790    4.5190 C.2    24  PHE24       0.2290
     19  O        -17.3750   -0.4120    4.4350 O.2    24  PHE24      -0.2864
     20  CB       -19.3920    1.5850    4.1820 C.3    24  PHE24       0.0560
     21  CG       -20.6420    2.1470    4.8060 C.ar   24  PHE24      -0.0200
     22  CD1      -21.1570    1.5980    5.9630 C.ar   24  PHE24      -0.0042
     23  CD2      -21.3140    3.2140    4.2090 C.ar   24  PHE24      -0.0042
     24  CE1      -22.3170    2.0910    6.5260 C.ar   24  PHE24      -0.0003
     25  CE2      -22.4790    3.7200    4.7640 C.ar   24  PHE24      -0.0003
     26  CZ       -22.9780    3.1600    5.9300 C.ar   24  PHE24      -0.0000
     27  N        -14.1050   -0.5130    5.5800 N.3    26  PHE26      -0.1241
     28  CA       -13.3770   -1.4480    6.4200 C.3    26  PHE26       0.1605
     29  C        -14.0720   -1.5510    7.7660 C.2    26  PHE26       0.2264
     30  O        -14.8590   -0.6700    8.1330 O.2    26  PHE26      -0.2867
     31  CB       -11.9360   -0.9660    6.6390 C.3    26  PHE26       0.0534
     32  CG       -11.1550   -0.7940    5.3580 C.ar   26  PHE26      -0.0203
     33  CD1      -10.6580   -1.8930    4.6780 C.ar   26  PHE26      -0.0042
     34  CD2      -10.9260    0.4680    4.8390 C.ar   26  PHE26      -0.0042
     35  CE1       -9.9570   -1.7340    3.4950 C.ar   26  PHE26      -0.0003
     36  CE2      -10.2360    0.6350    3.6570 C.ar   26  PHE26      -0.0003
     37  CZ        -9.7330   -0.4690    2.9860 C.ar   26  PHE26      -0.0000
     38  N        -15.1510   -1.0320   11.4270 N.3    28  VAL28      -0.1245
     39  CA       -14.9970    0.1210   12.3070 C.3    28  VAL28       0.1561
     40  C        -14.1870   -0.2840   13.5320 C.2    28  VAL28       0.2260
     41  O        -14.4770   -1.2990   14.1800 O.2    28  VAL28      -0.2867
     42  CB       -16.3710    0.6700   12.7220 C.3    28  VAL28       0.0252
     43  CG1      -16.2030    1.9220   13.5960 C.3    28  VAL28       0.0019
     44  CG2      -17.2510    0.9540   11.5000 C.3    28  VAL28       0.0019
     45  N        -11.4370    4.5680   16.3860 N.3    32  ILE32      -0.1231
     46  CA       -12.1390    5.6060   15.6400 C.3    32  ILE32       0.1692
     47  C        -13.5160    5.8880   16.2360 C.2    32  ILE32       0.2591
     48  O        -14.0100    7.0190   16.1570 O.2    32  ILE32      -0.2718
     49  CB       -12.2200    5.2230   14.1540 C.3    32  ILE32       0.0266
     50  CG1      -10.8440    5.3620   13.4960 C.3    32  ILE32       0.0019
     51  CG2      -13.2780    6.0570   13.4460 C.3    32  ILE32       0.0020
     52  CD1      -10.6600    4.4900   12.2690 C.3    32  ILE32       0.0001
     53  N        -14.1550    4.8790   16.8260 N.am   33  ALA33      -0.1980
     54  CA       -15.5240    4.9920   17.3240 C.3    33  ALA33       0.1597
     55  C        -15.5630    4.3640   18.7090 C.2    33  ALA33       0.2287
     56  O        -15.8520    3.1720   18.8530 O.2    33  ALA33      -0.2864
     57  CB       -16.5080    4.2890   16.3850 C.3    33  ALA33       0.0319
     58  N        -17.4680    1.0550   20.1640 N.3    36  TYR36      -0.1241
     59  CA       -18.1880    0.4470   19.0480 C.3    36  TYR36       0.1605
     60  C        -18.4680   -1.0320   19.2900 C.2    36  TYR36       0.2264
     61  O        -19.6130   -1.4870   19.1870 O.2    36  TYR36      -0.2867
     62  CB       -17.4030    0.6250   17.7450 C.3    36  TYR36       0.0534
     63  CG       -18.2580    0.3870   16.5270 C.ar   36  TYR36      -0.0201
     64  CD1      -19.0590    1.3980   16.0180 C.ar   36  TYR36      -0.0009
     65  CD2      -18.2850   -0.8530   15.8940 C.ar   36  TYR36      -0.0009
     66  CE1      -19.8620    1.1920   14.9050 C.ar   36  TYR36       0.0417
     67  CE2      -19.0800   -1.0680   14.7780 C.ar   36  TYR36       0.0417
     68  CZ       -19.8730   -0.0380   14.2870 C.ar   36  TYR36       0.1957
     69  OH       -20.6800   -0.2310   13.1760 O.3    36  TYR36      -0.2866
     70  N        -24.7160    1.6000   11.4810 N.3    75  ALA75      -0.1245
     71  CA       -24.3530    3.0100   11.4630 C.3    75  ALA75       0.1562
     72  C        -25.4650    3.8710   12.0390 C.2    75  ALA75       0.2260
     73  O        -25.1850    4.9010   12.6620 O.2    75  ALA75      -0.2867
     74  CB       -24.0140    3.4590   10.0400 C.3    75  ALA75       0.0290
     75  N        -25.2260    3.1740   16.1360 N.3    78  TYR78      -0.1227
     76  CA       -24.1170    3.7290   16.8970 C.3    78  TYR78       0.1736
     77  C        -24.0800    5.2510   16.8260 C.2    78  TYR78       0.2595
     78  O        -23.7650    5.9100   17.8250 O.2    78  TYR78      -0.2718
     79  CB       -22.7960    3.1430   16.4010 C.3    78  TYR78       0.0548
     80  CG       -21.6100    3.7460   17.0970 C.ar   78  TYR78      -0.0200
     81  CD1      -21.1670    3.2450   18.3150 C.ar   78  TYR78      -0.0009
     82  CD2      -20.9430    4.8350   16.5500 C.ar   78  TYR78      -0.0009
     83  CE1      -20.0780    3.8090   18.9660 C.ar   78  TYR78       0.0417
     84  CE2      -19.8600    5.4040   17.1920 C.ar   78  TYR78       0.0417
     85  CZ       -19.4340    4.8900   18.3970 C.ar   78  TYR78       0.1957
     86  OH       -18.3540    5.4660   19.0250 O.3    78  TYR78      -0.2866
     87  N        -24.4020    5.8240   15.6720 N.am   79  ASN79      -0.1974
     88  CA       -24.2720    7.2550   15.4390 C.3    79  ASN79       0.1688
     89  C        -25.6050    7.9580   15.6520 C.2    79  ASN79       0.2292
     90  O        -26.6700    7.3970   15.3930 O.2    79  ASN79      -0.2864
     91  CB       -23.7960    7.5210   14.0120 C.3    79  ASN79       0.1181
     92  CG       -22.4890    6.8340   13.7070 C.2    79  ASN79       0.2629
     93  OD1      -21.4320    7.2410   14.1880 O.2    79  ASN79      -0.2716
     94  ND2      -22.5520    5.7750   12.9100 N.am   79  ASN79      -0.0877
     95  N        -22.5260   10.3900    9.2670 N.3    85  TYR85      -0.1241
     96  CA       -22.5460    8.9300    9.1920 C.3    85  TYR85       0.1605
     97  C        -23.9680    8.3980    9.1540 C.2    85  TYR85       0.2264
     98  O        -24.3080    7.5660    8.3040 O.2    85  TYR85      -0.2867
     99  CB       -21.8100    8.3410   10.3940 C.3    85  TYR85       0.0534
    100  CG       -20.4260    8.9010   10.5860 C.ar   85  TYR85      -0.0201
    101  CD1      -19.4940    8.8790    9.5490 C.ar   85  TYR85      -0.0009
    102  CD2      -20.0520    9.4720   11.7960 C.ar   85  TYR85      -0.0009
    103  CE1      -18.2230    9.3940    9.7220 C.ar   85  TYR85       0.0417
    104  CE2      -18.7810    9.9990   11.9770 C.ar   85  TYR85       0.0417
    105  CZ       -17.8730    9.9580   10.9340 C.ar   85  TYR85       0.1957
    106  OH       -16.6120   10.4770   11.1080 O.3    85  TYR85      -0.2866
    107  N        -25.6700    9.4000    5.8780 N.3    88  LEU88      -0.1245
    108  CA       -25.1920    8.6130    4.7450 C.3    88  LEU88       0.1561
    109  C        -25.7670    7.2090    4.7860 C.2    88  LEU88       0.2260
    110  O        -26.2020    6.6760    3.7560 O.2    88  LEU88      -0.2867
    111  CB       -23.6660    8.5280    4.7510 C.3    88  LEU88       0.0270
    112  CG       -23.0880    7.7050    3.5910 C.3    88  LEU88       0.0019
    113  CD1      -23.4670    8.3010    2.2360 C.3    88  LEU88       0.0001
    114  CD2      -21.5840    7.5450    3.6980 C.3    88  LEU88       0.0001
@<TRIPOS>BOND
     1     1     2    1
     2   113   112    1
     3     2     3    1
     4    37    35   ar
     5    37    36   ar
     6    35    33   ar
     7   112   114    1
     8   112   111    1
     9    36    34   ar
    10   110   109    2
    11     3     5   am
    12     3     4    2
    13    20    21    1
    14    20    17    1
    15    23    25   ar
    16    23    21   ar
    17     5     6    1
    18    19    18    2
    19    18    17    1
    20    33    32   ar
    21   108   111    1
    22   108   109    1
    23   108   107    1
    24    25    26   ar
    25    21    22   ar
    26    34    32   ar
    27    16    17    1
    28    16     7   am
    29    32    31    1
    30    14    12   ar
    31    14    15   ar
    32    12    10   ar
    33    27    28    1
    34     6     7    1
    35     6     9    1
    36    26    24   ar
    37     7     8    2
    38    22    24   ar
    39    15    13   ar
    40    10     9    1
    41    10    11   ar
    42    28    31    1
    43    28    29    1
    44    13    11   ar
    45    29    30    2
    46    98    97    2
    47    97    96    1
    48    96    95    1
    49    96    99    1
    50   101   103   ar
    51   101   100   ar
    52   103   105   ar
    53    74    71    1
    54    99   100    1
    55   100   102   ar
    56   105   106    1
    57   105   104   ar
    58    38    39    1
    59    71    70    1
    60    71    72    1
    61    44    42    1
    62   102   104   ar
    63    72    73    2
    64    52    50    1
    65    39    42    1
    66    39    40    1
    67    42    43    1
    68    94    92   am
    69    69    68    1
    70    51    49    1
    71    50    49    1
    72    40    41    2
    73    92    91    1
    74    92    93    2
    75    91    88    1
    76    49    46    1
    77    68    67   ar
    78    68    66   ar
    79    67    65   ar
    80    66    64   ar
    81    90    89    2
    82    88    89    1
    83    88    87    1
    84    46    47    1
    85    46    45    1
    86    87    77   am
    87    65    63   ar
    88    64    63   ar
    89    75    76    1
    90    48    47    2
    91    47    53   am
    92    57    54    1
    93    79    76    1
    94    79    80    1
    95    63    62    1
    96    82    80   ar
    97    82    84   ar
    98    77    76    1
    99    77    78    2
   100    53    54    1
   101    80    81   ar
   102    84    85   ar
   103    54    55    1
   104    62    59    1
   105    81    83   ar
   106    85    83   ar
   107    85    86    1
   108    55    56    2
   109    59    60    1
   110    59    58    1
   111    61    60    2
