@<TRIPOS>MOLECULE
tmp/5i80A00.pdb
 141 138 0 0 0
SMALL
GASTEIGER

@<TRIPOS>ATOM
      1  N         -7.7020    2.5590   11.7470 N.3    40  TRP40      -0.1228
      2  CA        -8.9810    2.8240   12.4050 C.3    40  TRP40       0.1722
      3  C         -9.9350    1.6300   12.5160 C.2    40  TRP40       0.2437
      4  O        -10.6330    1.5440   13.5410 O.2    40  TRP40      -0.2733
      5  CB        -9.6560    4.0810   11.8310 C.3    40  TRP40       0.0563
      6  CG       -10.1030    3.9300   10.4220 C.ar   40  TRP40       0.0003
      7  CD1       -9.3580    4.1450    9.2950 C.ar   40  TRP40       0.0946
      8  CD2      -11.3970    3.5110    9.9760 C.ar   40  TRP40       0.0152
      9  NE1      -10.1120    3.8840    8.1780 N.ar   40  TRP40      -0.2442
     10  CE2      -11.3660    3.4920    8.5660 C.ar   40  TRP40       0.0810
     11  CE3      -12.5810    3.1580   10.6290 C.ar   40  TRP40       0.0012
     12  CZ2      -12.4740    3.1350    7.7980 C.ar   40  TRP40       0.0191
     13  CZ3      -13.6830    2.7980    9.8600 C.ar   40  TRP40       0.0001
     14  CH2      -13.6190    2.7920    8.4600 C.ar   40  TRP40       0.0015
     15  N        -10.0440    0.7070   11.5470 N.am   41  PRO41      -0.2718
     16  CA       -10.9420   -0.4410   11.7590 C.3    41  PRO41       0.1535
     17  C        -10.4650   -1.3650   12.8540 C.2    41  PRO41       0.2598
     18  O        -11.2270   -2.2450   13.2670 O.2    41  PRO41      -0.2715
     19  CB       -10.9430   -1.1620   10.4010 C.3    41  PRO41       0.0310
     20  CG       -10.4460   -0.1460    9.4080 C.3    41  PRO41       0.0237
     21  CD        -9.4530    0.6760   10.1920 C.3    41  PRO41       0.0939
     22  N         -9.2330   -1.1870   13.3200 N.am   42  PHE42      -0.1974
     23  CA        -8.6300   -2.0190   14.3480 C.3    42  PHE42       0.1639
     24  C         -8.5020   -1.2910   15.6820 C.2    42  PHE42       0.2290
     25  O         -7.9310   -1.8430   16.6280 O.2    42  PHE42      -0.2864
     26  CB        -7.2620   -2.5190   13.8660 C.3    42  PHE42       0.0560
     27  CG        -7.3240   -3.2800   12.5640 C.ar   42  PHE42      -0.0200
     28  CD1       -7.5050   -4.6470   12.5600 C.ar   42  PHE42      -0.0042
     29  CD2       -7.2240   -2.6220   11.3460 C.ar   42  PHE42      -0.0042
     30  CE1       -7.5730   -5.3600   11.3710 C.ar   42  PHE42      -0.0003
     31  CE2       -7.2860   -3.3270   10.1450 C.ar   42  PHE42      -0.0003
     32  CZ        -7.4660   -4.6980   10.1580 C.ar   42  PHE42      -0.0000
     33  N        -10.8610   -0.4970   17.7980 N.3    44  GLN44      -0.1231
     34  CA       -11.9070   -0.8540   18.7450 C.3    44  GLN44       0.1683
     35  C        -12.4170   -2.2360   18.3660 C.2    44  GLN44       0.2434
     36  O        -12.1790   -2.6950   17.2450 O.2    44  GLN44      -0.2733
     37  CB       -13.0540    0.1740   18.7290 C.3    44  GLN44       0.0380
     38  CG       -13.7500    0.3340   17.3930 C.3    44  GLN44       0.0905
     39  CD       -12.9140    1.1130   16.3910 C.2    44  GLN44       0.2608
     40  OE1      -12.4540    2.2240   16.6780 O.2    44  GLN44      -0.2717
     41  NE2      -12.6890    0.5230   15.2200 N.am   44  GLN44      -0.0878
     42  N        -13.1120   -2.9190   19.2740 N.am   45  PRO45      -0.2718
     43  CA       -13.6640   -4.2400   18.9520 C.3    45  PRO45       0.1535
     44  C        -14.5340   -4.2060   17.7020 C.2    45  PRO45       0.2598
     45  O        -15.1910   -3.2070   17.4040 O.2    45  PRO45      -0.2715
     46  CB       -14.4910   -4.5780   20.1990 C.3    45  PRO45       0.0310
     47  CG       -13.7650   -3.8730   21.3030 C.3    45  PRO45       0.0237
     48  CD       -13.3170   -2.5720   20.6900 C.3    45  PRO45       0.0939
     49  N        -14.5240   -5.3190   16.9620 N.am   46  VAL46      -0.1978
     50  CA       -15.4100   -5.4560   15.8110 C.3    46  VAL46       0.1596
     51  C        -16.8550   -5.3820   16.2840 C.2    46  VAL46       0.2287
     52  O        -17.3040   -6.1890   17.1130 O.2    46  VAL46      -0.2864
     53  CB       -15.1320   -6.7750   15.0840 C.3    46  VAL46       0.0276
     54  CG1      -16.2320   -7.0950   14.0610 C.3    46  VAL46       0.0022
     55  CG2      -13.7710   -6.7470   14.4050 C.3    46  VAL46       0.0022
     56  N        -21.6580   -3.6410   11.5690 N.3    51  LEU51      -0.1245
     57  CA       -21.0080   -4.0380   10.3260 C.3    51  LEU51       0.1561
     58  C        -21.7690   -5.1200    9.5710 C.2    51  LEU51       0.2260
     59  O        -21.3290   -5.5210    8.4860 O.2    51  LEU51      -0.2867
     60  CB       -19.5820   -4.5120   10.6060 C.3    51  LEU51       0.0270
     61  CG       -18.6140   -3.4720   11.1640 C.3    51  LEU51       0.0019
     62  CD1      -17.3570   -4.1680   11.6500 C.3    51  LEU51       0.0001
     63  CD2      -18.2940   -2.4160   10.1020 C.3    51  LEU51       0.0001
     64  N        -22.1570   -8.3890   10.2880 N.3    53  LEU53      -0.1245
     65  CA       -21.3690   -9.6160   10.2720 C.3    53  LEU53       0.1561
     66  C        -21.9790  -10.5570   11.3060 C.2    53  LEU53       0.2260
     67  O        -21.3840  -10.8030   12.3640 O.2    53  LEU53      -0.2867
     68  CB       -19.9050   -9.3270   10.6000 C.3    53  LEU53       0.0270
     69  CG       -19.1870   -8.2420    9.7890 C.3    53  LEU53       0.0019
     70  CD1      -17.7730   -8.0010   10.3200 C.3    53  LEU53       0.0001
     71  CD2      -19.1560   -8.6000    8.3020 C.3    53  LEU53       0.0001
     72  N        -19.6890  -13.2420   12.7850 N.3    56  TYR56      -0.1241
     73  CA       -18.3180  -12.9180   13.1800 C.3    56  TYR56       0.1605
     74  C        -17.9310  -13.6160   14.4790 C.2    56  TYR56       0.2264
     75  O        -16.8760  -14.2560   14.5670 O.2    56  TYR56      -0.2867
     76  CB       -18.1120  -11.4110   13.3180 C.3    56  TYR56       0.0534
     77  CG       -16.6630  -11.0900   13.6110 C.ar   56  TYR56      -0.0201
     78  CD1      -15.7370  -10.9400   12.5710 C.ar   56  TYR56      -0.0009
     79  CD2      -16.2050  -10.9750   14.9240 C.ar   56  TYR56      -0.0009
     80  CE1      -14.4060  -10.6880   12.8290 C.ar   56  TYR56       0.0417
     81  CE2      -14.8790  -10.7100   15.1980 C.ar   56  TYR56       0.0417
     82  CZ       -13.9790  -10.5680   14.1490 C.ar   56  TYR56       0.1957
     83  OH       -12.6560  -10.3060   14.4200 O.3    56  TYR56      -0.2866
     84  N         -5.0610  -10.4220   16.9510 N.3    91  MET91      -0.1245
     85  CA        -5.8010   -9.4600   16.1420 C.3    91  MET91       0.1570
     86  C         -5.5890   -9.7120   14.6470 C.2    91  MET91       0.2261
     87  O         -6.5530   -9.7990   13.8700 O.2    91  MET91      -0.2867
     88  CB        -5.3920   -8.0430   16.5400 C.3    91  MET91       0.0387
     89  CG        -6.0640   -6.9770   15.7070 C.3    91  MET91       0.0595
     90  SD        -5.4330   -5.3340   16.1060 S.3    91  MET91      -0.1393
     91  CE        -3.8860   -5.3360   15.2140 C.3    91  MET91       0.0692
     92  N         -8.3450  -11.5150   11.6850 N.3    95  CYS95      -0.1235
     93  CA        -8.6970  -10.8720   10.4270 C.3    95  CYS95       0.1677
     94  C         -8.4510  -11.8120    9.2520 C.2    95  CYS95       0.2270
     95  O         -9.2740  -11.9030    8.3310 O.2    95  CYS95      -0.2867
     96  CB        -7.8950   -9.5780   10.2960 C.3    95  CYS95       0.0956
     97  SG        -8.3720   -8.5390    8.9090 S.3    95  CYS95      -0.0801
     98  N        -11.2470  -14.7400    9.4040 N.3    98  TYR98      -0.1227
     99  CA       -12.6480  -14.4250    9.1400 C.3    98  TYR98       0.1736
    100  C        -12.8780  -13.9650    7.7070 C.2    98  TYR98       0.2595
    101  O        -13.8990  -14.3130    7.0960 O.2    98  TYR98      -0.2718
    102  CB       -13.1770  -13.3620   10.1120 C.3    98  TYR98       0.0548
    103  CG       -14.6110  -13.0250    9.7950 C.ar   98  TYR98      -0.0200
    104  CD1      -15.6400  -13.8790   10.1760 C.ar   98  TYR98      -0.0009
    105  CD2      -14.9370  -11.8810    9.0690 C.ar   98  TYR98      -0.0009
    106  CE1      -16.9540  -13.6030    9.8550 C.ar   98  TYR98       0.0417
    107  CE2      -16.2480  -11.5920    8.7510 C.ar   98  TYR98       0.0417
    108  CZ       -17.2520  -12.4540    9.1430 C.ar   98  TYR98       0.1957
    109  OH       -18.5580  -12.1590    8.8200 O.3    98  TYR98      -0.2866
    110  N        -11.9550  -13.1840    7.1610 N.am   99  ASN99      -0.1974
    111  CA       -12.1890  -12.4820    5.9080 C.3    99  ASN99       0.1688
    112  C        -11.5900  -13.2200    4.7180 C.2    99  ASN99       0.2292
    113  O        -10.6080  -13.9540    4.8420 O.2    99  ASN99      -0.2864
    114  CB       -11.6250  -11.0640    5.9820 C.3    99  ASN99       0.1181
    115  CG       -12.2470  -10.2520    7.1040 C.2    99  ASN99       0.2629
    116  OD1      -13.3780   -9.7700    6.9840 O.2    99  ASN99      -0.2716
    117  ND2      -11.5030  -10.0760    8.1920 N.am   99  ASN99      -0.0877
    118  N        -10.0670   -6.0470    1.1160 N.3   104  ASP104     -0.1225
    119  CA        -9.3850   -4.8290    1.5420 C.3   104  ASP104      0.1805
    120  C         -8.9860   -4.8830    3.0150 C.2   104  ASP104      0.2597
    121  O         -7.8730   -4.4800    3.3690 O.2   104  ASP104     -0.2718
    122  CB       -10.2740   -3.6200    1.2900 C.3   104  ASP104      0.1424
    123  CG       -10.1010   -3.0460   -0.0970 C.2   104  ASP104      0.3668
    124  OD1       -9.4400   -3.6760   -0.9510 O.co2 104  ASP104     -0.2456
    125  OD2      -10.6510   -1.9590   -0.3310 O.co2 104  ASP104     -0.2456
    126  N         -9.8850   -5.3490    3.8920 N.am  105  ILE105     -0.1980
    127  CA        -9.5480   -5.4090    5.3180 C.3   105  ILE105      0.1595
    128  C         -8.3390   -6.3040    5.5580 C.2   105  ILE105      0.2287
    129  O         -7.5410   -6.0520    6.4700 O.2   105  ILE105     -0.2864
    130  CB       -10.7710   -5.8160    6.1720 C.3   105  ILE105      0.0276
    131  CG1      -10.5040   -5.5900    7.6700 C.3   105  ILE105      0.0022
    132  CG2      -11.1910   -7.2540    5.8810 C.3   105  ILE105      0.0022
    133  CD1      -10.4960   -4.1280    8.0960 C.3   105  ILE105      0.0001
    134  N         -5.2760   -4.3100    4.5870 N.3   108  MET108     -0.1245
    135  CA        -4.9850   -3.3590    5.6560 C.3   108  MET108      0.1570
    136  C         -4.2730   -4.0410    6.8140 C.2   108  MET108      0.2261
    137  O         -3.2570   -3.5440    7.3140 O.2   108  MET108     -0.2867
    138  CB        -6.2700   -2.6840    6.1290 C.3   108  MET108      0.0387
    139  CG        -6.9240   -1.8420    5.0530 C.3   108  MET108      0.0595
    140  SD        -8.5740   -1.3240    5.5370 S.3   108  MET108     -0.1393
    141  CE        -8.2340    0.1060    6.5470 C.3   108  MET108      0.0692
@<TRIPOS>BOND
     1   124   123   ar
     2   125   123   ar
     3   123   122    1
     4   118   119    1
     5   122   119    1
     6   119   120    1
     7   120   121    2
     8   120   126   am
     9   126   127    1
    10   134   135    1
    11   112   113    2
    12   112   111    1
    13   139   140    1
    14   139   138    1
    15   127   128    1
    16   127   130    1
    17   140   141    1
    18   128   129    2
    19   135   138    1
    20   135   136    1
    21   132   130    1
    22   111   114    1
    23   111   110    1
    24   114   115    1
    25   130   131    1
    26   136   137    2
    27   116   115    2
    28   101   100    2
    29   115   117   am
    30   110   100   am
    31   131   133    1
    32   100    99    1
    33    12    14   ar
    34    12    10   ar
    35     9    10   ar
    36     9     7   ar
    37    71    69    1
    38    95    94    2
    39    14    13   ar
    40    59    58    2
    41    10     8   ar
    42   107   105   ar
    43   107   108   ar
    44   109   108    1
    45    97    96    1
    46   105   103   ar
    47    99    98    1
    48    99   102    1
    49   108   106   ar
    50    94    93    1
    51     7     6   ar
    52    20    21    1
    53    20    19    1
    54    58    57    1
    55    69    70    1
    56    69    68    1
    57   103   102    1
    58   103   104   ar
    59   106   104   ar
    60    13    11   ar
    61     8     6   ar
    62     8    11   ar
    63    63    61    1
    64    31    32   ar
    65    31    29   ar
    66    32    30   ar
    67    21    15    1
    68    65    64    1
    69    65    68    1
    70    65    66    1
    71    96    93    1
    72    57    60    1
    73    57    56    1
    74    19    16    1
    75     6     5    1
    76    93    92    1
    77    60    61    1
    78    61    62    1
    79    66    67    2
    80    29    27   ar
    81    30    28   ar
    82    15    16    1
    83    15     3   am
    84     1     2    1
    85    16    17    1
    86     5     2    1
    87     2     3    1
    88     3     4    2
    89    28    27   ar
    90    27    26    1
    91    78    80   ar
    92    78    77   ar
    93    72    73    1
    94    80    82   ar
    95    17    18    2
    96    17    22   am
    97    73    76    1
    98    73    74    1
    99    76    77    1
   100    22    23    1
   101    77    79   ar
   102    26    23    1
   103    87    86    2
   104    54    53    1
   105    82    83    1
   106    82    81   ar
   107    23    24    1
   108    55    53    1
   109    74    75    2
   110    86    85    1
   111    79    81   ar
   112    53    50    1
   113    91    90    1
   114    41    39   am
   115    24    25    2
   116    89    90    1
   117    89    88    1
   118    50    51    1
   119    50    49    1
   120    85    88    1
   121    85    84    1
   122    51    52    2
   123    39    40    2
   124    39    38    1
   125    49    44   am
   126    36    35    2
   127    38    37    1
   128    45    44    2
   129    44    43    1
   130    33    34    1
   131    35    34    1
   132    35    42   am
   133    37    34    1
   134    43    42    1
   135    43    46    1
   136    42    48    1
   137    46    47    1
   138    48    47    1
