@<TRIPOS>MOLECULE
tmp/5i83A00.pdb
 115 111 0 0 0
SMALL
GASTEIGER

@<TRIPOS>ATOM
      1  N          1.4140   -5.8790   -4.9880 N.3    27  LEU27      -0.1231
      2  CA         0.5650   -4.7400   -4.7030 C.3    27  LEU27       0.1678
      3  C          1.1990   -3.7530   -3.7190 C.2    27  LEU27       0.2434
      4  O          1.2460   -2.5450   -4.0020 O.2    27  LEU27      -0.2733
      5  CB        -0.8420   -5.1930   -4.3070 C.3    27  LEU27       0.0284
      6  CG        -1.7670   -5.4160   -5.5070 C.3    27  LEU27       0.0019
      7  CD1       -1.3220   -6.6030   -6.3520 C.3    27  LEU27       0.0001
      8  CD2       -3.2080   -5.6030   -5.0440 C.3    27  LEU27       0.0001
      9  N          1.7330   -4.2420   -2.5800 N.am   28  PRO28      -0.2718
     10  CA         2.3040   -3.2990   -1.6190 C.3    28  PRO28       0.1535
     11  C          3.6070   -2.6210   -2.0860 C.2    28  PRO28       0.2598
     12  O          4.0860   -1.6770   -1.4270 O.2    28  PRO28      -0.2715
     13  CB         2.5200   -4.1430   -0.3600 C.3    28  PRO28       0.0310
     14  CG         2.4690   -5.5590   -0.8040 C.3    28  PRO28       0.0237
     15  CD         1.6400   -5.6130   -2.0470 C.3    28  PRO28       0.0939
     16  N          4.1660   -3.1040   -3.2010 N.am   29  PHE29      -0.1974
     17  CA         5.4170   -2.5790   -3.7740 C.3    29  PHE29       0.1639
     18  C          5.2210   -1.6340   -4.9690 C.2    29  PHE29       0.2290
     19  O          6.2070   -1.0850   -5.5140 O.2    29  PHE29      -0.2864
     20  CB         6.3250   -3.7340   -4.2130 C.3    29  PHE29       0.0560
     21  CG         6.6800   -4.6480   -3.0860 C.ar   29  PHE29      -0.0200
     22  CD1        7.6770   -4.3170   -2.1880 C.ar   29  PHE29      -0.0042
     23  CD2        5.9250   -5.7790   -2.8360 C.ar   29  PHE29      -0.0042
     24  CE1        7.9530   -5.1370   -1.1150 C.ar   29  PHE29      -0.0003
     25  CE2        6.1860   -6.5960   -1.7590 C.ar   29  PHE29      -0.0003
     26  CZ         7.2150   -6.2930   -0.9050 C.ar   29  PHE29      -0.0000
     27  N          6.1150    4.0200   -0.4080 N.3    33  VAL33      -0.1245
     28  CA         5.5570    3.8710    0.9270 C.3    33  VAL33       0.1561
     29  C          5.1100    5.2380    1.4420 C.2    33  VAL33       0.2260
     30  O          5.9080    6.1910    1.4920 O.2    33  VAL33      -0.2867
     31  CB         6.5670    3.2570    1.8920 C.3    33  VAL33       0.0252
     32  CG1        5.9180    3.0810    3.2440 C.3    33  VAL33       0.0019
     33  CG2        7.0700    1.9160    1.3450 C.3    33  VAL33       0.0019
     34  N         -0.4580    4.3720    5.6000 N.3    38  LEU38      -0.1245
     35  CA        -0.4220    2.9600    5.9170 C.3    38  LEU38       0.1561
     36  C         -0.4800    2.6330    7.4080 C.2    38  LEU38       0.2260
     37  O         -0.5220    1.4620    7.7920 O.2    38  LEU38      -0.2867
     38  CB         0.8250    2.3230    5.3190 C.3    38  LEU38       0.0270
     39  CG         0.8750    2.2130    3.7970 C.3    38  LEU38       0.0019
     40  CD1        2.2610    1.7550    3.3530 C.3    38  LEU38       0.0001
     41  CD2       -0.2040    1.2550    3.2750 C.3    38  LEU38       0.0001
     42  N          1.9460    3.1590    9.5650 N.3    40  ILE40      -0.1245
     43  CA         3.2470    2.6870   10.0080 C.3    40  ILE40       0.1561
     44  C          4.2380    3.8520   10.1590 C.2    40  ILE40       0.2260
     45  O          5.2710    3.8990    9.4970 O.2    40  ILE40      -0.2867
     46  CB         3.8210    1.5970    9.0970 C.3    40  ILE40       0.0252
     47  CG1        3.8290    2.0300    7.6170 C.3    40  ILE40       0.0019
     48  CG2        3.0030    0.3190    9.2560 C.3    40  ILE40       0.0019
     49  CD1        4.5850    1.0520    6.7210 C.3    40  ILE40       0.0001
     50  N          8.1780    3.9990    9.9690 N.3    43  TYR43      -0.1241
     51  CA         8.8270    3.3480    8.8230 C.3    43  TYR43       0.1605
     52  C         10.1710    3.9860    8.4690 C.2    43  TYR43       0.2264
     53  O         11.1880    3.2980    8.3090 O.2    43  TYR43      -0.2867
     54  CB         7.9050    3.3640    7.6090 C.3    43  TYR43       0.0534
     55  CG         8.4700    2.6760    6.4010 C.ar   43  TYR43      -0.0201
     56  CD1        8.4660    1.2940    6.3020 C.ar   43  TYR43      -0.0009
     57  CD2        9.0240    3.4070    5.3680 C.ar   43  TYR43      -0.0009
     58  CE1        8.9570    0.6600    5.1830 C.ar   43  TYR43       0.0417
     59  CE2        9.5900    2.7780    4.2680 C.ar   43  TYR43       0.0417
     60  CZ         9.5420    1.4040    4.1630 C.ar   43  TYR43       0.1957
     61  OH        10.1110    0.7770    3.0490 O.3    43  TYR43      -0.2866
     62  N         11.9530   -4.3770    2.6970 N.3    82  ALA82      -0.1245
     63  CA        10.8010   -5.1290    3.1690 C.3    82  ALA82       0.1562
     64  C         11.1710   -6.2490    4.1390 C.2    82  ALA82       0.2260
     65  O         10.4820   -6.4660    5.1340 O.2    82  ALA82      -0.2867
     66  CB        10.0050   -5.6820    1.9970 C.3    82  ALA82       0.0290
     67  N         11.9660   -4.3700    7.4880 N.3    85  TYR85      -0.1227
     68  CA        10.9270   -3.6540    8.2050 C.3    85  TYR85       0.1736
     69  C          9.8580   -4.5930    8.7510 C.2    85  TYR85       0.2595
     70  O          9.3220   -4.3880    9.8380 O.2    85  TYR85      -0.2718
     71  CB        10.2790   -2.5910    7.3320 C.3    85  TYR85       0.0548
     72  CG         9.2130   -1.8430    8.0630 C.ar   85  TYR85      -0.0200
     73  CD1        9.5560   -0.9570    9.0760 C.ar   85  TYR85      -0.0009
     74  CD2        7.8670   -2.1730    7.9100 C.ar   85  TYR85      -0.0009
     75  CE1        8.5940   -0.3640    9.8570 C.ar   85  TYR85       0.0417
     76  CE2        6.8970   -1.5980    8.7110 C.ar   85  TYR85       0.0417
     77  CZ         7.2730   -0.7310    9.7170 C.ar   85  TYR85       0.1957
     78  OH         6.3080   -0.1790   10.5380 O.3    85  TYR85      -0.2866
     79  N          9.5080   -5.5900    7.9660 N.am   86  ASN86      -0.1974
     80  CA         8.3510   -6.4160    8.2620 C.3    86  ASN86       0.1688
     81  C          8.7190   -7.6690    9.0370 C.2    86  ASN86       0.2292
     82  O          9.8140   -8.2170    8.8510 O.2    86  ASN86      -0.2864
     83  CB         7.6500   -6.7610    6.9650 C.3    86  ASN86       0.1181
     84  CG         7.1920   -5.5270    6.2140 C.2    86  ASN86       0.2629
     85  OD1        6.1420   -4.9280    6.5270 O.2    86  ASN86      -0.2716
     86  ND2        7.9990   -5.1090    5.2460 N.am   86  ASN86      -0.0877
     87  N          2.2910  -10.4800    5.5500 N.3    91  ARG91      -0.1231
     88  CA         2.0730  -10.4990    4.1120 C.3    91  ARG91       0.1694
     89  C          3.2110   -9.8780    3.3500 C.2    91  ARG91       0.2591
     90  O          3.6690  -10.4440    2.3540 O.2    91  ARG91      -0.2718
     91  CB         0.7720   -9.8190    3.7340 C.3    91  ARG91       0.0321
     92  CG        -0.4560  -10.5390    4.2660 C.3    91  ARG91       0.0489
     93  CD        -1.7070   -9.7150    4.0420 C.3    91  ARG91       0.2205
     94  NE        -1.6450   -8.5530    4.8760 N.pl3  91  ARG91      -0.0865
     95  CZ        -2.4450   -7.5120    4.8250 C.cat  91  ARG91       0.5346
     96  NH1       -3.3850   -7.4220    3.8990 N.pl3  91  ARG91       0.1354
     97  NH2       -2.2070   -6.5140    5.6830 N.pl3  91  ARG91       0.1354
     98  N          3.6280   -8.6770    3.7470 N.am   92  VAL92      -0.1980
     99  CA         4.5820   -7.9540    2.9130 C.3    92  VAL92       0.1595
    100  C          5.9210   -8.7340    2.8580 C.2    92  VAL92       0.2287
    101  O          6.5690   -8.7910    1.8210 O.2    92  VAL92      -0.2864
    102  CB         4.7460   -6.4860    3.3490 C.3    92  VAL92       0.0276
    103  CG1        5.8970   -5.8190    2.6260 C.3    92  VAL92       0.0022
    104  CG2        3.4630   -5.7190    3.0680 C.3    92  VAL92       0.0022
    105  N          5.3060  -11.7910    0.6070 N.3    95  PHE95      -0.1241
    106  CA         5.1650  -11.3160   -0.7390 C.3    95  PHE95       0.1605
    107  C          6.5360  -10.9020   -1.3230 C.2    95  PHE95       0.2264
    108  O          6.8190  -11.1620   -2.4820 O.2    95  PHE95      -0.2867
    109  CB         4.1960  -10.1290   -0.7880 C.3    95  PHE95       0.0534
    110  CG         2.7380  -10.4770   -0.5580 C.ar   95  PHE95      -0.0203
    111  CD1        2.2970  -11.7640   -0.3940 C.ar   95  PHE95      -0.0042
    112  CD2        1.8200   -9.4530   -0.4720 C.ar   95  PHE95      -0.0042
    113  CE1        0.9380  -12.0230   -0.2390 C.ar   95  PHE95      -0.0003
    114  CE2        0.4700   -9.7050   -0.3180 C.ar   95  PHE95      -0.0003
    115  CZ         0.0270  -10.9900   -0.2010 C.ar   95  PHE95      -0.0000
@<TRIPOS>BOND
     1     7     6    1
     2    19    18    2
     3     6     8    1
     4     6     5    1
     5     1     2    1
     6    18    17    1
     7     2     5    1
     8     2     3    1
     9    20    17    1
    10    20    21    1
    11     4     3    2
    12    17    16    1
    13     3     9   am
    14    16    11   am
    15    21    23   ar
    16    21    22   ar
    17    23    25   ar
    18     9    15    1
    19     9    10    1
    20   108   107    2
    21    22    24   ar
    22    11    10    1
    23    11    12    2
    24    15    14    1
    25    25    26   ar
    26    10    13    1
    27   107   106    1
    28    24    26   ar
    29    14    13    1
    30   109   106    1
    31   109   110    1
    32   106   105    1
    33   110   112   ar
    34   110   111   ar
    35   112   114   ar
    36    27    28    1
    37   111   113   ar
    38   114   115   ar
    39   113   115   ar
    40    28    29    1
    41    28    31    1
    42    33    31    1
    43    29    30    2
    44   101   100    2
    45    31    32    1
    46    66    63    1
    47    90    89    2
    48   103   102    1
    49    62    63    1
    50   100    99    1
    51    99   102    1
    52    99    98    1
    53    61    60    1
    54   104   102    1
    55    63    64    1
    56    41    39    1
    57    89    98   am
    58    89    88    1
    59    40    39    1
    60    91    88    1
    61    91    92    1
    62    39    38    1
    63    96    95    1
    64    93    92    1
    65    93    94    1
    66    88    87    1
    67    64    65    2
    68    60    59   ar
    69    60    58   ar
    70    59    57   ar
    71    95    94    2
    72    95    97    1
    73    58    56   ar
    74    86    84   am
    75    38    35    1
    76    57    55   ar
    77    34    35    1
    78    35    36    1
    79    84    85    2
    80    84    83    1
    81    56    55   ar
    82    55    54    1
    83    49    47    1
    84    83    80    1
    85    71    72    1
    86    71    68    1
    87    36    37    2
    88    67    68    1
    89    54    51    1
    90    47    46    1
    91    74    72   ar
    92    74    76   ar
    93    79    80    1
    94    79    69   am
    95    72    73   ar
    96    68    69    1
    97    80    81    1
    98    53    52    2
    99    52    51    1
   100    76    77   ar
   101    69    70    2
   102    51    50    1
   103    82    81    2
   104    73    75   ar
   105    46    48    1
   106    46    43    1
   107    45    44    2
   108    42    43    1
   109    77    75   ar
   110    77    78    1
   111    43    44    1
