@<TRIPOS>MOLECULE
tmp/5i85A04.pdb
 103 102 0 0 0
SMALL
GASTEIGER

@<TRIPOS>ATOM
      1  N         -4.3150  -32.6110  -29.9170 N.3   123  ASP123     -0.1239
      2  CA        -5.5270  -32.0330  -30.5080 C.3   123  ASP123      0.1674
      3  C         -5.2140  -30.7150  -31.2230 C.2   123  ASP123      0.2266
      4  O         -5.7140  -29.6360  -30.8900 O.2   123  ASP123     -0.2867
      5  CB        -6.6070  -31.8640  -29.4370 C.3   123  ASP123      0.1410
      6  CG        -6.9870  -33.1860  -28.7910 C.2   123  ASP123      0.3668
      7  OD1       -7.8120  -33.9180  -29.3670 O.co2 123  ASP123     -0.2456
      8  OD2       -6.4320  -33.5200  -27.7200 O.co2 123  ASP123     -0.2456
      9  N         -5.7920  -30.2320  -34.5210 N.3   125  HIS125     -0.1241
     10  CA        -6.9610  -30.0280  -35.3850 C.3   125  HIS125      0.1621
     11  C         -6.7550  -28.8920  -36.3870 C.2   125  HIS125      0.2264
     12  O         -7.4330  -27.8610  -36.3520 O.2   125  HIS125     -0.2867
     13  CB        -8.2120  -29.7620  -34.5530 C.3   125  HIS125      0.0745
     14  CG        -8.7030  -30.9640  -33.8220 C.ar  125  HIS125      0.0817
     15  ND1       -9.2930  -32.0310  -34.4690 N.ar  125  HIS125     -0.2268
     16  CD2       -8.6820  -31.2790  -32.5070 C.ar  125  HIS125      0.1154
     17  CE1       -9.6190  -32.9500  -33.5790 C.ar  125  HIS125      0.1986
     18  NE2       -9.2570  -32.5190  -32.3830 N.ar  125  HIS125     -0.2212
     19  N         -5.1450  -36.4120  -33.0570 N.3   195  ASP195     -0.1239
     20  CA        -6.1590  -35.4930  -33.5690 C.3   195  ASP195      0.1674
     21  C         -5.5100  -34.4010  -34.4040 C.2   195  ASP195      0.2266
     22  O         -5.3490  -33.2580  -33.9550 O.2   195  ASP195     -0.2867
     23  CB        -7.0030  -34.9040  -32.4380 C.3   195  ASP195      0.1410
     24  CG        -8.2370  -35.7290  -32.1550 C.2   195  ASP195      0.3668
     25  OD1       -8.3350  -36.8670  -32.6680 O.co2 195  ASP195     -0.2456
     26  OD2       -9.1100  -35.2340  -31.4250 O.co2 195  ASP195     -0.2456
     27  N        -12.5440  -30.8430  -37.5650 N.3   199  HIS199     -0.1241
     28  CA       -13.8430  -31.4550  -37.3280 C.3   199  HIS199      0.1621
     29  C        -14.7820  -31.3180  -38.5230 C.2   199  HIS199      0.2264
     30  O        -15.9990  -31.4800  -38.3680 O.2   199  HIS199     -0.2867
     31  CB       -14.4790  -30.8710  -36.0670 C.3   199  HIS199      0.0745
     32  CG       -13.6730  -31.1140  -34.8310 C.ar  199  HIS199      0.0817
     33  ND1      -12.5330  -30.3970  -34.5330 N.ar  199  HIS199     -0.2268
     34  CD2      -13.8250  -32.0160  -33.8310 C.ar  199  HIS199      0.1154
     35  CE1      -12.0230  -30.8400  -33.3960 C.ar  199  HIS199      0.1986
     36  NE2      -12.7860  -31.8230  -32.9510 N.ar  199  HIS199     -0.2212
     37  N         -8.5140  -40.0350  -32.5330 N.3   235  ASN235     -0.1225
     38  CA        -9.7020  -40.5790  -33.1750 C.3   235  ASN235      0.1785
     39  C        -10.0430  -39.8840  -34.4930 C.2   235  ASN235      0.2597
     40  O        -10.8400  -40.4230  -35.2720 O.2   235  ASN235     -0.2718
     41  CB       -10.8950  -40.5090  -32.2190 C.3   235  ASN235      0.1169
     42  CG       -11.1560  -39.1090  -31.7060 C.2   235  ASN235      0.2627
     43  OD1      -10.2640  -38.4520  -31.1770 O.2   235  ASN235     -0.2716
     44  ND2      -12.3860  -38.6430  -31.8670 N.am  235  ASN235     -0.0877
     45  N         -9.4690  -38.7340  -34.7680 N.am  236  HIS236     -0.1975
     46  CA        -9.7440  -38.0310  -35.9780 C.3   236  HIS236      0.1656
     47  C         -8.8050  -38.3130  -37.1080 C.2   236  HIS236      0.2291
     48  O         -8.9690  -37.7640  -38.1190 O.2   236  HIS236     -0.2864
     49  CB        -9.7370  -36.5450  -35.7250 C.3   236  HIS236      0.0771
     50  CG       -10.9990  -36.0300  -35.1300 C.ar  236  HIS236      0.0820
     51  ND1      -11.9880  -35.4580  -35.8740 N.ar  236  HIS236     -0.2267
     52  CD2      -11.4090  -35.9540  -33.8510 C.ar  236  HIS236      0.1154
     53  CE1      -12.9600  -35.0680  -35.0920 C.ar  236  HIS236      0.1986
     54  NE2      -12.6360  -35.3640  -33.8600 N.ar  236  HIS236     -0.2212
     55  N        -12.7500  -42.6360  -20.2180 N.3   347  HIS347     -0.1241
     56  CA       -13.7840  -42.4740  -21.2380 C.3   347  HIS347      0.1621
     57  C        -13.8990  -43.6760  -22.1700 C.2   347  HIS347      0.2264
     58  O        -14.7150  -43.6460  -23.0970 O.2   347  HIS347     -0.2867
     59  CB       -13.5400  -41.2080  -22.0790 C.3   347  HIS347      0.0745
     60  CG       -13.5760  -39.9320  -21.2900 C.ar  347  HIS347      0.0817
     61  ND1      -13.9510  -38.7250  -21.8430 N.ar  347  HIS347     -0.2268
     62  CD2      -13.2710  -39.6720  -19.9950 C.ar  347  HIS347      0.1154
     63  CE1      -13.8850  -37.7810  -20.9200 C.ar  347  HIS347      0.1986
     64  NE2      -13.4730  -38.3280  -19.7900 N.ar  347  HIS347     -0.2212
     65  N         -7.5790  -35.5670  -25.8400 N.3   374  HIS374     -0.1226
     66  CA        -8.9030  -35.8280  -26.4060 C.3   374  HIS374      0.1752
     67  C        -10.0330  -34.9930  -25.7960 C.2   374  HIS374      0.2597
     68  O        -10.9340  -34.5640  -26.5290 O.2   374  HIS374     -0.2718
     69  CB        -9.2460  -37.3170  -26.3100 C.3   374  HIS374      0.0759
     70  CG       -10.6180  -37.6540  -26.8080 C.ar  374  HIS374      0.0818
     71  ND1      -10.9550  -37.6280  -28.1410 N.ar  374  HIS374     -0.2268
     72  CD2      -11.7390  -38.0240  -26.1480 C.ar  374  HIS374      0.1154
     73  CE1      -12.2230  -37.9650  -28.2830 C.ar  374  HIS374      0.1986
     74  NE2      -12.7200  -38.2120  -27.0880 N.ar  374  HIS374     -0.2212
     75  N        -10.0250  -34.7520  -24.4790 N.am  375  THR375     -0.1939
     76  CA       -11.1040  -33.9550  -23.8950 C.3   375  THR375      0.2028
     77  C        -10.9710  -32.4730  -24.2140 C.2   375  THR375      0.2642
     78  O        -11.9550  -31.7440  -24.0700 O.2   375  THR375     -0.2714
     79  CB       -11.1800  -34.1250  -22.3730 C.3   375  THR375      0.1808
     80  OG1      -10.0400  -33.5040  -21.7530 O.3   375  THR375     -0.2208
     81  CG2      -11.2560  -35.6100  -21.9880 C.3   375  THR375      0.0379
     82  N         -9.7800  -32.0180  -24.6180 N.am  376  HIS376     -0.1973
     83  CA        -9.4870  -30.6360  -25.0120 C.3   376  HIS376      0.1656
     84  C         -9.3640  -29.6980  -23.8140 C.2   376  HIS376      0.2291
     85  O         -8.8990  -28.5620  -23.9690 O.2   376  HIS376     -0.2864
     86  CB       -10.5240  -30.0790  -26.0050 C.3   376  HIS376      0.0771
     87  CG       -10.4220  -30.6490  -27.3920 C.ar  376  HIS376      0.0820
     88  ND1      -11.0500  -30.0780  -28.4780 N.ar  376  HIS376     -0.2267
     89  CD2       -9.7850  -31.7450  -27.8660 C.ar  376  HIS376      0.1154
     90  CE1      -10.8000  -30.7940  -29.5580 C.ar  376  HIS376      0.1986
     91  NE2      -10.0360  -31.8120  -29.2130 N.ar  376  HIS376     -0.2212
     92  N        -11.3940  -25.3940  -30.4590 N.3   405  TYR405     -0.1241
     93  CA       -12.6170  -26.1860  -30.4120 C.3   405  TYR405      0.1605
     94  C        -12.8640  -26.8350  -29.0430 C.2   405  TYR405      0.2264
     95  O        -12.0810  -27.6920  -28.6340 O.2   405  TYR405     -0.2867
     96  CB       -12.5250  -27.2580  -31.5010 C.3   405  TYR405      0.0534
     97  CG       -13.7940  -28.0170  -31.7800 C.ar  405  TYR405     -0.0201
     98  CD1      -14.1510  -29.1260  -31.0130 C.ar  405  TYR405     -0.0009
     99  CD2      -14.6280  -27.6420  -32.8300 C.ar  405  TYR405     -0.0009
    100  CE1      -15.3160  -29.8310  -31.2730 C.ar  405  TYR405      0.0417
    101  CE2      -15.7860  -28.3350  -33.1020 C.ar  405  TYR405      0.0417
    102  CZ       -16.1260  -29.4300  -32.3240 C.ar  405  TYR405      0.1957
    103  OH       -17.2870  -30.1190  -32.6040 O.3   405  TYR405     -0.2866
@<TRIPOS>BOND
     1    29    30    2
     2    29    28    1
     3    48    47    2
     4    27    28    1
     5    28    31    1
     6    47    46    1
     7    11    12    2
     8    11    10    1
     9    31    32    1
    10    46    49    1
    11    46    45    1
    12    51    50   ar
    13    51    53   ar
    14    49    50    1
    15    10    13    1
    16    10     9    1
    17    40    39    2
    18    50    52   ar
    19    53    54   ar
    20    32    33   ar
    21    32    34   ar
    22    45    39   am
    23    13    14    1
    24    33    35   ar
    25    39    38    1
    26    15    14   ar
    27    15    17   ar
    28    21    22    2
    29    21    20    1
    30    54    52   ar
    31    34    36   ar
    32    14    16   ar
    33    17    18   ar
    34    20    19    1
    35    20    23    1
    36    35    36   ar
    37    38    37    1
    38    38    41    1
    39   101    99   ar
    40   101   102   ar
    41    99    97   ar
    42    25    24   ar
    43   103   102    1
    44    16    18   ar
    45    23    24    1
    46   102   100   ar
    47    41    42    1
    48    24    26   ar
    49    44    42   am
    50    97    96    1
    51    97    98   ar
    52    42    43    2
    53    96    93    1
    54   100    98   ar
    55     3     4    2
    56     3     2    1
    57     2     1    1
    58     2     5    1
    59    92    93    1
    60    93    94    1
    61    90    91   ar
    62    90    88   ar
    63     5     6    1
    64     7     6   ar
    65    91    89   ar
    66    94    95    2
    67     6     8   ar
    68    88    87   ar
    69    73    71   ar
    70    73    74   ar
    71    71    70   ar
    72    89    87   ar
    73    87    86    1
    74    74    72   ar
    75    70    69    1
    76    70    72   ar
    77    68    67    2
    78    66    69    1
    79    66    65    1
    80    66    67    1
    81    86    83    1
    82    67    75   am
    83    83    82    1
    84    83    84    1
    85    82    77   am
    86    75    76    1
    87    77    78    2
    88    77    76    1
    89    85    84    2
    90    76    79    1
    91    58    57    2
    92    79    81    1
    93    79    80    1
    94    57    56    1
    95    59    60    1
    96    59    56    1
    97    61    60   ar
    98    61    63   ar
    99    60    62   ar
   100    56    55    1
   101    63    64   ar
   102    62    64   ar
