@<TRIPOS>MOLECULE
tmp/5i86B00.pdb
 122 118 0 0 0
SMALL
GASTEIGER

@<TRIPOS>ATOM
      1  N        -50.3290   -6.3960   24.2720 N.3    24  PRO24      -0.2116
      2  CA       -50.1960   -7.3680   23.1940 C.3    24  PRO24       0.1372
      3  C        -51.5020   -7.8190   22.5350 C.2    24  PRO24       0.2244
      4  O        -51.4530   -8.5550   21.5530 O.2    24  PRO24      -0.2868
      5  CB       -49.5800   -8.5720   23.9240 C.3    24  PRO24       0.0268
      6  CG       -50.1820   -8.4680   25.3070 C.3    24  PRO24       0.0207
      7  CD       -50.1560   -7.0010   25.6070 C.3    24  PRO24       0.0892
      8  N        -52.8490   -7.8510   18.5850 N.3    27  LEU27      -0.1231
      9  CA       -52.0060   -8.2490   17.4630 C.3    27  LEU27       0.1678
     10  C        -52.6420   -9.3190   16.5610 C.2    27  LEU27       0.2439
     11  O        -52.6430   -9.1450   15.3430 O.2    27  LEU27      -0.2733
     12  CB       -50.6080   -8.6290   17.9580 C.3    27  LEU27       0.0284
     13  CG       -49.6250   -7.4580   18.1340 C.3    27  LEU27       0.0019
     14  CD1      -49.0470   -6.9750   16.8140 C.3    27  LEU27       0.0001
     15  CD2      -50.0790   -6.3180   19.0340 C.3    27  LEU27       0.0001
     16  N        -53.2400  -10.3820   17.1360 N.am   28  PRO28      -0.2643
     17  CA       -53.8310  -11.4100   16.2580 C.3    28  PRO28       0.1762
     18  C        -55.0920  -10.9940   15.5120 C.2    28  PRO28       0.2641
     19  O        -55.5620  -11.7370   14.6320 O.2    28  PRO28      -0.2712
     20  CB       -54.0860  -12.6020   17.1800 C.2    28  PRO28      -0.0003
     21  CG       -53.7900  -12.1760   18.5200 C.2    28  PRO28      -0.0071
     22  CD       -53.2160  -10.8130   18.5370 C.3    28  PRO28       0.1204
     23  N        -55.6250   -9.8230   15.8610 N.am   29  PHE29      -0.1971
     24  CA       -56.8500   -9.2820   15.3100 C.3    29  PHE29       0.1640
     25  C        -56.6150   -8.1880   14.2840 C.2    29  PHE29       0.2290
     26  O        -57.5910   -7.6480   13.7300 O.2    29  PHE29      -0.2864
     27  CB       -57.7340   -8.7700   16.4560 C.3    29  PHE29       0.0560
     28  CG       -58.0760   -9.8290   17.4530 C.ar   29  PHE29      -0.0200
     29  CD1      -59.0800  -10.7440   17.1980 C.ar   29  PHE29      -0.0042
     30  CD2      -57.3640   -9.9350   18.6250 C.ar   29  PHE29      -0.0042
     31  CE1      -59.3180  -11.7760   18.0930 C.ar   29  PHE29      -0.0003
     32  CE2      -57.6470  -10.9170   19.5500 C.ar   29  PHE29      -0.0003
     33  CZ       -58.6290  -11.8280   19.2890 C.ar   29  PHE29      -0.0000
     34  N        -57.7990  -13.3100    9.2680 N.3    33  VAL33      -0.1245
     35  CA       -57.2910  -14.6420    9.5480 C.3    33  VAL33       0.1561
     36  C        -56.8880  -15.3000    8.2570 C.2    33  VAL33       0.2260
     37  O        -57.6660  -15.3520    7.3030 O.2    33  VAL33      -0.2867
     38  CB       -58.3620  -15.4890   10.2670 C.3    33  VAL33       0.0252
     39  CG1      -57.8500  -16.9100   10.4710 C.3    33  VAL33       0.0019
     40  CG2      -58.7380  -14.8590   11.5930 C.3    33  VAL33       0.0019
     41  N        -51.5650  -19.6880    9.3640 N.3    38  LEU38      -0.1245
     42  CA       -51.6800  -19.9590   10.7870 C.3    38  LEU38       0.1561
     43  C        -51.7910  -21.4350   11.1210 C.2    38  LEU38       0.2260
     44  O        -51.8020  -21.8020   12.2920 O.2    38  LEU38      -0.2867
     45  CB       -52.8830  -19.2170   11.3450 C.3    38  LEU38       0.0270
     46  CG       -52.7330  -17.6980   11.3770 C.3    38  LEU38       0.0019
     47  CD1      -53.9970  -17.0920   11.9590 C.3    38  LEU38       0.0001
     48  CD2      -51.5170  -17.2560   12.1770 C.3    38  LEU38       0.0001
     49  N        -54.3260  -23.5000   10.4890 N.3    40  ILE40      -0.1245
     50  CA       -55.6680  -23.7990   11.0440 C.3    40  ILE40       0.1561
     51  C        -56.6720  -24.0110    9.9130 C.2    40  ILE40       0.2260
     52  O        -57.6040  -23.2360    9.6850 O.2    40  ILE40      -0.2867
     53  CB       -56.1660  -22.7350   12.0490 C.3    40  ILE40       0.0252
     54  CG1      -56.0580  -21.3120   11.4770 C.3    40  ILE40       0.0019
     55  CG2      -55.3840  -22.8570   13.3410 C.3    40  ILE40       0.0019
     56  CD1      -56.6180  -20.2360   12.3860 C.3    40  ILE40       0.0001
     57  N        -60.5630  -23.4230    9.7860 N.3    43  TYR43      -0.1241
     58  CA       -61.0940  -22.1900   10.3600 C.3    43  TYR43       0.1605
     59  C        -62.3960  -21.7430    9.6780 C.2    43  TYR43       0.2264
     60  O        -63.3580  -21.4130   10.3620 O.2    43  TYR43      -0.2867
     61  CB       -60.0350  -21.0840   10.2860 C.3    43  TYR43       0.0534
     62  CG       -60.4870  -19.8060   10.9560 C.ar   43  TYR43      -0.0201
     63  CD1      -60.4560  -19.6580   12.3310 C.ar   43  TYR43      -0.0009
     64  CD2      -60.9990  -18.7580   10.2030 C.ar   43  TYR43      -0.0009
     65  CE1      -60.8840  -18.4920   12.9370 C.ar   43  TYR43       0.0417
     66  CE2      -61.4660  -17.5980   10.8090 C.ar   43  TYR43       0.0417
     67  CZ       -61.4310  -17.4750   12.1720 C.ar   43  TYR43       0.1957
     68  OH       -61.9090  -16.3280   12.7550 O.3    43  TYR43      -0.2866
     69  N        -63.6180  -15.4470   17.7870 N.3    82  ALA82      -0.1245
     70  CA       -62.4920  -15.8910   18.5790 C.3    82  ALA82       0.1562
     71  C        -62.8800  -16.7380   19.7740 C.2    82  ALA82       0.2260
     72  O        -62.2180  -17.7280   20.0950 O.2    82  ALA82      -0.2867
     73  CB       -61.6760  -14.7030   19.0200 C.3    82  ALA82       0.0290
     74  N        -63.8460  -20.2480   18.1470 N.3    85  TYR85      -0.1227
     75  CA       -62.8630  -21.1070   17.5140 C.3    85  TYR85       0.1736
     76  C        -61.8620  -21.6540   18.5100 C.2    85  TYR85       0.2595
     77  O        -61.3670  -22.7510   18.3330 O.2    85  TYR85      -0.2718
     78  CB       -62.1680  -20.3750   16.3620 C.3    85  TYR85       0.0548
     79  CG       -61.2380  -21.2740   15.5790 C.ar   85  TYR85      -0.0200
     80  CD1      -61.7200  -22.2340   14.6820 C.ar   85  TYR85      -0.0009
     81  CD2      -59.8880  -21.2310   15.8160 C.ar   85  TYR85      -0.0009
     82  CE1      -60.8660  -23.1190   14.0610 C.ar   85  TYR85       0.0417
     83  CE2      -59.0340  -22.1330   15.2130 C.ar   85  TYR85       0.0417
     84  CZ       -59.5250  -23.1010   14.3610 C.ar   85  TYR85       0.1957
     85  OH       -58.6480  -24.0210   13.7940 O.3    85  TYR85      -0.2866
     86  N        -61.4960  -20.8260   19.4800 N.am   86  ASN86      -0.1974
     87  CA       -60.3660  -21.1430   20.3470 C.3    86  ASN86       0.1688
     88  C        -60.7880  -21.6720   21.6940 C.2    86  ASN86       0.2292
     89  O        -61.8320  -21.2840   22.1980 O.2    86  ASN86      -0.2864
     90  CB       -59.5290  -19.8780   20.5520 C.3    86  ASN86       0.1181
     91  CG       -59.0670  -19.2770   19.2330 C.2    86  ASN86       0.2629
     92  OD1      -58.1250  -19.7660   18.6150 O.2    86  ASN86      -0.2716
     93  ND2      -59.7630  -18.2520   18.7760 N.am   86  ASN86      -0.0877
     94  N        -53.9950  -17.7240   24.0670 N.3    91  ARG91      -0.1231
     95  CA       -53.7930  -16.2810   24.0590 C.3    91  ARG91       0.1694
     96  C        -54.8720  -15.5770   23.2910 C.2    91  ARG91       0.2591
     97  O        -55.3150  -14.5140   23.6920 O.2    91  ARG91      -0.2718
     98  CB       -52.4560  -15.9050   23.4470 C.3    91  ARG91       0.0321
     99  CG       -51.2380  -16.3500   24.2460 C.3    91  ARG91       0.0489
    100  CD       -49.9770  -16.1090   23.4450 C.3    91  ARG91       0.2205
    101  NE       -49.9630  -17.0280   22.3200 N.pl3  91  ARG91      -0.0865
    102  CZ       -49.1390  -16.9840   21.2850 C.cat  91  ARG91       0.5346
    103  NH1      -48.2220  -16.0490   21.2260 N.pl3  91  ARG91       0.1354
    104  NH2      -49.2290  -17.9070   20.3290 N.pl3  91  ARG91       0.1354
    105  N        -55.2660  -16.1030   22.1380 N.am   92  VAL92      -0.1980
    106  CA       -56.2540  -15.3830   21.3310 C.3    92  VAL92       0.1595
    107  C        -57.5510  -15.2100   22.1080 C.2    92  VAL92       0.2287
    108  O        -58.1880  -14.1500   22.0300 O.2    92  VAL92      -0.2864
    109  CB       -56.4530  -16.0960   19.9780 C.3    92  VAL92       0.0276
    110  CG1      -57.6270  -15.5340   19.1960 C.3    92  VAL92       0.0022
    111  CG2      -55.1820  -15.9650   19.1480 C.3    92  VAL92       0.0022
    112  N        -56.9160  -12.6770   24.9620 N.3    95  PHE95      -0.1241
    113  CA       -56.7370  -11.3620   24.3410 C.3    95  PHE95       0.1605
    114  C        -58.0790  -10.8150   23.8530 C.2    95  PHE95       0.2264
    115  O        -58.3660   -9.6290   24.0350 O.2    95  PHE95      -0.2867
    116  CB       -55.7470  -11.4750   23.1760 C.3    95  PHE95       0.0534
    117  CG       -54.2920  -11.6410   23.5600 C.ar   95  PHE95      -0.0203
    118  CD1      -53.8490  -11.6950   24.8670 C.ar   95  PHE95      -0.0042
    119  CD2      -53.3470  -11.7360   22.5600 C.ar   95  PHE95      -0.0042
    120  CE1      -52.4980  -11.8370   25.1400 C.ar   95  PHE95      -0.0003
    121  CE2      -52.0060  -11.8420   22.8500 C.ar   95  PHE95      -0.0003
    122  CZ       -51.5730  -11.9230   24.1370 C.ar   95  PHE95      -0.0000
@<TRIPOS>BOND
     1    37    36    2
     2    36    35    1
     3    34    35    1
     4    41    42    1
     5    35    38    1
     6    59    58    1
     7    59    60    2
     8    52    51    2
     9    57    58    1
    10    51    50    1
    11    64    66   ar
    12    64    62   ar
    13    38    39    1
    14    38    40    1
    15    61    58    1
    16    61    62    1
    17    49    50    1
    18    42    43    1
    19    42    45    1
    20    66    67   ar
    21    62    63   ar
    22    50    53    1
    23    43    44    2
    24    45    46    1
    25    46    47    1
    26    46    48    1
    27    54    53    1
    28    54    56    1
    29    53    55    1
    30    67    68    1
    31    67    65   ar
    32    63    65   ar
    33    26    25    2
    34    85    84    1
    35    82    84   ar
    36    82    80   ar
    37    25    24    1
    38    84    83   ar
    39    19    18    2
    40    80    79   ar
    41    83    81   ar
    42    24    23    1
    43    24    27    1
    44    11    10    2
    45    18    23   am
    46    18    17    1
    47    79    81   ar
    48    79    78    1
    49    17    16    1
    50    17    20    1
    51    78    75    1
    52    27    28    1
    53    10    16   am
    54    10     9    1
    55    14    13    1
    56    16    22    1
    57    20    21    2
    58    29    28   ar
    59    29    31   ar
    60    28    30   ar
    61     9    12    1
    62     9     8    1
    63    75    74    1
    64    75    76    1
    65    69    70    1
    66    12    13    1
    67    31    33   ar
    68    13    15    1
    69    77    76    2
    70    76    86   am
    71    21    22    1
    72    70    73    1
    73    70    71    1
    74    92    91    2
    75    30    32   ar
    76    93    91   am
    77   111   109    1
    78   110   109    1
    79    91    90    1
    80    33    32   ar
    81    86    87    1
    82    71    72    2
    83   109   106    1
    84   104   102    1
    85    87    90    1
    86    87    88    1
    87   103   102    1
    88   102   101    2
    89   106   107    1
    90   106   105    1
    91     4     3    2
    92    88    89    2
    93   108   107    2
    94   105    96   am
    95   101   100    1
    96     3     2    1
    97   119   121   ar
    98   119   117   ar
    99   121   122   ar
   100   116   117    1
   101   116   113    1
   102     2     5    1
   103     2     1    1
   104    96    97    2
   105    96    95    1
   106   100    99    1
   107    98    95    1
   108    98    99    1
   109   117   118   ar
   110   114   115    2
   111   114   113    1
   112     5     6    1
   113    95    94    1
   114   122   120   ar
   115     1     7    1
   116   113   112    1
   117   118   120   ar
   118     6     7    1
