@<TRIPOS>MOLECULE
tmp/5i88A01.pdb
 173 169 0 0 0
SMALL
GASTEIGER

@<TRIPOS>ATOM
      1  N         -7.8740    2.6890   11.9980 N.3    40  TRP40      -0.1228
      2  CA        -9.1430    2.9520   12.6750 C.3    40  TRP40       0.1722
      3  C        -10.0750    1.7420   12.8100 C.2    40  TRP40       0.2437
      4  O        -10.7300    1.6230   13.8610 O.2    40  TRP40      -0.2733
      5  CB        -9.8300    4.1950   12.0880 C.3    40  TRP40       0.0563
      6  CG       -10.3550    4.0080   10.7070 C.ar   40  TRP40       0.0003
      7  CD1       -9.6920    4.2310    9.5360 C.ar   40  TRP40       0.0946
      8  CD2      -11.6510    3.5290   10.3540 C.ar   40  TRP40       0.0152
      9  NE1      -10.5050    3.9280    8.4690 N.ar   40  TRP40      -0.2442
     10  CE2      -11.7150    3.4930    8.9470 C.ar   40  TRP40       0.0810
     11  CE3      -12.7690    3.1310   11.0920 C.ar   40  TRP40       0.0012
     12  CZ2      -12.8560    3.0760    8.2640 C.ar   40  TRP40       0.0191
     13  CZ3      -13.9010    2.7140   10.4110 C.ar   40  TRP40       0.0001
     14  CH2      -13.9370    2.6960    9.0120 C.ar   40  TRP40       0.0015
     15  N        -10.2020    0.8350   11.8340 N.am   41  PRO41      -0.2718
     16  CA       -11.0720   -0.3310   12.0610 C.3    41  PRO41       0.1535
     17  C        -10.5830   -1.2200   13.1790 C.2    41  PRO41       0.2598
     18  O        -11.3430   -2.0760   13.6450 O.2    41  PRO41      -0.2715
     19  CB       -11.0390   -1.0790   10.7230 C.3    41  PRO41       0.0310
     20  CG       -10.6020   -0.0610    9.7150 C.3    41  PRO41       0.0237
     21  CD        -9.6420    0.8370   10.4690 C.3    41  PRO41       0.0939
     22  N         -9.3330   -1.0620   13.6060 N.am   42  PHE42      -0.1974
     23  CA        -8.7200   -1.9110   14.6140 C.3    42  PHE42       0.1639
     24  C         -8.6130   -1.2270   15.9680 C.2    42  PHE42       0.2290
     25  O         -8.0440   -1.8090   16.8940 O.2    42  PHE42      -0.2864
     26  CB        -7.3220   -2.3530   14.1340 C.3    42  PHE42       0.0560
     27  CG        -7.3380   -3.1050   12.8220 C.ar   42  PHE42      -0.0200
     28  CD1       -7.3050   -2.4320   11.6100 C.ar   42  PHE42      -0.0042
     29  CD2       -7.3810   -4.4880   12.8060 C.ar   42  PHE42      -0.0042
     30  CE1       -7.3280   -3.1340   10.4050 C.ar   42  PHE42      -0.0003
     31  CE2       -7.3980   -5.1870   11.6110 C.ar   42  PHE42      -0.0003
     32  CZ        -7.3700   -4.5090   10.4080 C.ar   42  PHE42      -0.0000
     33  N        -10.9980   -0.4400   18.0920 N.3    44  GLN44      -0.1231
     34  CA       -12.0370   -0.8250   19.0380 C.3    44  GLN44       0.1683
     35  C        -12.5690   -2.1860   18.6200 C.2    44  GLN44       0.2434
     36  O        -12.3260   -2.6300   17.4970 O.2    44  GLN44      -0.2733
     37  CB       -13.1740    0.2120   19.0770 C.3    44  GLN44       0.0380
     38  CG       -13.8850    0.4260   17.7320 C.3    44  GLN44       0.0905
     39  CD       -13.0470    1.1900   16.7250 C.2    44  GLN44       0.2608
     40  OE1      -12.5300    2.2720   17.0230 O.2    44  GLN44      -0.2717
     41  NE2      -12.8970    0.6310   15.5340 N.am   44  GLN44      -0.0878
     42  N        -13.3110   -2.8650   19.4930 N.am   45  PRO45      -0.2718
     43  CA       -13.8980   -4.1580   19.1100 C.3    45  PRO45       0.1535
     44  C        -14.7820   -4.0240   17.8830 C.2    45  PRO45       0.2598
     45  O        -15.3950   -2.9830   17.6390 O.2    45  PRO45      -0.2715
     46  CB       -14.7220   -4.5460   20.3410 C.3    45  PRO45       0.0310
     47  CG       -14.0020   -3.8780   21.4850 C.3    45  PRO45       0.0237
     48  CD       -13.5690   -2.5390   20.9060 C.3    45  PRO45       0.0939
     49  N        -14.8320   -5.0960   17.0920 N.am   46  VAL46      -0.1964
     50  CA       -15.7200   -5.1410   15.9340 C.3    46  VAL46       0.1727
     51  C        -17.1630   -5.0500   16.4150 C.2    46  VAL46       0.2616
     52  O        -17.6260   -5.8790   17.2110 O.2    46  VAL46      -0.2715
     53  CB       -15.4880   -6.4420   15.1510 C.3    46  VAL46       0.0290
     54  CG1      -16.5660   -6.6420   14.0730 C.3    46  VAL46       0.0023
     55  CG2      -14.0870   -6.4690   14.5430 C.3    46  VAL46       0.0023
     56  N        -17.8910   -4.0500   15.9310 N.am   47  ASP47      -0.1971
     57  CA       -19.3210   -3.9410   16.2200 C.3    47  ASP47       0.1709
     58  C        -20.0360   -4.7670   15.1600 C.2    47  ASP47       0.2293
     59  O        -20.4600   -4.2580   14.1200 O.2    47  ASP47      -0.2864
     60  CB       -19.7760   -2.4850   16.2090 C.3    47  ASP47       0.1436
     61  CG       -21.2090   -2.3220   16.6820 C.2    47  ASP47       0.3671
     62  OD1      -21.9720   -3.3180   16.6560 O.co2  47  ASP47      -0.2456
     63  OD2      -21.5780   -1.2010   17.0880 O.co2  47  ASP47      -0.2456
     64  N        -22.1830   -3.4030   11.8460 N.3    51  LEU51      -0.1245
     65  CA       -21.5850   -3.7640   10.5640 C.3    51  LEU51       0.1561
     66  C        -22.3690   -4.8480    9.8340 C.2    51  LEU51       0.2260
     67  O        -22.0130   -5.1980    8.7020 O.2    51  LEU51      -0.2867
     68  CB       -20.1300   -4.2010   10.7520 C.3    51  LEU51       0.0270
     69  CG       -19.1150   -3.1490   11.2050 C.3    51  LEU51       0.0019
     70  CD1      -17.8580   -3.8260   11.7550 C.3    51  LEU51       0.0001
     71  CD2      -18.7740   -2.2020   10.0590 C.3    51  LEU51       0.0001
     72  N        -22.5940   -8.1120   10.4920 N.3    53  LEU53      -0.1245
     73  CA       -21.8030   -9.3370   10.4010 C.3    53  LEU53       0.1561
     74  C        -22.3110  -10.3090   11.4600 C.2    53  LEU53       0.2260
     75  O        -21.6430  -10.5330   12.4770 O.2    53  LEU53      -0.2867
     76  CB       -20.3200   -9.0530   10.6340 C.3    53  LEU53       0.0270
     77  CG       -19.6750   -7.9290    9.8280 C.3    53  LEU53       0.0019
     78  CD1      -18.2540   -7.6770   10.3260 C.3    53  LEU53       0.0001
     79  CD2      -19.6730   -8.2760    8.3530 C.3    53  LEU53       0.0001
     80  N        -19.9030  -12.9890   12.8640 N.3    56  TYR56      -0.1241
     81  CA       -18.5420  -12.6340   13.2540 C.3    56  TYR56       0.1605
     82  C        -18.1280  -13.3290   14.5410 C.2    56  TYR56       0.2264
     83  O        -17.0670  -13.9610   14.6020 O.2    56  TYR56      -0.2867
     84  CB       -18.3630  -11.1220   13.3770 C.3    56  TYR56       0.0534
     85  CG       -16.9170  -10.7700   13.6280 C.ar   56  TYR56      -0.0201
     86  CD1      -16.0120  -10.6570   12.5720 C.ar   56  TYR56      -0.0009
     87  CD2      -16.4360  -10.6210   14.9200 C.ar   56  TYR56      -0.0009
     88  CE1      -14.6850  -10.3660   12.8070 C.ar   56  TYR56       0.0417
     89  CE2      -15.1070  -10.3270   15.1650 C.ar   56  TYR56       0.0417
     90  CZ       -14.2340  -10.2070   14.1110 C.ar   56  TYR56       0.1957
     91  OH       -12.9140   -9.9260   14.3680 O.3    56  TYR56      -0.2866
     92  N         -9.8370   -9.4590   19.7040 N.3    64  MET64      -0.1230
     93  CA        -8.8390   -8.5540   20.2390 C.3    64  MET64       0.1702
     94  C         -8.7650   -7.3500   19.3170 C.2    64  MET64       0.2592
     95  O         -9.0360   -7.4530   18.1160 O.2    64  MET64      -0.2718
     96  CB        -7.4860   -9.2580   20.3700 C.3    64  MET64       0.0401
     97  CG        -6.4040   -8.4570   21.0870 C.3    64  MET64       0.0596
     98  SD        -6.9040   -7.7150   22.6570 S.3    64  MET64      -0.1393
     99  CE        -7.3430   -9.1670   23.6210 C.3    64  MET64       0.0692
    100  N         -8.4150   -6.2040   19.8930 N.am   65  ASP65      -0.1974
    101  CA        -8.3240   -4.9740   19.1180 C.3    65  ASP65       0.1709
    102  C         -7.3030   -4.0530   19.7780 C.2    65  ASP65       0.2293
    103  O         -6.9190   -4.2490   20.9330 O.2    65  ASP65      -0.2864
    104  CB        -9.6860   -4.2940   19.0690 C.3    65  ASP65       0.1436
    105  CG       -10.1380   -3.8580   20.4370 C.2    65  ASP65       0.3671
    106  OD1      -10.6720   -4.7000   21.2000 O.co2  65  ASP65      -0.2456
    107  OD2       -9.9010   -2.6790   20.7750 O.co2  65  ASP65      -0.2456
    108  N         -5.0770  -10.4450   17.0790 N.3    91  MET91      -0.1245
    109  CA        -5.8290   -9.5170   16.2440 C.3    91  MET91       0.1570
    110  C         -5.5660   -9.7710   14.7590 C.2    91  MET91       0.2261
    111  O         -6.5000   -9.8630   13.9510 O.2    91  MET91      -0.2867
    112  CB        -5.4660   -8.0820   16.6230 C.3    91  MET91       0.0387
    113  CG        -6.2500   -7.0580   15.8490 C.3    91  MET91       0.0595
    114  SD        -5.7470   -5.3820   16.3040 S.3    91  MET91      -0.1393
    115  CE        -4.2040   -5.2590   15.3810 C.3    91  MET91       0.0692
    116  N         -7.0500  -13.2170   13.6600 N.3    94  ASN94      -0.1225
    117  CA        -8.5050  -13.1680   13.5340 C.3    94  ASN94       0.1785
    118  C         -8.9120  -12.5870   12.1900 C.2    94  ASN94       0.2597
    119  O         -9.8390  -13.0800   11.5380 O.2    94  ASN94      -0.2718
    120  CB        -9.1020  -12.2910   14.6290 C.3    94  ASN94       0.1169
    121  CG        -9.0960  -12.9450   15.9880 C.2    94  ASN94       0.2627
    122  OD1       -8.9660  -14.1600   16.1190 O.2    94  ASN94      -0.2716
    123  ND2       -9.2610  -12.1280   17.0160 N.am   94  ASN94      -0.0877
    124  N         -8.2500  -11.4990   11.7790 N.am   95  CYS95      -0.1970
    125  CA        -8.6070  -10.8420   10.5280 C.3    95  CYS95       0.1712
    126  C         -8.3790  -11.7780    9.3500 C.2    95  CYS95       0.2296
    127  O         -9.2070  -11.8560    8.4330 O.2    95  CYS95      -0.2864
    128  CB        -7.7820   -9.5670   10.3820 C.3    95  CYS95       0.0983
    129  SG        -8.2810   -8.5210    9.0130 S.3    95  CYS95      -0.0798
    130  N        -11.2480  -14.6540    9.4890 N.3    98  TYR98      -0.1227
    131  CA       -12.6470  -14.3310    9.2090 C.3    98  TYR98       0.1736
    132  C        -12.8720  -13.8730    7.7700 C.2    98  TYR98       0.2595
    133  O        -13.9120  -14.1810    7.1760 O.2    98  TYR98      -0.2718
    134  CB       -13.1770  -13.2830   10.1960 C.3    98  TYR98       0.0548
    135  CG       -14.6030  -12.9020    9.8820 C.ar   98  TYR98      -0.0200
    136  CD1      -15.6600  -13.7250   10.2520 C.ar   98  TYR98      -0.0009
    137  CD2      -14.8930  -11.7420    9.1800 C.ar   98  TYR98      -0.0009
    138  CE1      -16.9670  -13.3950    9.9300 C.ar   98  TYR98       0.0417
    139  CE2      -16.1970  -11.4030    8.8530 C.ar   98  TYR98       0.0417
    140  CZ       -17.2260  -12.2290    9.2270 C.ar   98  TYR98       0.1957
    141  OH       -18.5170  -11.8750    8.8990 O.3    98  TYR98      -0.2866
    142  N        -11.9190  -13.1540    7.1890 N.am   99  ASN99      -0.1974
    143  CA       -12.1270  -12.4680    5.9240 C.3    99  ASN99       0.1688
    144  C        -11.5190  -13.2290    4.7490 C.2    99  ASN99       0.2292
    145  O        -10.5990  -14.0350    4.9030 O.2    99  ASN99      -0.2864
    146  CB       -11.5290  -11.0650    6.0010 C.3    99  ASN99       0.1181
    147  CG       -12.1490  -10.2370    7.1040 C.2    99  ASN99       0.2629
    148  OD1      -13.2580   -9.7160    6.9540 O.2    99  ASN99      -0.2716
    149  ND2      -11.4380  -10.1060    8.2180 N.am   99  ASN99      -0.0877
    150  N        -10.1140   -5.8680    1.3530 N.3   104  ASP104     -0.1225
    151  CA        -9.4360   -4.6540    1.7920 C.3   104  ASP104      0.1805
    152  C         -9.0040   -4.7440    3.2500 C.2   104  ASP104      0.2597
    153  O         -7.8780   -4.3620    3.5940 O.2   104  ASP104     -0.2718
    154  CB       -10.3240   -3.4330    1.5870 C.3   104  ASP104      0.1424
    155  CG       -10.2640   -2.9090    0.1790 C.2   104  ASP104      0.3668
    156  OD1       -9.4580   -3.4220   -0.6280 O.co2 104  ASP104     -0.2456
    157  OD2      -11.0200   -1.9720   -0.1160 O.co2 104  ASP104     -0.2456
    158  N         -9.8840   -5.2330    4.1290 N.am  105  ILE105     -0.1980
    159  CA        -9.5260   -5.2680    5.5470 C.3   105  ILE105      0.1595
    160  C         -8.3090   -6.1560    5.7730 C.2   105  ILE105      0.2287
    161  O         -7.4880   -5.8870    6.6580 O.2   105  ILE105     -0.2864
    162  CB       -10.7270   -5.6710    6.4310 C.3   105  ILE105      0.0276
    163  CG1      -10.4310   -5.3590    7.9030 C.3   105  ILE105      0.0022
    164  CG2      -11.0760   -7.1480    6.2410 C.3   105  ILE105      0.0022
    165  CD1      -10.5170   -3.9000    8.2350 C.3   105  ILE105      0.0001
    166  N         -5.2710   -4.2100    4.8120 N.3   108  MET108     -0.1245
    167  CA        -4.9810   -3.2550    5.8740 C.3   108  MET108      0.1570
    168  C         -4.2660   -3.9350    7.0320 C.2   108  MET108      0.2261
    169  O         -3.2470   -3.4380    7.5230 O.2   108  MET108     -0.2867
    170  CB        -6.2710   -2.5860    6.3480 C.3   108  MET108      0.0387
    171  CG        -6.9450   -1.7620    5.2670 C.3   108  MET108      0.0595
    172  SD        -8.5810   -1.1790    5.7430 S.3   108  MET108     -0.1393
    173  CE        -8.1760    0.1860    6.8230 C.3   108  MET108      0.0692
@<TRIPOS>BOND
     1   156   155   ar
     2   157   155   ar
     3   155   154    1
     4   150   151    1
     5   154   151    1
     6   151   152    1
     7   152   153    2
     8   152   158   am
     9   158   159    1
    10   144   145    2
    11   144   143    1
    12   166   167    1
    13   171   172    1
    14   171   170    1
    15   159   160    1
    16   159   162    1
    17   172   173    1
    18   160   161    2
    19   167   170    1
    20   167   168    1
    21   143   146    1
    22   143   142    1
    23   146   147    1
    24   164   162    1
    25   162   163    1
    26   148   147    2
    27   168   169    2
    28   147   149   am
    29   133   132    2
    30   142   132   am
    31   132   131    1
    32   163   165    1
    33    12    10   ar
    34    12    14   ar
    35    79    77    1
    36   127   126    2
    37     9    10   ar
    38     9     7   ar
    39    67    66    2
    40   139   137   ar
    41   139   140   ar
    42   141   140    1
    43    10     8   ar
    44    14    13   ar
    45   129   128    1
    46   137   135   ar
    47   131   130    1
    48   131   134    1
    49   140   138   ar
    50   126   125    1
    51     7     6   ar
    52    20    21    1
    53    20    19    1
    54    77    78    1
    55    77    76    1
    56    66    65    1
    57   135   134    1
    58   135   136   ar
    59   138   136   ar
    60    71    69    1
    61     8     6   ar
    62     8    11   ar
    63   128   125    1
    64    73    72    1
    65    73    76    1
    66    73    74    1
    67    30    32   ar
    68    30    28   ar
    69    32    31   ar
    70    13    11   ar
    71    21    15    1
    72   125   124    1
    73    65    68    1
    74    65    64    1
    75     6     5    1
    76    19    16    1
    77    68    69    1
    78    69    70    1
    79    74    75    2
    80   119   118    2
    81    28    27   ar
    82    31    29   ar
    83   124   118   am
    84    15    16    1
    85    15     3   am
    86     1     2    1
    87    16    17    1
    88     5     2    1
    89   118   117    1
    90    86    88   ar
    91    86    85   ar
    92     2     3    1
    93    29    27   ar
    94    88    90   ar
    95     3     4    2
    96    27    26    1
    97    80    81    1
    98    17    22   am
    99    17    18    2
   100    81    84    1
   101    81    82    1
   102    84    85    1
   103   117   116    1
   104   117   120    1
   105    22    23    1
   106    85    87   ar
   107   111   110    2
   108    54    53    1
   109    90    91    1
   110    90    89   ar
   111    59    58    2
   112    26    23    1
   113    82    83    2
   114    55    53    1
   115    23    24    1
   116   120   121    1
   117   110   109    1
   118    87    89   ar
   119    53    50    1
   120    58    57    1
   121   115   114    1
   122    41    39   am
   123   113   114    1
   124   113   112    1
   125    56    57    1
   126    56    51   am
   127    50    51    1
   128    50    49    1
   129    24    25    2
   130   121   122    2
   131   121   123   am
   132    60    57    1
   133    60    61    1
   134   109   112    1
   135   109   108    1
   136    51    52    2
   137    62    61   ar
   138    61    63   ar
   139    39    40    2
   140    39    38    1
   141    49    44   am
   142    36    35    2
   143    45    44    2
   144    38    37    1
   145    44    43    1
   146    33    34    1
   147    95    94    2
   148    35    34    1
   149    35    42   am
   150    34    37    1
   151   104   101    1
   152   104   105    1
   153    43    42    1
   154    43    46    1
   155   101   102    1
   156   101   100    1
   157    94   100   am
   158    94    93    1
   159    42    48    1
   160    92    93    1
   161   102   103    2
   162    93    96    1
   163    46    47    1
   164    96    97    1
   165   105   107   ar
   166   105   106   ar
   167    48    47    1
   168    97    98    1
   169    98    99    1
