@<TRIPOS>MOLECULE
tmp/5i89A00.pdb
 131 126 0 0 0
SMALL
GASTEIGER

@<TRIPOS>ATOM
      1  N        -26.8810   -0.8660   14.2550 N.3    24  PRO24      -0.2116
      2  CA       -25.8860   -0.7490   15.3100 C.3    24  PRO24       0.1372
      3  C        -25.3590   -2.0850   15.8320 C.2    24  PRO24       0.2244
      4  O        -24.5320   -2.0880   16.7460 O.2    24  PRO24      -0.2868
      5  CB       -26.6560   -0.0530   16.4260 C.3    24  PRO24       0.0268
      6  CG       -28.0440   -0.5770   16.2630 C.3    24  PRO24       0.0207
      7  CD       -28.2430   -0.6020   14.7670 C.3    24  PRO24       0.0892
      8  N        -21.6870   -3.4160   16.7560 N.3    27  LEU27      -0.1231
      9  CA       -20.7820   -2.5670   17.5190 C.3    27  LEU27       0.1678
     10  C        -20.1160   -3.2660   18.7080 C.2    27  LEU27       0.2434
     11  O        -18.9170   -3.1100   18.9040 O.2    27  LEU27      -0.2733
     12  CB       -21.4980   -1.2990   17.9740 C.3    27  LEU27       0.0284
     13  CG       -21.7420   -0.3020   16.8450 C.3    27  LEU27       0.0019
     14  CD1      -22.7070    0.7940   17.2750 C.3    27  LEU27       0.0001
     15  CD2      -20.4090    0.2820   16.4160 C.3    27  LEU27       0.0001
     16  N        -20.8760   -4.0360   19.5050 N.am   28  PRO28      -0.2718
     17  CA       -20.2490   -4.7000   20.6540 C.3    28  PRO28       0.1535
     18  C        -19.2320   -5.7670   20.2840 C.2    28  PRO28       0.2598
     19  O        -18.5300   -6.2380   21.1760 O.2    28  PRO28      -0.2715
     20  CB       -21.4340   -5.3540   21.3810 C.3    28  PRO28       0.0310
     21  CG       -22.6250   -4.5670   20.9540 C.3    28  PRO28       0.0237
     22  CD       -22.3370   -4.2090   19.5210 C.3    28  PRO28       0.0939
     23  N        -19.2260   -6.1850   19.0160 N.am   29  PHE29      -0.1974
     24  CA       -18.5720   -7.4150   18.5880 C.3    29  PHE29       0.1639
     25  C        -17.3880   -7.1570   17.6600 C.2    29  PHE29       0.2290
     26  O        -16.7280   -8.1070   17.2480 O.2    29  PHE29      -0.2864
     27  CB       -19.5890   -8.3260   17.9080 C.3    29  PHE29       0.0560
     28  CG       -20.7760   -8.6190   18.7800 C.ar   29  PHE29      -0.0200
     29  CD1      -20.6540   -9.4640   19.8620 C.ar   29  PHE29      -0.0042
     30  CD2      -21.9850   -7.9920   18.5770 C.ar   29  PHE29      -0.0042
     31  CE1      -21.7020   -9.6470   20.7440 C.ar   29  PHE29      -0.0003
     32  CE2      -23.0550   -8.2160   19.4270 C.ar   29  PHE29      -0.0003
     33  CZ       -22.9130   -9.0330   20.5170 C.ar   29  PHE29      -0.0000
     34  N        -14.5090   -5.7060   18.2970 N.3    31  GLN31      -0.1245
     35  CA       -13.2000   -5.7110   18.9490 C.3    31  GLN31       0.1566
     36  C        -13.2560   -6.7130   20.0860 C.2    31  GLN31       0.2260
     37  O        -14.3340   -6.9820   20.6150 O.2    31  GLN31      -0.2867
     38  CB       -12.8640   -4.3120   19.4910 C.3    31  GLN31       0.0367
     39  CG       -13.8910   -3.7720   20.4910 C.3    31  GLN31       0.0905
     40  CD       -15.1940   -3.3350   19.8390 C.2    31  GLN31       0.2608
     41  OE1      -15.1830   -2.5740   18.8660 O.2    31  GLN31      -0.2717
     42  NE2      -16.3120   -3.8920   20.3000 N.am   31  GLN31      -0.0878
     43  N        -13.2760   -8.1720   23.7830 N.3    33  VAL33      -0.1245
     44  CA       -13.7670   -7.6450   25.0480 C.3    33  VAL33       0.1561
     45  C        -12.5900   -7.2510   25.9340 C.2    33  VAL33       0.2260
     46  O        -11.6770   -8.0490   26.1490 O.2    33  VAL33      -0.2867
     47  CB       -14.6310   -8.7020   25.7540 C.3    33  VAL33       0.0252
     48  CG1      -15.0860   -8.2170   27.1250 C.3    33  VAL33       0.0019
     49  CG2      -15.8340   -9.0650   24.8980 C.3    33  VAL33       0.0019
     50  N        -14.5030   -1.8780   30.0120 N.3    38  LEU38      -0.1245
     51  CA       -15.9640   -1.9540   29.9920 C.3    38  LEU38       0.1561
     52  C        -16.5870   -2.0020   31.3890 C.2    38  LEU38       0.2260
     53  O        -17.8110   -1.9970   31.5190 O.2    38  LEU38      -0.2867
     54  CB       -16.3980   -3.1860   29.2040 C.3    38  LEU38       0.0270
     55  CG       -16.0830   -3.1350   27.7080 C.3    38  LEU38       0.0019
     56  CD1      -16.4210   -4.4680   27.0650 C.3    38  LEU38       0.0001
     57  CD2      -16.8290   -2.0020   27.0290 C.3    38  LEU38       0.0001
     58  N        -16.5180   -4.5820   33.5410 N.3    40  ILE40      -0.1245
     59  CA       -17.1160   -5.8900   33.7730 C.3    40  ILE40       0.1561
     60  C        -16.0480   -6.8920   34.2260 C.2    40  ILE40       0.2260
     61  O        -15.6970   -7.8300   33.5150 O.2    40  ILE40      -0.2867
     62  CB       -17.8980   -6.4000   32.5370 C.3    40  ILE40       0.0252
     63  CG1      -17.0560   -6.3400   31.2550 C.3    40  ILE40       0.0019
     64  CG2      -19.1710   -5.5920   32.3560 C.3    40  ILE40       0.0019
     65  CD1      -17.7720   -6.9040   30.0400 C.3    40  ILE40       0.0001
     66  N        -15.8260  -10.7970   33.7060 N.3    43  TYR43      -0.1241
     67  CA       -16.1290  -11.3360   32.3840 C.3    43  TYR43       0.1605
     68  C        -15.3730  -12.6290   32.0910 C.2    43  TYR43       0.2264
     69  O        -15.9830  -13.6040   31.6480 O.2    43  TYR43      -0.2867
     70  CB       -15.8680  -10.3030   31.2920 C.3    43  TYR43       0.0534
     71  CG       -16.2510  -10.7730   29.9030 C.ar   43  TYR43      -0.0201
     72  CD1      -17.5640  -10.7050   29.4610 C.ar   43  TYR43      -0.0009
     73  CD2      -15.3010  -11.3060   29.0480 C.ar   43  TYR43      -0.0009
     74  CE1      -17.9240  -11.1820   28.2100 C.ar   43  TYR43       0.0417
     75  CE2      -15.6440  -11.7650   27.7910 C.ar   43  TYR43       0.0417
     76  CZ       -16.9560  -11.7190   27.3810 C.ar   43  TYR43       0.1957
     77  OH       -17.2800  -12.2110   26.1380 O.3    43  TYR43      -0.2866
     78  N        -22.1080  -14.0620   24.2940 N.3    82  ALA82      -0.1245
     79  CA       -22.9590  -12.9170   24.5450 C.3    82  ALA82       0.1562
     80  C        -24.2780  -13.3290   25.1940 C.2    82  ALA82       0.2260
     81  O        -24.7700  -12.6430   26.0940 O.2    82  ALA82      -0.2867
     82  CB       -23.2200  -12.1440   23.2660 C.3    82  ALA82       0.0290
     83  N        -23.2990  -14.2110   28.9510 N.3    85  TYR85      -0.1227
     84  CA       -22.8510  -13.1920   29.8900 C.3    85  TYR85       0.1736
     85  C        -23.9390  -12.1560   30.1770 C.2    85  TYR85       0.2595
     86  O        -23.9900  -11.6090   31.2780 O.2    85  TYR85      -0.2718
     87  CB       -21.5800  -12.5060   29.3880 C.3    85  TYR85       0.0548
     88  CG       -21.0140  -11.5430   30.3980 C.ar   85  TYR85      -0.0200
     89  CD1      -20.3750  -12.0180   31.5310 C.ar   85  TYR85      -0.0009
     90  CD2      -21.2420  -10.1780   30.3010 C.ar   85  TYR85      -0.0009
     91  CE1      -19.9690  -11.1630   32.5400 C.ar   85  TYR85       0.0417
     92  CE2      -20.8530   -9.3160   31.3120 C.ar   85  TYR85       0.0417
     93  CZ       -20.2260   -9.8130   32.4350 C.ar   85  TYR85       0.1957
     94  OH       -19.8890   -8.9570   33.4660 O.3    85  TYR85      -0.2866
     95  N        -24.7470  -11.8300   29.1680 N.am   86  ASN86      -0.1974
     96  CA       -25.6680  -10.6970   29.2570 C.3    86  ASN86       0.1688
     97  C        -27.0750  -11.1760   29.5360 C.2    86  ASN86       0.2292
     98  O        -27.4800  -12.2450   29.0990 O.2    86  ASN86      -0.2864
     99  CB       -25.6360   -9.9120   27.9510 C.3    86  ASN86       0.1181
    100  CG       -24.2400   -9.4370   27.6160 C.2    86  ASN86       0.2629
    101  OD1      -23.7440   -8.4720   28.1890 O.2    86  ASN86      -0.2716
    102  ND2      -23.5700  -10.1680   26.7370 N.am   86  ASN86      -0.0877
    103  N        -28.8680   -4.4950   25.3180 N.3    91  ARG91      -0.1231
    104  CA       -28.6010   -4.2660   23.9120 C.3    91  ARG91       0.1694
    105  C        -27.6850   -5.3420   23.3810 C.2    91  ARG91       0.2591
    106  O        -27.8200   -5.7440   22.2300 O.2    91  ARG91      -0.2718
    107  CB       -27.9410   -2.9010   23.6360 C.3    91  ARG91       0.0321
    108  CG       -28.8150   -1.6890   23.8630 C.3    91  ARG91       0.0489
    109  CD       -28.0120   -0.4040   23.7790 C.3    91  ARG91       0.2205
    110  NE       -27.0670   -0.3400   24.8820 N.pl3  91  ARG91      -0.0865
    111  CZ       -26.0650    0.5310   24.9860 C.cat  91  ARG91       0.5346
    112  NH1      -25.3380    0.5430   26.0890 N.pl3  91  ARG91       0.1354
    113  NH2      -25.9130    1.5010   24.0940 N.pl3  91  ARG91       0.1354
    114  N        -26.6550   -5.7090   24.1370 N.am   92  VAL92      -0.1980
    115  CA       -25.6810   -6.6440   23.6170 C.3    92  VAL92       0.1595
    116  C        -26.3390   -7.9830   23.2820 C.2    92  VAL92       0.2287
    117  O        -26.0350   -8.5990   22.2590 O.2    92  VAL92      -0.2864
    118  CB       -24.5130   -6.8110   24.6030 C.3    92  VAL92       0.0276
    119  CG1      -23.5440   -7.8740   24.1240 C.3    92  VAL92       0.0022
    120  CG2      -23.8110   -5.4820   24.8080 C.3    92  VAL92       0.0022
    121  N        -28.6220   -7.4000   20.1930 N.3    95  PHE95      -0.1241
    122  CA       -27.7670   -7.2110   19.0300 C.3    95  PHE95       0.1605
    123  C        -27.1510   -8.5460   18.5810 C.2    95  PHE95       0.2264
    124  O        -27.0640   -8.8220   17.3850 O.2    95  PHE95      -0.2867
    125  CB       -26.6830   -6.1930   19.3510 C.3    95  PHE95       0.0534
    126  CG       -27.1570   -4.7510   19.4500 C.ar   95  PHE95      -0.0203
    127  CD1      -28.4760   -4.3590   19.2470 C.ar   95  PHE95      -0.0042
    128  CD2      -26.2190   -3.7600   19.7100 C.ar   95  PHE95      -0.0042
    129  CE1      -28.8160   -3.0170   19.2860 C.ar   95  PHE95      -0.0003
    130  CE2      -26.5670   -2.4280   19.7870 C.ar   95  PHE95      -0.0003
    131  CZ       -27.8680   -2.0560   19.5690 C.ar   95  PHE95      -0.0000
@<TRIPOS>BOND
     1     1     7    1
     2     1     2    1
     3     7     6    1
     4     2     3    1
     5     2     5    1
     6     3     4    2
     7     6     5    1
     8    15    13    1
     9     8     9    1
    10    13    14    1
    11    13    12    1
    12    26    25    2
    13   124   123    2
    14     9    12    1
    15     9    10    1
    16    25    24    1
    17    27    24    1
    18    27    28    1
    19    34    35    1
    20    30    28   ar
    21    30    32   ar
    22   123   122    1
    23    24    23    1
    24    10    11    2
    25    10    16   am
    26    28    29   ar
    27    41    40    2
    28    35    38    1
    29    35    36    1
    30    23    18   am
    31   122   125    1
    32   122   121    1
    33   127   129   ar
    34   127   126   ar
    35   129   131   ar
    36   125   126    1
    37    32    33   ar
    38   126   128   ar
    39    38    39    1
    40    16    22    1
    41    16    17    1
    42    22    21    1
    43   131   130   ar
    44   128   130   ar
    45    40    42   am
    46    40    39    1
    47    29    31   ar
    48    36    37    2
    49    18    17    1
    50    18    19    2
    51    33    31   ar
    52    17    20    1
    53    21    20    1
    54   106   105    2
    55   117   116    2
    56    82    79    1
    57   116   115    1
    58   105   104    1
    59   105   114   am
    60   115   114    1
    61   115   118    1
    62   107   108    1
    63   107   104    1
    64   109   108    1
    65   109   110    1
    66    43    44    1
    67   104   103    1
    68   113   111    1
    69   119   118    1
    70    78    79    1
    71    79    80    1
    72   118   120    1
    73   110   111    2
    74    49    47    1
    75   111   112    1
    76    44    47    1
    77    44    45    1
    78    80    81    2
    79    47    48    1
    80    45    46    2
    81    77    76    1
    82   102   100   am
    83    57    55    1
    84    56    55    1
    85    76    75   ar
    86    76    74   ar
    87   100    99    1
    88   100   101    2
    89    55    54    1
    90    75    73   ar
    91    99    96    1
    92    74    72   ar
    93    83    84    1
    94    73    71   ar
    95    98    97    2
    96    95    96    1
    97    95    85   am
    98    54    51    1
    99    96    97    1
   100    87    84    1
   101    87    88    1
   102    72    71   ar
   103    84    85    1
   104    71    70    1
   105    51    50    1
   106    51    52    1
   107    65    63    1
   108    85    86    2
   109    90    88   ar
   110    90    92   ar
   111    88    89   ar
   112    63    62    1
   113    70    67    1
   114    92    93   ar
   115    52    53    2
   116    89    91   ar
   117    69    68    2
   118    68    67    1
   119    64    62    1
   120    67    66    1
   121    93    91   ar
   122    93    94    1
   123    62    59    1
   124    61    60    2
   125    58    59    1
   126    59    60    1
