@<TRIPOS>MOLECULE
tmp/5i8aA00.pdb
 157 151 0 0 0
SMALL
GASTEIGER

@<TRIPOS>ATOM
      1  N         22.7490  -37.9350   -6.6100 N.3    16  LEU16      -0.1231
      2  CA        22.9520  -36.6250   -5.9850 C.3    16  LEU16       0.1693
      3  C         22.6290  -35.4310   -6.8980 C.2    16  LEU16       0.2593
      4  O         22.2750  -34.3600   -6.3980 O.2    16  LEU16      -0.2718
      5  CB        24.3880  -36.4960   -5.4280 C.3    16  LEU16       0.0284
      6  CG        24.8200  -37.4650   -4.3180 C.3    16  LEU16       0.0019
      7  CD1       26.3190  -37.3720   -4.0860 C.3    16  LEU16       0.0001
      8  CD2       24.0760  -37.2050   -3.0180 C.3    16  LEU16       0.0001
      9  N         22.7760  -35.6240   -8.2080 N.am   17  GLY17      -0.1942
     10  CA        22.5350  -34.5920   -9.2140 C.3    17  GLY17       0.2014
     11  C         23.2590  -34.8660  -10.5160 C.2    17  GLY17       0.2638
     12  O         24.1480  -35.7240  -10.5620 O.2    17  GLY17      -0.2714
     13  N         22.8810  -34.1330  -11.5910 N.am   18  GLU18      -0.1977
     14  CA        23.4790  -34.2740  -12.9240 C.3    18  GLU18       0.1602
     15  C         24.1030  -32.9710  -13.4080 C.2    18  GLU18       0.2287
     16  O         25.2970  -32.9320  -13.6980 O.2    18  GLU18      -0.2864
     17  CB        22.4530  -34.8000  -13.9430 C.3    18  GLU18       0.0415
     18  CG        22.3040  -36.3130  -13.9270 C.3    18  GLU18       0.1163
     19  CD        21.1460  -36.9050  -14.7130 C.2    18  GLU18       0.3649
     20  OE1       20.3470  -36.1330  -15.2940 O.co2  18  GLU18      -0.2457
     21  OE2       21.0350  -38.1520  -14.7410 O.co2  18  GLU18      -0.2457
     22  N         26.1560  -38.3280  -10.7780 N.3    21  VAL21      -0.1245
     23  CA        26.9410  -38.4140   -9.5360 C.3    21  VAL21       0.1561
     24  C         26.0740  -39.0670   -8.4470 C.2    21  VAL21       0.2260
     25  O         25.0070  -38.5440   -8.1240 O.2    21  VAL21      -0.2867
     26  CB        27.5830  -37.0810   -9.0620 C.3    21  VAL21       0.0252
     27  CG1       28.4830  -37.3140   -7.8430 C.3    21  VAL21       0.0019
     28  CG2       28.3820  -36.4230  -10.1830 C.3    21  VAL21       0.0019
     29  N         31.3360  -40.4000   -3.0100 N.3    33  ALA33      -0.1245
     30  CA        30.5830  -39.8020   -4.1080 C.3    33  ALA33       0.1562
     31  C         31.2170  -40.3840   -5.3700 C.2    33  ALA33       0.2260
     32  O         32.4340  -40.3250   -5.5390 O.2    33  ALA33      -0.2867
     33  CB        30.6950  -38.2900   -4.0960 C.3    33  ALA33       0.0290
     34  N         38.8400  -31.4220   -2.8960 N.3    56  VAL56      -0.1245
     35  CA        38.0800  -32.6520   -2.6410 C.3    56  VAL56       0.1561
     36  C         38.9890  -33.8800   -2.9350 C.2    56  VAL56       0.2260
     37  O         39.6580  -33.9060   -3.9770 O.2    56  VAL56      -0.2867
     38  CB        36.7080  -32.7060   -3.4020 C.3    56  VAL56       0.0252
     39  CG1       36.8920  -32.7040   -4.9270 C.3    56  VAL56       0.0019
     40  CG2       35.8810  -33.9210   -2.9780 C.3    56  VAL56       0.0019
     41  N         35.2330  -40.1500   -5.2680 N.3    72  PHE72      -0.1227
     42  CA        35.5900  -38.9850   -4.4450 C.3    72  PHE72       0.1736
     43  C         35.0660  -39.1470   -3.0380 C.2    72  PHE72       0.2598
     44  O         34.1200  -39.9160   -2.8210 O.2    72  PHE72      -0.2717
     45  CB        34.9650  -37.6960   -5.0370 C.3    72  PHE72       0.0547
     46  CG        35.4620  -37.2990   -6.4090 C.ar   72  PHE72      -0.0202
     47  CD1       34.9150  -37.8640   -7.5560 C.ar   72  PHE72      -0.0042
     48  CD2       36.4770  -36.3600   -6.5530 C.ar   72  PHE72      -0.0042
     49  CE1       35.3800  -37.5000   -8.8250 C.ar   72  PHE72      -0.0003
     50  CE2       36.9410  -35.9930   -7.8200 C.ar   72  PHE72      -0.0003
     51  CZ        36.3900  -36.5680   -8.9470 C.ar   72  PHE72      -0.0000
     52  N         35.6540  -38.3950   -2.0700 N.am   73  GLU73      -0.1920
     53  CA        35.1620  -38.4100   -0.6870 C.3    73  GLU73       0.1949
     54  C         33.7340  -37.8050   -0.6870 C.2    73  GLU73       0.2659
     55  O         33.4020  -36.9880   -1.5610 O.2    73  GLU73      -0.2711
     56  CB        36.1020  -37.6280    0.2610 C.2    73  GLU73       0.0111
     57  CG        36.0160  -36.1060    0.1670 C.2    73  GLU73       0.0838
     58  CD        37.0140  -35.3300    1.0090 C.2    73  GLU73       0.3877
     59  OE1       37.0160  -35.4880    2.2500 O.co2  73  GLU73      -0.2406
     60  OE2       37.7920  -34.5490    0.4230 O.co2  73  GLU73      -0.2406
     61  N         32.8970  -38.2240    0.2660 N.am   74  TYR74      -0.1957
     62  CA        31.5360  -37.7060    0.3800 C.3    74  TYR74       0.1771
     63  C         31.5740  -36.4410    1.2530 C.2    74  TYR74       0.2619
     64  O         32.1320  -36.4780    2.3560 O.2    74  TYR74      -0.2715
     65  CB        30.5830  -38.7500    0.9920 C.3    74  TYR74       0.0574
     66  CG        29.1460  -38.2790    1.0360 C.ar   74  TYR74      -0.0198
     67  CD1       28.5160  -37.7930   -0.1090 C.ar   74  TYR74      -0.0009
     68  CD2       28.4230  -38.2920    2.2240 C.ar   74  TYR74      -0.0009
     69  CE1       27.1990  -37.3400   -0.0740 C.ar   74  TYR74       0.0417
     70  CE2       27.0940  -37.8550    2.2680 C.ar   74  TYR74       0.0417
     71  CZ        26.4890  -37.3770    1.1150 C.ar   74  TYR74       0.1957
     72  OH        25.1850  -36.9430    1.1340 O.3    74  TYR74      -0.2866
     73  N         31.0030  -35.3270    0.7480 N.am   75  MET75      -0.1963
     74  CA        30.9500  -34.0340    1.4660 C.3    75  MET75       0.1736
     75  C         29.4880  -33.8360    1.8510 C.2    75  MET75       0.2616
     76  O         28.6860  -33.3800    1.0300 O.2    75  MET75      -0.2715
     77  CB        31.4960  -32.8890    0.5790 C.3    75  MET75       0.0427
     78  CG        32.9530  -33.0910    0.1220 C.3    75  MET75       0.0599
     79  SD        34.1830  -33.0770    1.4520 S.3    75  MET75      -0.1393
     80  CE        34.2460  -31.3000    1.8250 C.3    75  MET75       0.0692
     81  N         29.1480  -34.2520    3.0900 N.am   76  ARG76      -0.1963
     82  CA        27.7980  -34.2890    3.7000 C.3    76  ARG76       0.1729
     83  C         26.9170  -33.0670    3.5150 C.2    76  ARG76       0.2616
     84  O         25.7240  -33.2190    3.2280 O.2    76  ARG76      -0.2715
     85  CB        27.8480  -34.5740    5.2150 C.3    76  ARG76       0.0348
     86  CG        28.5820  -35.8310    5.6410 C.3    76  ARG76       0.0492
     87  CD        28.0500  -36.3020    6.9770 C.3    76  ARG76       0.2205
     88  NE        26.6310  -36.6000    6.8350 N.pl3  76  ARG76      -0.0865
     89  CZ        26.1390  -37.8110    6.6150 C.cat  76  ARG76       0.5346
     90  NH1       26.9460  -38.8680    6.5730 N.pl3  76  ARG76       0.1354
     91  NH2       24.8350  -37.9810    6.4590 N.pl3  76  ARG76       0.1354
     92  N         27.4920  -31.8640    3.7180 N.am   77  HIS77      -0.1959
     93  CA        26.7260  -30.6180    3.6610 C.3    77  HIS77       0.1787
     94  C         26.5740  -30.0320    2.2550 C.2    77  HIS77       0.2621
     95  O         26.0550  -28.9320    2.1330 O.2    77  HIS77      -0.2715
     96  CB        27.2760  -29.5920    4.6700 C.3    77  HIS77       0.0785
     97  CG        27.1270  -30.0220    6.1020 C.ar   77  HIS77       0.0821
     98  ND1       27.4530  -29.1790    7.1400 N.ar   77  HIS77      -0.2267
     99  CD2       26.6810  -31.1940    6.6200 C.ar   77  HIS77       0.1154
    100  CE1       27.2040  -29.8580    8.2510 C.ar   77  HIS77       0.1986
    101  NE2       26.7380  -31.0780    7.9840 N.ar   77  HIS77      -0.2212
    102  N         26.9590  -30.7890    1.2270 N.am   78  GLY78      -0.1940
    103  CA        26.8140  -30.4390   -0.1880 C.3    78  GLY78       0.2014
    104  C         27.5990  -29.2660   -0.7440 C.2    78  GLY78       0.2638
    105  O         28.6570  -28.9050   -0.2320 O.2    78  GLY78      -0.2714
    106  N         27.0800  -28.6640   -1.8230 N.am   79  ASP79      -0.1971
    107  CA        27.7660  -27.5400   -2.4450 C.3    79  ASP79       0.1709
    108  C         27.6530  -26.2720   -1.5860 C.2    79  ASP79       0.2293
    109  O         26.6260  -26.0570   -0.9150 O.2    79  ASP79      -0.2864
    110  CB        27.3410  -27.3310   -3.9160 C.3    79  ASP79       0.1436
    111  CG        26.0890  -26.5220   -4.1800 C.2    79  ASP79       0.3671
    112  OD1       25.1090  -27.0980   -4.6640 O.co2  79  ASP79      -0.2456
    113  OD2       26.1040  -25.3130   -3.9350 O.co2  79  ASP79      -0.2456
    114  N         29.1580  -22.7080   -6.1040 N.3   137  ARG137     -0.1245
    115  CA        28.5170  -23.9480   -6.6090 C.3   137  ARG137      0.1563
    116  C         29.5890  -25.0390   -6.8850 C.2   137  ARG137      0.2260
    117  O         29.2490  -26.2110   -6.9540 O.2   137  ARG137     -0.2867
    118  CB        27.6910  -23.6710   -7.8970 C.3   137  ARG137      0.0307
    119  CG        28.5750  -23.2180   -9.0780 C.3   137  ARG137      0.0489
    120  CD        27.8740  -23.0270  -10.4250 C.3   137  ARG137      0.2205
    121  NE        28.8220  -22.4360  -11.3780 N.pl3 137  ARG137     -0.0865
    122  CZ        29.0330  -21.1280  -11.5080 C.cat 137  ARG137      0.5346
    123  NH1       28.3420  -20.2620  -10.7830 N.pl3 137  ARG137      0.1354
    124  NH2       29.9470  -20.6790  -12.3520 N.pl3 137  ARG137      0.1354
    125  N         32.6500  -27.5400   -1.9990 N.3   140  LEU140     -0.1245
    126  CA        31.9010  -28.4840   -1.1910 C.3   140  LEU140      0.1561
    127  C         32.1310  -28.3200    0.3090 C.2   140  LEU140      0.2260
    128  O         33.1940  -27.8860    0.7620 O.2   140  LEU140     -0.2867
    129  CB        32.1590  -29.9300   -1.6510 C.3   140  LEU140      0.0270
    130  CG        31.6770  -30.2670   -3.0710 C.3   140  LEU140      0.0019
    131  CD1       32.4670  -31.4220   -3.6370 C.3   140  LEU140      0.0001
    132  CD2       30.1960  -30.5880   -3.1010 C.3   140  LEU140      0.0001
    133  N         34.4000  -29.5340   -8.1640 N.3   151  ASP151     -0.1239
    134  CA        34.3450  -29.5210   -9.6390 C.3   151  ASP151      0.1674
    135  C         35.2790  -28.4600  -10.1930 C.2   151  ASP151      0.2266
    136  O         35.4570  -27.4060   -9.5550 O.2   151  ASP151     -0.2867
    137  CB        32.9060  -29.2330  -10.1160 C.3   151  ASP151      0.1410
    138  CG        32.4800  -29.9260  -11.4060 C.2   151  ASP151      0.3668
    139  OD1       31.2840  -29.8040  -11.7820 O.co2 151  ASP151     -0.2456
    140  OD2       33.3350  -30.5930  -12.0400 O.co2 151  ASP151     -0.2456
    141  N         27.2810  -26.7660  -14.5000 N.3   154  SER154     -0.1202
    142  CA        27.9380  -27.4270  -13.3690 C.3   154  SER154      0.2020
    143  C         27.1620  -28.7160  -13.0170 C.2   154  SER154      0.2618
    144  O         27.4330  -29.7690  -13.6090 O.2   154  SER154     -0.2717
    145  CB        28.0340  -26.4730  -12.1760 C.3   154  SER154      0.2103
    146  OG        28.9050  -26.9510  -11.1630 O.3   154  SER154     -0.2182
    147  N         26.1850  -28.6200  -12.0810 N.am  155  ARG155     -0.1979
    148  CA        25.3210  -29.7250  -11.6680 C.3   155  ARG155      0.1597
    149  C         23.9500  -29.6130  -12.4030 C.2   155  ARG155      0.2287
    150  O         22.9890  -30.3260  -12.0860 O.2   155  ARG155     -0.2864
    151  CB        25.2500  -29.8460  -10.1150 C.3   155  ARG155      0.0334
    152  CG        24.0500  -29.2620   -9.3780 C.3   155  ARG155      0.0492
    153  CD        23.0870  -30.3520   -8.9310 C.3   155  ARG155      0.2205
    154  NE        22.7310  -30.2370   -7.5150 N.pl3 155  ARG155     -0.0865
    155  CZ        21.6240  -30.7350   -6.9720 C.cat 155  ARG155      0.5346
    156  NH1       21.3900  -30.5870   -5.6740 N.pl3 155  ARG155      0.1354
    157  NH2       20.7360  -31.3770   -7.7230 N.pl3 155  ARG155      0.1354
@<TRIPOS>BOND
     1    20    19   ar
     2    21    19   ar
     3    19    18    1
     4   141   142    1
     5    17    18    1
     6    17    14    1
     7    16    15    2
     8   144   143    2
     9    15    14    1
    10   142   143    1
    11   142   145    1
    12   143   147   am
    13    14    13    1
    14   149   150    2
    15   149   148    1
    16   124   122    1
    17   145   146    1
    18   147   148    1
    19   140   138   ar
    20   139   138   ar
    21   148   151    1
    22    13    11   am
    23   122   121    2
    24   122   123    1
    25   138   137    1
    26   121   120    1
    27    22    23    1
    28    12    11    2
    29    11    10    1
    30   120   119    1
    31   135   134    1
    32   135   136    2
    33    28    26    1
    34   137   134    1
    35   151   152    1
    36   134   133    1
    37    23    26    1
    38    23    24    1
    39   152   153    1
    40    10     9    1
    41   119   118    1
    42    26    27    1
    43    51    49   ar
    44    51    50   ar
    45   153   154    1
    46    49    47   ar
    47    24    25    2
    48     9     3   am
    49   118   115    1
    50    50    48   ar
    51   157   155    1
    52    47    46   ar
    53   154   155    2
    54   155   156    1
    55   117   116    2
    56     3     4    2
    57     3     2    1
    58   116   115    1
    59     1     2    1
    60   115   114    1
    61    48    46   ar
    62    46    45    1
    63     2     5    1
    64    32    31    2
    65     5     6    1
    66    31    30    1
    67    41    42    1
    68    45    42    1
    69    39    38    1
    70   112   111   ar
    71    42    43    1
    72     6     7    1
    73     6     8    1
    74   111   113   ar
    75   111   110    1
    76    30    33    1
    77    30    29    1
    78    37    36    2
    79   110   107    1
    80   131   130    1
    81    38    40    1
    82    38    35    1
    83   132   130    1
    84   130   129    1
    85    43    44    2
    86    43    52   am
    87    36    35    1
    88    34    35    1
    89   107   106    1
    90   107   108    1
    91    52    53    1
    92   125   126    1
    93   106   104   am
    94   129   126    1
    95   108   109    2
    96    55    54    2
    97   126   127    1
    98   104   105    2
    99   104   103    1
   100    54    53    1
   101    54    61   am
   102    53    56    1
   103   103   102    1
   104    67    69   ar
   105    67    66   ar
   106    69    71   ar
   107    78    77    1
   108    78    79    1
   109    57    56    2
   110    57    58    1
   111    61    62    1
   112   127   128    2
   113    62    65    1
   114    62    63    1
   115    60    58   ar
   116    77    74    1
   117    73    63   am
   118    73    74    1
   119    65    66    1
   120    58    59   ar
   121    76    75    2
   122    66    68   ar
   123    71    72    1
   124    71    70   ar
   125   102    94   am
   126    63    64    2
   127    79    80    1
   128    74    75    1
   129    75    81   am
   130    95    94    2
   131    68    70   ar
   132    94    93    1
   133    81    82    1
   134    84    83    2
   135    83    82    1
   136    83    92   am
   137    93    92    1
   138    93    96    1
   139    82    85    1
   140    96    97    1
   141    85    86    1
   142    86    87    1
   143    97    99   ar
   144    97    98   ar
   145    91    89    1
   146    90    89    1
   147    89    88    2
   148    99   101   ar
   149    88    87    1
   150    98   100   ar
   151   101   100   ar
