@<TRIPOS>MOLECULE
tmp/5i8bA00.pdb
 131 126 0 0 0
SMALL
GASTEIGER

@<TRIPOS>ATOM
      1  N         39.1820    3.4680   11.6030 N.3    28  PRO28      -0.2116
      2  CA        38.5130    4.5740   12.2920 C.3    28  PRO28       0.1372
      3  C         36.9870    4.5260   12.3100 C.2    28  PRO28       0.2244
      4  O         36.3830    5.4090   12.9210 O.2    28  PRO28      -0.2868
      5  CB        38.9770    5.7930   11.4770 C.3    28  PRO28       0.0268
      6  CG        39.0430    5.2540   10.0770 C.3    28  PRO28       0.0207
      7  CD        39.5820    3.8440   10.2300 C.3    28  PRO28       0.0892
      8  N         34.5470    5.1860   15.3090 N.3    31  LEU31      -0.1231
      9  CA        34.7850    6.2920   16.2350 C.3    31  LEU31       0.1678
     10  C         33.6200    7.2680   16.3500 C.2    31  LEU31       0.2434
     11  O         33.3110    7.6730   17.4870 O.2    31  LEU31      -0.2733
     12  CB        36.0860    7.0190   15.8560 C.3    31  LEU31       0.0284
     13  CG        37.3290    6.1700   16.1170 C.3    31  LEU31       0.0019
     14  CD1       38.5930    6.8920   15.6270 C.3    31  LEU31       0.0001
     15  CD2       37.4490    5.8410   17.5800 C.3    31  LEU31       0.0001
     16  N         32.9260    7.6620   15.2750 N.am   32  PRO32      -0.2718
     17  CA        31.7720    8.5700   15.4430 C.3    32  PRO32       0.1535
     18  C         30.6020    7.9510   16.1850 C.2    32  PRO32       0.2598
     19  O         29.6840    8.6910   16.5590 O.2    32  PRO32      -0.2715
     20  CB        31.3640    8.9050   14.0050 C.3    32  PRO32       0.0310
     21  CG        32.5780    8.5670   13.1530 C.3    32  PRO32       0.0237
     22  CD        33.2300    7.4170   13.8480 C.3    32  PRO32       0.0939
     23  N         30.6100    6.6330   16.3790 N.am   33  PHE33      -0.1974
     24  CA        29.4650    5.8770   16.8730 C.3    33  PHE33       0.1639
     25  C         29.6620    5.3200   18.2700 C.2    33  PHE33       0.2290
     26  O         28.7540    4.6650   18.7940 O.2    33  PHE33      -0.2864
     27  CB        29.1650    4.7440   15.8910 C.3    33  PHE33       0.0560
     28  CG        28.9110    5.2500   14.5090 C.ar   33  PHE33      -0.0200
     29  CD1       29.9050    5.2280   13.5410 C.ar   33  PHE33      -0.0042
     30  CD2       27.6950    5.8360   14.1980 C.ar   33  PHE33      -0.0042
     31  CE1       29.6720    5.7330   12.2770 C.ar   33  PHE33      -0.0003
     32  CE2       27.4580    6.3360   12.9240 C.ar   33  PHE33      -0.0003
     33  CZ        28.4560    6.2820   11.9640 C.ar   33  PHE33      -0.0000
     34  N         29.8710    6.8000   21.1790 N.3    35  GLN35      -0.1245
     35  CA        29.3310    7.5770   22.2830 C.3    35  GLN35       0.1566
     36  C         28.0600    8.2610   21.8390 C.2    35  GLN35       0.2260
     37  O         27.8610    8.5060   20.6420 O.2    35  GLN35      -0.2867
     38  CB        30.3280    8.6310   22.7930 C.3    35  GLN35       0.0367
     39  CG        30.8260    9.6200   21.7580 C.3    35  GLN35       0.0905
     40  CD        31.7930    8.9880   20.7630 C.2    35  GLN35       0.2608
     41  OE1       32.8110    8.4070   21.1600 O.2    35  GLN35      -0.2717
     42  NE2       31.4790    9.0950   19.4640 N.am   35  GLN35      -0.0878
     43  N         25.4990   10.9400   20.6500 N.3    37  VAL37      -0.1245
     44  CA        25.6890   12.1770   19.9040 C.3    37  VAL37       0.1561
     45  C         25.4010   13.3680   20.8040 C.2    37  VAL37       0.2260
     46  O         24.3480   13.4400   21.4490 O.2    37  VAL37      -0.2867
     47  CB        24.7830   12.2010   18.6630 C.3    37  VAL37       0.0252
     48  CG1       24.9260   13.5370   17.9400 C.3    37  VAL37       0.0019
     49  CG2       25.1010   11.0250   17.7380 C.3    37  VAL37       0.0019
     50  N         29.5740   18.8470   19.3720 N.3    42  LEU42      -0.1245
     51  CA        29.9830   18.6120   17.9940 C.3    42  LEU42       0.1561
     52  C         29.6940   19.7940   17.0820 C.2    42  LEU42       0.2260
     53  O         30.1690   19.8000   15.9420 O.2    42  LEU42      -0.2867
     54  CB        29.2820   17.3610   17.4440 C.3    42  LEU42       0.0270
     55  CG        29.5720   16.0500   18.1650 C.3    42  LEU42       0.0019
     56  CD1       28.6390   14.9490   17.6490 C.3    42  LEU42       0.0001
     57  CD2       31.0280   15.6510   17.9630 C.3    42  LEU42       0.0001
     58  N         26.6100   20.6570   15.8990 N.3    44  ILE44      -0.1245
     59  CA        25.5370   20.3390   14.9610 C.3    44  ILE44       0.1561
     60  C         24.1940   20.5950   15.6450 C.2    44  ILE44       0.2260
     61  O         23.4270   19.6580   15.9270 O.2    44  ILE44      -0.2867
     62  CB        25.6860   18.9040   14.4260 C.3    44  ILE44       0.0252
     63  CG1       25.9320   17.8970   15.5490 C.3    44  ILE44       0.0019
     64  CG2       26.8540   18.8270   13.4470 C.3    44  ILE44       0.0019
     65  CD1       25.9370   16.4590   15.0480 C.3    44  ILE44       0.0001
     66  N         20.7060   18.8040   15.0120 N.3    47  TYR47      -0.1241
     67  CA        20.7040   17.3450   14.9440 C.3    47  TYR47       0.1605
     68  C         19.3550   16.7640   15.3420 C.2    47  TYR47       0.2264
     69  O         18.7760   15.9580   14.6100 O.2    47  TYR47      -0.2867
     70  CB        21.8180   16.7760   15.8230 C.3    47  TYR47       0.0534
     71  CG        21.9180   15.2700   15.7410 C.ar   47  TYR47      -0.0201
     72  CD1       22.5110   14.6520   14.6460 C.ar   47  TYR47      -0.0009
     73  CD2       21.4130   14.4640   16.7520 C.ar   47  TYR47      -0.0009
     74  CE1       22.5940   13.2720   14.5580 C.ar   47  TYR47       0.0417
     75  CE2       21.4950   13.0830   16.6790 C.ar   47  TYR47       0.0417
     76  CZ        22.0840   12.4940   15.5770 C.ar   47  TYR47       0.1957
     77  OH        22.1630   11.1220   15.5100 O.3    47  TYR47      -0.2866
     78  N         22.4430    8.0370   10.9400 N.3    86  ALA86      -0.1245
     79  CA        23.6410    8.6410   10.3740 C.3    86  ALA86       0.1562
     80  C         23.5130    8.8200    8.8680 C.2    86  ALA86       0.2260
     81  O         23.9790    9.8270    8.3190 O.2    86  ALA86      -0.2867
     82  CB        24.8470    7.7710   10.7080 C.3    86  ALA86       0.0290
     83  N         21.1840   11.9780    8.5570 N.3    89  TYR89      -0.1227
     84  CA        21.6640   13.2840    8.9910 C.3    89  TYR89       0.1736
     85  C         22.8420   13.7560    8.1490 C.2    89  TYR89       0.2595
     86  O         22.9690   14.9570    7.8700 O.2    89  TYR89      -0.2718
     87  CB        22.0480   13.2580   10.4810 C.3    89  TYR89       0.0548
     88  CG        22.5190   14.6310   10.9030 C.ar   89  TYR89      -0.0200
     89  CD1       21.5980   15.6640   11.0710 C.ar   89  TYR89      -0.0009
     90  CD2       23.8770   14.9280   11.0360 C.ar   89  TYR89      -0.0009
     91  CE1       22.0150   16.9440   11.3810 C.ar   89  TYR89       0.0417
     92  CE2       24.3020   16.2150   11.3420 C.ar   89  TYR89       0.0417
     93  CZ        23.3660   17.2130   11.5160 C.ar   89  TYR89       0.1957
     94  OH        23.7860   18.4950   11.8130 O.3    89  TYR89      -0.2866
     95  N         23.7170   12.8330    7.7500 N.am   90  ASN90      -0.1974
     96  CA        24.9740   13.1880    7.1030 C.3    90  ASN90       0.1688
     97  C         24.8750   13.0630    5.5860 C.2    90  ASN90       0.2292
     98  O         24.1140   12.2530    5.0560 O.2    90  ASN90      -0.2864
     99  CB        26.1070   12.3150    7.6320 C.3    90  ASN90       0.1181
    100  CG        26.2360   12.4190    9.1430 C.2    90  ASN90       0.2629
    101  OD1       26.8610   13.3400    9.6700 O.2    90  ASN90      -0.2716
    102  ND2       25.6150   11.4870    9.8440 N.am   90  ASN90      -0.0877
    103  N         32.5530   12.0140    5.7860 N.3    95  ARG95      -0.1231
    104  CA        33.2870   10.9660    6.4910 C.3    95  ARG95       0.1694
    105  C         32.3480   10.0870    7.3160 C.2    95  ARG95       0.2591
    106  O         32.4130    8.8540    7.2500 O.2    95  ARG95      -0.2718
    107  CB        34.3530   11.6200    7.3770 C.3    95  ARG95       0.0321
    108  CG        35.0260   10.7000    8.3810 C.3    95  ARG95       0.0489
    109  CD        36.1820   11.4150    9.0940 C.3    95  ARG95       0.2205
    110  NE        37.4000   11.4210    8.2850 N.pl3  95  ARG95      -0.0865
    111  CZ        38.4800   10.6870    8.5460 C.cat  95  ARG95       0.5346
    112  NH1       38.5150    9.9030    9.6130 N.pl3  95  ARG95       0.1354
    113  NH2       39.5380   10.7480    7.7480 N.pl3  95  ARG95       0.1354
    114  N         31.4450   10.7030    8.0790 N.am   96  VAL96      -0.1980
    115  CA        30.5870    9.9160    8.9740 C.3    96  VAL96       0.1595
    116  C         29.6710    8.9910    8.1760 C.2    96  VAL96       0.2287
    117  O         29.4370    7.8360    8.5640 O.2    96  VAL96      -0.2864
    118  CB        29.7980   10.8490    9.9140 C.3    96  VAL96       0.0276
    119  CG1       28.7460   10.0510   10.7150 C.3    96  VAL96       0.0022
    120  CG2       30.7590   11.5530   10.8820 C.3    96  VAL96       0.0022
    121  N         31.7900    6.0930    6.9210 N.3    99  PHE99      -0.1241
    122  CA        32.1330    5.2070    8.0310 C.3    99  PHE99       0.1605
    123  C         30.9380    4.3500    8.4310 C.2    99  PHE99       0.2264
    124  O         31.0900    3.1620    8.7310 O.2    99  PHE99      -0.2867
    125  CB        32.6160    6.0170    9.2340 C.3    99  PHE99       0.0534
    126  CG        34.0210    6.5780    9.0930 C.ar   99  PHE99      -0.0203
    127  CD1       34.7570    6.4370    7.9170 C.ar   99  PHE99      -0.0042
    128  CD2       34.5950    7.2300   10.1680 C.ar   99  PHE99      -0.0042
    129  CE1       36.0410    6.9600    7.8420 C.ar   99  PHE99      -0.0003
    130  CE2       35.8710    7.7660   10.0910 C.ar   99  PHE99      -0.0003
    131  CZ        36.5900    7.6200    8.9250 C.ar   99  PHE99      -0.0000
@<TRIPOS>BOND
     1    98    97    2
     2    97    96    1
     3   103   104    1
     4   104   105    1
     5   104   107    1
     6   121   122    1
     7    96    99    1
     8    96    95    1
     9   106   105    2
    10   105   114   am
    11   107   108    1
    12    99   100    1
    13   113   111    1
    14    95    85   am
    15   129   127   ar
    16   129   131   ar
    17    86    85    2
    18   127   126   ar
    19   122   123    1
    20   122   125    1
    21   114   115    1
    22    85    84    1
    23   116   117    2
    24   116   115    1
    25   110   111    2
    26   110   109    1
    27    81    80    2
    28   108   109    1
    29   123   124    2
    30   111   112    1
    31    83    84    1
    32    80    79    1
    33   131   130   ar
    34   115   118    1
    35    84    87    1
    36   126   125    1
    37   126   128   ar
    38   100   101    2
    39   100   102   am
    40   118   119    1
    41   118   120    1
    42     6     7    1
    43     6     5    1
    44   130   128   ar
    45     7     1    1
    46    79    82    1
    47    79    78    1
    48    87    88    1
    49    88    90   ar
    50    88    89   ar
    51    90    92   ar
    52    89    91   ar
    53    92    93   ar
    54    91    93   ar
    55     5     2    1
    56    93    94    1
    57     1     2    1
    58    33    31   ar
    59    33    32   ar
    60    31    29   ar
    61     2     3    1
    62     3     4    2
    63    32    30   ar
    64    21    22    1
    65    21    20    1
    66    64    62    1
    67    29    28   ar
    68    22    16    1
    69    20    17    1
    70    30    28   ar
    71    62    59    1
    72    62    63    1
    73    28    27    1
    74    74    72   ar
    75    74    76   ar
    76    69    68    2
    77    72    71   ar
    78    67    66    1
    79    67    68    1
    80    67    70    1
    81    59    60    1
    82    59    58    1
    83    65    63    1
    84    16    17    1
    85    16    10   am
    86     8     9    1
    87    17    18    1
    88    77    76    1
    89    76    75   ar
    90    14    13    1
    91    60    61    2
    92    71    70    1
    93    71    73   ar
    94    12    13    1
    95    12     9    1
    96    27    24    1
    97    53    52    2
    98    13    15    1
    99    18    23   am
   100    18    19    2
   101     9    10    1
   102    10    11    2
   103    23    24    1
   104    75    73   ar
   105    24    25    1
   106    52    51    1
   107    54    51    1
   108    54    55    1
   109    56    55    1
   110    49    47    1
   111    48    47    1
   112    57    55    1
   113    51    50    1
   114    25    26    2
   115    47    44    1
   116    42    40   am
   117    44    43    1
   118    44    45    1
   119    37    36    2
   120    40    41    2
   121    40    39    1
   122    45    46    2
   123    34    35    1
   124    39    38    1
   125    36    35    1
   126    35    38    1
