@<TRIPOS>MOLECULE
tmp/5i8fA01.pdb
 84 81 0 0 0
SMALL
GASTEIGER

@<TRIPOS>ATOM
      1  N         10.0820   27.6710    4.5280 N.3    35  VAL35      -0.1245
      2  CA        10.7230   27.9710    5.7770 C.3    35  VAL35       0.1561
      3  C         12.2310   28.1430    5.6260 C.2    35  VAL35       0.2260
      4  O         12.8210   28.9650    6.3100 O.2    35  VAL35      -0.2867
      5  CB        10.3490   26.9300    6.8290 C.3    35  VAL35       0.0252
      6  CG1       11.0920   27.1730    8.1460 C.3    35  VAL35       0.0019
      7  CG2        8.8510   26.9460    7.1070 C.3    35  VAL35       0.0019
      8  N         12.7560   31.7040    4.6850 N.3    38  LYS38      -0.1231
      9  CA        12.5290   32.5820    5.8340 C.3    38  LYS38       0.1693
     10  C         13.6430   32.5320    6.8540 C.2    38  LYS38       0.2591
     11  O         14.0710   33.5700    7.3900 O.2    38  LYS38      -0.2718
     12  CB        11.2040   32.2050    6.4850 C.3    38  LYS38       0.0285
     13  CG        10.0120   32.5300    5.5700 C.3    38  LYS38       0.0035
     14  CD         8.7100   31.8870    6.0950 C.3    38  LYS38       0.0206
     15  CE         7.4750   32.5150    5.4470 C.3    38  LYS38       0.1093
     16  NZ         7.0370   31.8250    4.2090 N.3    38  LYS38      -0.1314
     17  N         14.1550   31.3380    7.1050 N.am   39  ALA39      -0.1980
     18  CA        15.1640   31.1300    8.1220 C.3    39  ALA39       0.1597
     19  C         16.5440   31.5630    7.6690 C.2    39  ALA39       0.2287
     20  O         17.3390   32.0560    8.4640 O.2    39  ALA39      -0.2864
     21  CB        15.1950   29.6580    8.4840 C.3    39  ALA39       0.0319
     22  N         17.1230   25.9800   14.4930 N.3   151  GLN151     -0.1231
     23  CA        16.6780   27.3220   14.2110 C.3   151  GLN151      0.1698
     24  C         15.1460   27.4050   14.1510 C.2   151  GLN151      0.2592
     25  O         14.5290   28.3610   14.6520 O.2   151  GLN151     -0.2718
     26  CB        17.2870   27.7390   12.8950 C.3   151  GLN151      0.0381
     27  CG        17.1640   29.1650   12.5710 C.3   151  GLN151      0.0905
     28  CD        17.7130   29.4540   11.2270 C.2   151  GLN151      0.2608
     29  OE1       18.2740   28.5720   10.5370 O.2   151  GLN151     -0.2717
     30  NE2       17.5760   30.7040   10.8270 N.am  151  GLN151     -0.0878
     31  N         14.5280   26.3980   13.5380 N.am  152  VAL152     -0.1980
     32  CA        13.0730   26.2960   13.4630 C.3   152  VAL152      0.1595
     33  C         12.4750   26.0750   14.8460 C.2   152  VAL152      0.2287
     34  O         11.4770   26.7040   15.2160 O.2   152  VAL152     -0.2864
     35  CB        12.6780   25.1920   12.4990 C.3   152  VAL152      0.0276
     36  CG1       11.1850   24.8920   12.6470 C.3   152  VAL152      0.0022
     37  CG2       13.0370   25.6340   11.1110 C.3   152  VAL152      0.0022
     38  N         13.6100   27.0010   17.6970 N.3   154  GLU154     -0.1231
     39  CA        13.7020   28.2350   18.4600 C.3   154  GLU154      0.1699
     40  C         12.6500   29.2260   18.0010 C.2   154  GLU154      0.2592
     41  O         11.9900   29.8590   18.8330 O.2   154  GLU154     -0.2718
     42  CB        15.0980   28.7900   18.2820 C.3   154  GLU154      0.0402
     43  CG        15.3740   30.0950   18.9580 C.3   154  GLU154      0.1161
     44  CD        16.8080   30.5300   18.6880 C.2   154  GLU154      0.3649
     45  OE1       17.0910   31.0310   17.5720 O.co2 154  GLU154     -0.2457
     46  OE2       17.6540   30.3300   19.5710 O.co2 154  GLU154     -0.2457
     47  N         12.4570   29.3710   16.7060 N.am  155  TYR155     -0.1962
     48  CA        11.5050   30.3340   16.2080 C.3   155  TYR155      0.1771
     49  C         10.0790   29.9270   16.5730 C.2   155  TYR155      0.2619
     50  O          9.2530   30.7540   16.9740 O.2   155  TYR155     -0.2715
     51  CB        11.6390   30.4670   14.6970 C.3   155  TYR155      0.0574
     52  CG        10.8050   31.6010   14.1570 C.ar  155  TYR155     -0.0198
     53  CD1       11.2740   32.9090   14.1830 C.ar  155  TYR155     -0.0009
     54  CD2        9.5280   31.3710   13.6450 C.ar  155  TYR155     -0.0009
     55  CE1       10.5140   33.9430   13.7110 C.ar  155  TYR155      0.0417
     56  CE2        8.7660   32.4370   13.1720 C.ar  155  TYR155      0.0417
     57  CZ         9.2690   33.7110   13.2050 C.ar  155  TYR155      0.1957
     58  OH         8.5120   34.7960   12.7630 O.3   155  TYR155     -0.2866
     59  N          9.7470   28.6520   16.3870 N.am  156  LEU156     -0.1977
     60  CA         8.4070   28.2000   16.7050 C.3   156  LEU156      0.1596
     61  C          8.0890   28.3000   18.1690 C.2   156  LEU156      0.2287
     62  O          6.9450   28.6060   18.5180 O.2   156  LEU156     -0.2864
     63  CB         8.2170   26.7580   16.2050 C.3   156  LEU156      0.0297
     64  CG         8.2160   26.5690   14.6960 C.3   156  LEU156      0.0022
     65  CD1        8.0410   25.0620   14.3980 C.3   156  LEU156      0.0001
     66  CD2        7.2210   27.3820   13.9980 C.3   156  LEU156      0.0001
     67  N          2.6460   30.5070   14.7760 N.3   162  VAL162     -0.1231
     68  CA         3.1480   30.0240   13.5070 C.3   162  VAL162      0.1692
     69  C          2.8930   28.5130   13.3970 C.2   162  VAL162      0.2592
     70  O          3.3200   27.7130   14.2550 O.2   162  VAL162     -0.2718
     71  CB         4.5940   30.3090   13.3610 C.3   162  VAL162      0.0266
     72  CG1        5.1450   29.7630   12.0130 C.3   162  VAL162      0.0020
     73  CG2        4.8010   31.8410   13.3890 C.3   162  VAL162      0.0020
     74  N          2.2010   28.1150   12.3360 N.am  163  PHE163     -0.1976
     75  CA         1.8610   26.6960   12.0780 C.3   163  PHE163      0.1639
     76  C          0.9540   26.0980   13.1540 C.2   163  PHE163      0.2290
     77  O          0.8540   24.8730   13.2970 O.2   163  PHE163     -0.2864
     78  CB         3.0960   25.7930   11.8650 C.3   163  PHE163      0.0560
     79  CG         3.8800   26.1350   10.6230 C.ar  163  PHE163     -0.0200
     80  CD1        3.2570   26.3070    9.3940 C.ar  163  PHE163     -0.0042
     81  CD2        5.2160   26.2770   10.6850 C.ar  163  PHE163     -0.0042
     82  CE1        4.0640   26.6110    8.2240 C.ar  163  PHE163     -0.0003
     83  CE2        5.9610   26.5950    9.5780 C.ar  163  PHE163     -0.0003
     84  CZ         5.3670   26.7880    8.3470 C.ar  163  PHE163     -0.0000
@<TRIPOS>BOND
     1    16    15    1
     2     1     2    1
     3     8     9    1
     4    15    14    1
     5    13    14    1
     6    13    12    1
     7     3     2    1
     8     3     4    2
     9     2     5    1
    10     9    12    1
    11     9    10    1
    12     5     7    1
    13     5     6    1
    14    10    17   am
    15    10    11    2
    16    17    18    1
    17    19    18    1
    18    19    20    2
    19    18    21    1
    20    82    84   ar
    21    82    80   ar
    22    84    83   ar
    23    80    79   ar
    24    83    81   ar
    25    29    28    2
    26    79    81   ar
    27    79    78    1
    28    30    28   am
    29    37    35    1
    30    28    27    1
    31    78    75    1
    32    72    71    1
    33    75    74    1
    34    75    76    1
    35    74    69   am
    36    35    36    1
    37    35    32    1
    38    27    26    1
    39    58    57    1
    40    26    23    1
    41    76    77    2
    42    56    57   ar
    43    56    54   ar
    44    57    55   ar
    45    71    73    1
    46    71    68    1
    47    69    68    1
    48    69    70    2
    49    32    31    1
    50    32    33    1
    51    68    67    1
    52    31    24   am
    53    54    52   ar
    54    55    53   ar
    55    66    64    1
    56    24    23    1
    57    24    25    2
    58    52    53   ar
    59    52    51    1
    60    23    22    1
    61    65    64    1
    62    64    63    1
    63    51    48    1
    64    33    34    2
    65    63    60    1
    66    48    49    1
    67    48    47    1
    68    59    49   am
    69    59    60    1
    70    49    50    2
    71    60    61    1
    72    47    40   am
    73    45    44   ar
    74    38    39    1
    75    40    39    1
    76    40    41    2
    77    61    62    2
    78    42    39    1
    79    42    43    1
    80    44    43    1
    81    44    46   ar
