@<TRIPOS>MOLECULE
tmp/5i8fA00.pdb
 194 183 0 0 0
SMALL
GASTEIGER

@<TRIPOS>ATOM
      1  N          8.8050   23.0630    4.2340 N.3    32  ARG32      -0.1245
      2  CA        10.2440   23.2730    4.3620 C.3    32  ARG32       0.1563
      3  C         10.7670   24.2010    3.2850 C.2    32  ARG32       0.2260
      4  O         11.6160   25.0590    3.5250 O.2    32  ARG32      -0.2867
      5  CB        10.9450   21.9170    4.2600 C.3    32  ARG32       0.0307
      6  CG        12.4180   21.9720    4.5360 C.3    32  ARG32       0.0489
      7  CD        13.0790   20.5920    4.3320 C.3    32  ARG32       0.2205
      8  NE        14.4790   20.5570    4.7330 N.pl3  32  ARG32      -0.0865
      9  CZ        14.8910   20.2700    5.9770 C.cat  32  ARG32       0.5346
     10  NH1       16.2020   20.2350    6.2980 N.pl3  32  ARG32       0.1354
     11  NH2       13.9910   20.0220    6.9380 N.pl3  32  ARG32       0.1354
     12  N         12.8630   27.4140    4.7090 N.3    36  LEU36      -0.1245
     13  CA        14.2870   27.5960    4.4440 C.3    36  LEU36       0.1561
     14  C         14.6000   29.0000    4.0510 C.2    36  LEU36       0.2260
     15  O         15.6090   29.5730    4.4820 O.2    36  LEU36      -0.2867
     16  CB        14.7570   26.6570    3.3330 C.3    36  LEU36       0.0270
     17  CG        14.9120   25.1910    3.7580 C.3    36  LEU36       0.0019
     18  CD1       14.9550   24.3260    2.5440 C.3    36  LEU36       0.0001
     19  CD2       16.1560   24.9290    4.5900 C.3    36  LEU36       0.0001
     20  N         16.8520   31.3270    6.3820 N.3    40  GLN40      -0.1245
     21  CA        18.2080   31.5490    5.8520 C.3    40  GLN40       0.1566
     22  C         18.1430   32.2790    4.5360 C.2    40  GLN40       0.2260
     23  O         18.5460   31.7550    3.5020 O.2    40  GLN40      -0.2867
     24  CB        18.9610   30.2030    5.7060 C.3    40  GLN40       0.0367
     25  CG        19.1290   29.5210    7.0190 C.3    40  GLN40       0.0905
     26  CD        19.9420   28.2900    6.9800 C.2    40  GLN40       0.2608
     27  OE1       20.7130   28.0880    6.0360 O.2    40  GLN40      -0.2717
     28  NE2       19.8110   27.4500    7.9830 N.am   40  GLN40      -0.0878
     29  N         21.0710   32.4450    2.1200 N.3    43  VAL43      -0.1231
     30  CA        21.4230   31.1940    1.4550 C.3    43  VAL43       0.1692
     31  C         20.4200   30.8080    0.3850 C.2    43  VAL43       0.2592
     32  O         20.8320   30.3970   -0.7080 O.2    43  VAL43      -0.2718
     33  CB        21.5200   30.0630    2.4980 C.3    43  VAL43       0.0266
     34  CG1       21.8330   28.6790    1.8320 C.3    43  VAL43       0.0020
     35  CG2       22.5300   30.3700    3.5690 C.3    43  VAL43       0.0020
     36  N         19.1360   30.9380    0.6920 N.am   44  PHE44      -0.1976
     37  CA        18.0670   30.5000   -0.1810 C.3    44  PHE44       0.1639
     38  C         17.3410   31.7000   -0.7840 C.2    44  PHE44       0.2290
     39  O         16.8010   32.5190   -0.0550 O.2    44  PHE44      -0.2864
     40  CB        17.1090   29.5690    0.5490 C.3    44  PHE44       0.0560
     41  CG        17.7450   28.3210    1.0380 C.ar   44  PHE44      -0.0200
     42  CD1       18.0460   27.2910    0.1530 C.ar   44  PHE44      -0.0042
     43  CD2       18.1430   28.1900    2.3600 C.ar   44  PHE44      -0.0042
     44  CE1       18.6950   26.1580    0.5690 C.ar   44  PHE44      -0.0003
     45  CE2       18.7990   27.0650    2.7940 C.ar   44  PHE44      -0.0003
     46  CZ        19.0810   26.0440    1.8780 C.ar   44  PHE44      -0.0000
     47  N         19.0670   28.3490   -4.4320 N.3    64  PHE64      -0.1241
     48  CA        20.0710   29.0470   -3.6380 C.3    64  PHE64       0.1605
     49  C         20.3480   30.4010   -4.2460 C.2    64  PHE64       0.2264
     50  O         20.1290   30.6230   -5.4600 O.2    64  PHE64      -0.2867
     51  CB        21.3670   28.2510   -3.6220 C.3    64  PHE64       0.0534
     52  CG        21.3130   26.9680   -2.7940 C.ar   64  PHE64      -0.0203
     53  CD1       21.8790   26.9340   -1.5410 C.ar   64  PHE64      -0.0042
     54  CD2       20.7860   25.7920   -3.3120 C.ar   64  PHE64      -0.0042
     55  CE1       21.8510   25.7820   -0.7860 C.ar   64  PHE64      -0.0003
     56  CE2       20.7960   24.6430   -2.5810 C.ar   64  PHE64      -0.0003
     57  CZ        21.3150   24.6320   -1.3150 C.ar   64  PHE64      -0.0000
     58  N         26.0890   31.5590   -3.9490 N.3    68  HIS68      -0.1241
     59  CA        26.3800   30.3050   -3.2650 C.3    68  HIS68       0.1621
     60  C         26.8110   29.2860   -4.3020 C.2    68  HIS68       0.2264
     61  O         26.2810   29.2990   -5.4120 O.2    68  HIS68      -0.2867
     62  CB        25.1310   29.8020   -2.5070 C.3    68  HIS68       0.0745
     63  CG        25.4300   28.6900   -1.5500 C.ar   68  HIS68       0.0817
     64  ND1       25.5570   27.3790   -1.9520 N.ar   68  HIS68      -0.2268
     65  CD2       25.6060   28.6890   -0.1980 C.ar   68  HIS68       0.1154
     66  CE1       25.8480   26.6250   -0.8950 C.ar   68  HIS68       0.1986
     67  NE2       25.9010   27.4010    0.1750 N.ar   68  HIS68      -0.2212
     68  N         25.9510   26.2150   -4.6830 N.3    70  LEU70      -0.1245
     69  CA        24.8230   25.3830   -5.1120 C.3    70  LEU70       0.1561
     70  C         23.7840   26.2580   -5.7830 C.2    70  LEU70       0.2260
     71  O         23.7570   27.4800   -5.6170 O.2    70  LEU70      -0.2867
     72  CB        24.2280   24.6230   -3.9440 C.3    70  LEU70       0.0270
     73  CG        25.1970   23.6450   -3.2670 C.3    70  LEU70       0.0019
     74  CD1       24.5460   23.0030   -2.0620 C.3    70  LEU70       0.0001
     75  CD2       25.6580   22.5740   -4.2640 C.3    70  LEU70       0.0001
     76  N         17.4790   22.6060   -5.9790 N.3    73  MET73      -0.1245
     77  CA        17.1100   21.2410   -5.6620 C.3    73  MET73       0.1570
     78  C         15.6320   21.0490   -5.9340 C.2    73  MET73       0.2261
     79  O         14.8320   21.9450   -5.6330 O.2    73  MET73      -0.2867
     80  CB        17.2750   20.9820   -4.1680 C.3    73  MET73       0.0387
     81  CG        18.6380   21.2110   -3.5710 C.3    73  MET73       0.0595
     82  SD        18.5600   20.9330   -1.7960 S.3    73  MET73      -0.1393
     83  CE        17.8460   22.3880   -1.0670 C.3    73  MET73       0.0692
     84  N         14.7570   13.8530   -2.7760 N.3    91  LEU91      -0.1245
     85  CA        15.5900   14.8200   -3.4960 C.3    91  LEU91       0.1561
     86  C         16.0790   14.1520   -4.7600 C.2    91  LEU91       0.2260
     87  O         16.8690   13.1970   -4.7000 O.2    91  LEU91      -0.2867
     88  CB        16.7620   15.1940   -2.6230 C.3    91  LEU91       0.0270
     89  CG        17.8820   15.9750   -3.2780 C.3    91  LEU91       0.0019
     90  CD1       17.4270   17.2460   -3.8680 C.3    91  LEU91       0.0001
     91  CD2       19.0220   16.2300   -2.3200 C.3    91  LEU91       0.0001
     92  N         23.3160   19.8180   -5.8300 N.3    96  VAL96      -0.1231
     93  CA        23.7390   19.2690   -4.5410 C.3    96  VAL96       0.1692
     94  C         23.9930   17.7740   -4.5970 C.2    96  VAL96       0.2592
     95  O         24.7120   17.2570   -3.7590 O.2    96  VAL96      -0.2718
     96  CB        22.7410   19.5540   -3.4740 C.3    96  VAL96       0.0266
     97  CG1       21.4790   18.7860   -3.7230 C.3    96  VAL96       0.0020
     98  CG2       23.3190   19.2700   -2.0450 C.3    96  VAL96       0.0020
     99  N         23.4510   17.0840   -5.6150 N.am   97  LEU97      -0.1966
    100  CA        23.6690   15.6630   -5.8150 C.3    97  LEU97       0.1728
    101  C         25.0210   15.4280   -6.4620 C.2    97  LEU97       0.2616
    102  O         25.4710   14.2840   -6.5900 O.2    97  LEU97      -0.2715
    103  CB        22.5490   15.0720   -6.6770 C.3    97  LEU97       0.0311
    104  CG        21.1460   15.1180   -6.0700 C.3    97  LEU97       0.0022
    105  CD1       20.1090   14.6550   -7.0580 C.3    97  LEU97       0.0001
    106  CD2       21.0920   14.2530   -4.8020 C.3    97  LEU97       0.0001
    107  N         25.6910   16.5370   -6.8560 N.am   98  ARG98      -0.1977
    108  CA        27.0840   16.5040   -7.3750 C.3    98  ARG98       0.1597
    109  C         27.1190   15.5440   -8.5540 C.2    98  ARG98       0.2287
    110  O         26.1330   15.4700   -9.2830 O.2    98  ARG98      -0.2864
    111  CB        28.1260   16.0960   -6.3320 C.3    98  ARG98       0.0334
    112  CG        28.0460   16.7590   -4.9660 C.3    98  ARG98       0.0492
    113  CD        27.6660   18.1950   -5.0480 C.3    98  ARG98       0.2205
    114  NE        28.3240   19.0160   -4.0280 N.pl3  98  ARG98      -0.0865
    115  CZ        27.8700   19.2030   -2.7910 C.cat  98  ARG98       0.5346
    116  NH1       28.5500   19.9940   -1.9570 N.pl3  98  ARG98       0.1354
    117  NH2       26.7470   18.6060   -2.3790 N.pl3  98  ARG98       0.1354
    118  N         18.3240   11.1740   -3.0450 N.3   104  VAL104     -0.1245
    119  CA        18.3160   10.9710   -1.6090 C.3   104  VAL104      0.1561
    120  C         16.8640   10.8300   -1.1870 C.2   104  VAL104      0.2260
    121  O         16.0620   11.6790   -1.5360 O.2   104  VAL104     -0.2867
    122  CB        19.0250   12.1050   -0.8390 C.3   104  VAL104      0.0252
    123  CG1       19.0660   11.7860    0.6710 C.3   104  VAL104      0.0019
    124  CG2       20.4270   12.3310   -1.3570 C.3   104  VAL104      0.0019
    125  N         14.1390   10.5100    1.8890 N.3   106  TYR106     -0.1241
    126  CA        13.9160   10.8560    3.3030 C.3   106  TYR106      0.1605
    127  C         12.6220   10.2520    3.7630 C.2   106  TYR106      0.2264
    128  O         11.6000   10.3270    3.0780 O.2   106  TYR106     -0.2867
    129  CB        13.8270   12.3760    3.4410 C.3   106  TYR106      0.0534
    130  CG        15.0600   13.1190    2.9700 C.ar  106  TYR106     -0.0201
    131  CD1       15.2240   13.4830    1.6560 C.ar  106  TYR106     -0.0009
    132  CD2       16.0760   13.4080    3.8400 C.ar  106  TYR106     -0.0009
    133  CE1       16.3660   14.1960    1.2530 C.ar  106  TYR106      0.0417
    134  CE2       17.2000   14.0720    3.4140 C.ar  106  TYR106      0.0417
    135  CZ        17.3310   14.4470    2.1320 C.ar  106  TYR106      0.1957
    136  OH        18.4390   15.1400    1.6890 O.3   106  TYR106     -0.2866
    137  N         20.9230    7.5610    0.8070 N.3   125  TYR125     -0.1241
    138  CA        21.6500    7.9720   -0.3820 C.3   125  TYR125      0.1605
    139  C         21.6900    6.8640   -1.3720 C.2   125  TYR125      0.2264
    140  O         22.0660    5.7390   -1.0220 O.2   125  TYR125     -0.2867
    141  CB        23.0660    8.4080   -0.0290 C.3   125  TYR125      0.0534
    142  CG        23.1900    9.8480    0.4130 C.ar  125  TYR125     -0.0201
    143  CD1       23.8640   10.7810   -0.3650 C.ar  125  TYR125     -0.0009
    144  CD2       22.6560   10.2850    1.6180 C.ar  125  TYR125     -0.0009
    145  CE1       23.9700   12.1040   -0.0100 C.ar  125  TYR125      0.0417
    146  CE2       22.7610   11.6350    2.0050 C.ar  125  TYR125      0.0417
    147  CZ        23.4180   12.5170    1.1890 C.ar  125  TYR125      0.1957
    148  OH        23.5270   13.8210    1.5850 O.3   125  TYR125     -0.2866
    149  N         30.1960   15.2790    1.8830 N.3   137  GLU137     -0.1245
    150  CA        28.9640   15.9460    1.4930 C.3   137  GLU137      0.1567
    151  C         27.7980   15.4370    2.3490 C.2   137  GLU137      0.2260
    152  O         26.9270   16.2150    2.7320 O.2   137  GLU137     -0.2867
    153  CB        28.7140   15.7140    0.0120 C.3   137  GLU137      0.0388
    154  CG        29.4940   16.7530   -0.8580 C.3   137  GLU137      0.1160
    155  CD        30.2560   16.2060   -2.0800 C.2   137  GLU137      0.3649
    156  OE1       29.8750   15.1500   -2.6520 O.co2 137  GLU137     -0.2457
    157  OE2       31.2570   16.8840   -2.4760 O.co2 137  GLU137     -0.2457
    158  N         28.0770   17.1960    5.7260 N.3   140  ILE140     -0.1231
    159  CA        27.6150   18.5770    5.6220 C.3   140  ILE140      0.1692
    160  C         26.0890   18.6210    5.5980 C.2   140  ILE140      0.2592
    161  O         25.4820   19.4450    6.2730 O.2   140  ILE140     -0.2718
    162  CB        28.2160   19.2530    4.3980 C.3   140  ILE140      0.0266
    163  CG1       29.7240   19.4820    4.6610 C.3   140  ILE140      0.0019
    164  CG2       27.5410   20.5870    4.1340 C.3   140  ILE140      0.0020
    165  CD1       30.5000   19.8620    3.4280 C.3   140  ILE140      0.0001
    166  N         25.4590   17.7800    4.7890 N.am  141  GLY141     -0.1957
    167  CA        24.0070   17.7690    4.7280 C.3   141  GLY141      0.1869
    168  C         23.4050   17.5560    6.1060 C.2   141  GLY141      0.2309
    169  O         22.4410   18.2040    6.4790 O.2   141  GLY141     -0.2863
    170  N         23.8870   20.6630    8.3950 N.3   144  LYS144     -0.1231
    171  CA        23.0280   21.7880    8.0220 C.3   144  LYS144      0.1693
    172  C         21.5740   21.4710    8.3770 C.2   144  LYS144      0.2591
    173  O         20.8300   22.3600    8.7800 O.2   144  LYS144     -0.2718
    174  CB        23.2150   22.1160    6.5570 C.3   144  LYS144      0.0285
    175  CG        24.6200   22.6050    6.1920 C.3   144  LYS144      0.0035
    176  CD        25.1570   23.7430    7.0320 C.3   144  LYS144      0.0206
    177  CE        24.5400   25.0360    6.6670 C.3   144  LYS144      0.1093
    178  NZ        25.0990   26.1760    7.5000 N.3   144  LYS144     -0.1314
    179  N         21.1480   20.2300    8.1860 N.am  145  ALA145     -0.1980
    180  CA        19.7820   19.8430    8.5070 C.3   145  ALA145      0.1597
    181  C         19.5230   19.9860   10.0000 C.2   145  ALA145      0.2287
    182  O         18.4820   20.4660   10.4470 O.2   145  ALA145     -0.2864
    183  CB        19.5140   18.4450    8.0720 C.3   145  ALA145      0.0319
    184  N         19.3220   23.7680   10.9510 N.3   148  PHE148     -0.1241
    185  CA        18.0510   24.2920   10.5140 C.3   148  PHE148      0.1605
    186  C         16.9400   23.8550   11.4510 C.2   148  PHE148      0.2264
    187  O         16.1040   24.6480   11.8490 O.2   148  PHE148     -0.2867
    188  CB        17.7930   23.8570    9.0840 C.3   148  PHE148      0.0534
    189  CG        16.4460   24.2450    8.5640 C.ar  148  PHE148     -0.0203
    190  CD1       16.0390   25.5570    8.4410 C.ar  148  PHE148     -0.0042
    191  CD2       15.5430   23.2380    8.2330 C.ar  148  PHE148     -0.0042
    192  CE1       14.7820   25.8740    7.9170 C.ar  148  PHE148     -0.0003
    193  CE2       14.3090   23.5580    7.7110 C.ar  148  PHE148     -0.0003
    194  CZ        13.9180   24.8510    7.5640 C.ar  148  PHE148     -0.0000
@<TRIPOS>BOND
     1   110   109    2
     2   109   108    1
     3   108   107    1
     4   108   111    1
     5   105   104    1
     6   107   101   am
     7   103   104    1
     8   103   100    1
     9   102   101    2
    10   101   100    1
    11   111   112    1
    12   104   106    1
    13    76    77    1
    14    78    77    1
    15    78    79    2
    16    92    93    1
    17   100    99    1
    18    70    71    2
    19    70    69    1
    20    77    80    1
    21    99    94   am
    22    50    49    2
    23    61    60    2
    24    69    68    1
    25    69    72    1
    26   113   112    1
    27   113   114    1
    28    86    87    2
    29    86    85    1
    30    94    93    1
    31    94    95    2
    32    93    96    1
    33    47    48    1
    34    60    59    1
    35    75    73    1
    36    49    48    1
    37    80    81    1
    38   114   115    2
    39    58    59    1
    40    72    73    1
    41    90    89    1
    42    97    96    1
    43    48    51    1
    44    51    52    1
    45    81    82    1
    46    85    84    1
    47    85    88    1
    48    96    98    1
    49    54    52   ar
    50    54    56   ar
    51    89    88    1
    52    89    91    1
    53    73    74    1
    54    59    62    1
    55   118   119    1
    56    52    53   ar
    57   115   117    1
    58   115   116    1
    59   156   155   ar
    60    56    57   ar
    61    62    63    1
    62   157   155   ar
    63   155   154    1
    64    64    63   ar
    65    64    66   ar
    66    82    83    1
    67   119   120    1
    68   119   122    1
    69    63    65   ar
    70    53    55   ar
    71   121   120    2
    72   139   140    2
    73   139   138    1
    74   124   122    1
    75    57    55   ar
    76    66    67   ar
    77   154   153    1
    78   122   123    1
    79    38    37    1
    80    38    39    2
    81    32    31    2
    82   138   141    1
    83   138   137    1
    84   143   145   ar
    85   143   142   ar
    86    65    67   ar
    87    37    40    1
    88    37    36    1
    89   141   142    1
    90   145   147   ar
    91   153   150    1
    92    42    44   ar
    93    42    41   ar
    94    31    36   am
    95    31    30    1
    96   142   144   ar
    97    40    41    1
    98    44    46   ar
    99    41    43   ar
   100   147   148    1
   101   147   146   ar
   102   133   131   ar
   103   133   135   ar
   104    30    29    1
   105    30    33    1
   106   150   149    1
   107   150   151    1
   108   144   146   ar
   109   131   130   ar
   110   136   135    1
   111    34    33    1
   112    46    45   ar
   113   125   126    1
   114   135   134   ar
   115   151   152    2
   116    43    45   ar
   117    33    35    1
   118    18    17    1
   119   130   129    1
   120   130   132   ar
   121   128   127    2
   122     3     4    2
   123     3     2    1
   124   126   129    1
   125   126   127    1
   126    16    17    1
   127    16    13    1
   128   134   132   ar
   129   165   163    1
   130    23    22    2
   131    17    19    1
   132    14    13    1
   133    14    15    2
   134   164   162    1
   135     1     2    1
   136     5     2    1
   137     5     6    1
   138     7     6    1
   139     7     8    1
   140   162   163    1
   141   162   159    1
   142    13    12    1
   143    22    21    1
   144   167   166    1
   145   167   168    1
   146     8     9    2
   147   166   160   am
   148   160   159    1
   149   160   161    2
   150   159   158    1
   151    24    21    1
   152    24    25    1
   153    21    20    1
   154     9    10    1
   155     9    11    1
   156    27    26    2
   157   168   169    2
   158   175   174    1
   159   175   176    1
   160   174   171    1
   161   177   176    1
   162   177   178    1
   163    26    25    1
   164    26    28   am
   165   194   193   ar
   166   194   192   ar
   167   193   191   ar
   168   192   190   ar
   169   171   172    1
   170   171   170    1
   171   183   180    1
   172   179   172   am
   173   179   180    1
   174   191   189   ar
   175   172   173    2
   176   190   189   ar
   177   180   181    1
   178   189   188    1
   179   188   185    1
   180   181   182    2
   181   185   184    1
   182   185   186    1
   183   186   187    2
