@<TRIPOS>MOLECULE
tmp/5i8gA00.pdb
 131 126 0 0 0
SMALL
GASTEIGER

@<TRIPOS>ATOM
      1  N         39.0970    3.5250   11.5850 N.3    28  PRO28      -0.2116
      2  CA        38.4200    4.6170   12.2920 C.3    28  PRO28       0.1372
      3  C         36.8960    4.5480   12.3040 C.2    28  PRO28       0.2244
      4  O         36.2840    5.4290   12.8970 O.2    28  PRO28      -0.2868
      5  CB        38.8390    5.8450   11.4730 C.3    28  PRO28       0.0268
      6  CG        38.8810    5.3190   10.0720 C.3    28  PRO28       0.0207
      7  CD        39.4440    3.9040   10.1990 C.3    28  PRO28       0.0892
      8  N         34.5170    5.1870   15.2960 N.3    31  LEU31      -0.1231
      9  CA        34.7720    6.3070   16.2000 C.3    31  LEU31       0.1678
     10  C         33.6050    7.2780   16.3360 C.2    31  LEU31       0.2434
     11  O         33.3070    7.6740   17.4770 O.2    31  LEU31      -0.2733
     12  CB        36.0980    6.9990   15.8420 C.3    31  LEU31       0.0284
     13  CG        37.3340    6.0940   15.9470 C.3    31  LEU31       0.0019
     14  CD1       38.5800    6.8470   15.4500 C.3    31  LEU31       0.0001
     15  CD2       37.5450    5.5750   17.3490 C.3    31  LEU31       0.0001
     16  N         32.8880    7.6600   15.2730 N.am   32  PRO32      -0.2718
     17  CA        31.7410    8.5710   15.4510 C.3    32  PRO32       0.1535
     18  C         30.5790    7.9600   16.2090 C.2    32  PRO32       0.2598
     19  O         29.6750    8.7090   16.5860 O.2    32  PRO32      -0.2715
     20  CB        31.3180    8.8930   14.0100 C.3    32  PRO32       0.0310
     21  CG        32.5460    8.5650   13.1610 C.3    32  PRO32       0.0237
     22  CD        33.1520    7.3950   13.8420 C.3    32  PRO32       0.0939
     23  N         30.5790    6.6440   16.4090 N.am   33  PHE33      -0.1974
     24  CA        29.4370    5.8870   16.8990 C.3    33  PHE33       0.1639
     25  C         29.6460    5.3060   18.2840 C.2    33  PHE33       0.2290
     26  O         28.7290    4.6760   18.8150 O.2    33  PHE33      -0.2864
     27  CB        29.1230    4.7700   15.9010 C.3    33  PHE33       0.0560
     28  CG        28.8870    5.2840   14.5200 C.ar   33  PHE33      -0.0200
     29  CD1       29.8810    5.2280   13.5610 C.ar   33  PHE33      -0.0042
     30  CD2       27.6950    5.9050   14.1990 C.ar   33  PHE33      -0.0042
     31  CE1       29.6760    5.7320   12.2950 C.ar   33  PHE33      -0.0003
     32  CE2       27.4890    6.4170   12.9230 C.ar   33  PHE33      -0.0003
     33  CZ        28.4860    6.3220   11.9750 C.ar   33  PHE33      -0.0000
     34  N         29.8810    6.7230   21.1760 N.3    35  GLN35      -0.1245
     35  CA        29.3400    7.5020   22.2790 C.3    35  GLN35       0.1566
     36  C         28.0930    8.2210   21.8100 C.2    35  GLN35       0.2260
     37  O         27.9280    8.4640   20.6090 O.2    35  GLN35      -0.2867
     38  CB        30.3430    8.5460   22.7950 C.3    35  GLN35       0.0367
     39  CG        30.8510    9.5330   21.7430 C.3    35  GLN35       0.0905
     40  CD        31.7940    8.8980   20.7190 C.2    35  GLN35       0.2608
     41  OE1       32.8010    8.2760   21.0830 O.2    35  GLN35      -0.2717
     42  NE2       31.4600    9.0390   19.4320 N.am   35  GLN35      -0.0878
     43  N         25.5560   10.9410   20.5700 N.3    37  VAL37      -0.1245
     44  CA        25.7410   12.1960   19.8470 C.3    37  VAL37       0.1561
     45  C         25.4640   13.3660   20.7760 C.2    37  VAL37       0.2260
     46  O         24.4170   13.4300   21.4370 O.2    37  VAL37      -0.2867
     47  CB        24.8370   12.2490   18.6020 C.3    37  VAL37       0.0252
     48  CG1       25.0650   13.5620   17.8410 C.3    37  VAL37       0.0019
     49  CG2       25.1030   11.0500   17.6950 C.3    37  VAL37       0.0019
     50  N         29.6340   18.8390   19.3500 N.3    42  LEU42      -0.1245
     51  CA        30.0530   18.6230   17.9720 C.3    42  LEU42       0.1561
     52  C         29.7830   19.8160   17.0700 C.2    42  LEU42       0.2260
     53  O         30.3020   19.8480   15.9510 O.2    42  LEU42      -0.2867
     54  CB        29.3260   17.4070   17.3970 C.3    42  LEU42       0.0270
     55  CG        29.5870   16.1000   18.1310 C.3    42  LEU42       0.0019
     56  CD1       28.6480   15.0130   17.6030 C.3    42  LEU42       0.0001
     57  CD2       31.0380   15.6760   17.9830 C.3    42  LEU42       0.0001
     58  N         26.6850   20.6600   15.8760 N.3    44  ILE44      -0.1245
     59  CA        25.6200   20.3300   14.9340 C.3    44  ILE44       0.1561
     60  C         24.2740   20.5810   15.6090 C.2    44  ILE44       0.2260
     61  O         23.5190   19.6340   15.8880 O.2    44  ILE44      -0.2867
     62  CB        25.7860   18.9050   14.3770 C.3    44  ILE44       0.0252
     63  CG1       26.0180   17.8880   15.4960 C.3    44  ILE44       0.0019
     64  CG2       26.9550   18.8630   13.4030 C.3    44  ILE44       0.0019
     65  CD1       25.8990   16.4430   15.0390 C.3    44  ILE44       0.0001
     66  N         20.7930   18.7720   14.9640 N.3    47  TYR47      -0.1241
     67  CA        20.7800   17.3110   14.9090 C.3    47  TYR47       0.1605
     68  C         19.4320   16.7430   15.3220 C.2    47  TYR47       0.2264
     69  O         18.8680   15.8910   14.6290 O.2    47  TYR47      -0.2867
     70  CB        21.9020   16.7330   15.7760 C.3    47  TYR47       0.0534
     71  CG        21.9810   15.2230   15.7070 C.ar   47  TYR47      -0.0201
     72  CD1       22.5690   14.5930   14.6180 C.ar   47  TYR47      -0.0009
     73  CD2       21.4790   14.4310   16.7290 C.ar   47  TYR47      -0.0009
     74  CE1       22.6460   13.2260   14.5380 C.ar   47  TYR47       0.0417
     75  CE2       21.5520   13.0560   16.6690 C.ar   47  TYR47       0.0417
     76  CZ        22.1350   12.4590   15.5640 C.ar   47  TYR47       0.1957
     77  OH        22.2120   11.0950   15.5110 O.3    47  TYR47      -0.2866
     78  N         22.4410    8.0290   10.9230 N.3    86  ALA86      -0.1245
     79  CA        23.6390    8.6340   10.3540 C.3    86  ALA86       0.1562
     80  C         23.5120    8.8150    8.8430 C.2    86  ALA86       0.2260
     81  O         23.9690    9.8280    8.2960 O.2    86  ALA86      -0.2867
     82  CB        24.8470    7.7680   10.6650 C.3    86  ALA86       0.0290
     83  N         21.2020   11.9780    8.5550 N.3    89  TYR89      -0.1227
     84  CA        21.7190   13.2740    8.9840 C.3    89  TYR89       0.1736
     85  C         22.8900   13.7380    8.1240 C.2    89  TYR89       0.2595
     86  O         23.0200   14.9380    7.8340 O.2    89  TYR89      -0.2718
     87  CB        22.1040   13.2540   10.4770 C.3    89  TYR89       0.0548
     88  CG        22.6070   14.6140   10.8810 C.ar   89  TYR89      -0.0200
     89  CD1       21.7060   15.6640   11.0510 C.ar   89  TYR89      -0.0009
     90  CD2       23.9620   14.8820   10.9930 C.ar   89  TYR89      -0.0009
     91  CE1       22.1470   16.9320   11.3370 C.ar   89  TYR89       0.0417
     92  CE2       24.4110   16.1540   11.2840 C.ar   89  TYR89       0.0417
     93  CZ        23.4920   17.1680   11.4660 C.ar   89  TYR89       0.1957
     94  OH        23.9300   18.4480   11.7480 O.3    89  TYR89      -0.2866
     95  N         23.7690   12.8180    7.7440 N.am   90  ASN90      -0.1974
     96  CA        25.0210   13.1690    7.0880 C.3    90  ASN90       0.1688
     97  C         24.8830   13.0430    5.5800 C.2    90  ASN90       0.2292
     98  O         24.1040   12.2370    5.0740 O.2    90  ASN90      -0.2864
     99  CB        26.1480   12.2700    7.5830 C.3    90  ASN90       0.1181
    100  CG        26.3060   12.3300    9.0850 C.2    90  ASN90       0.2629
    101  OD1       26.9510   13.2210    9.6180 O.2    90  ASN90      -0.2716
    102  ND2       25.7100   11.3800    9.7700 N.am   90  ASN90      -0.0877
    103  N         32.5630   11.8970    5.6890 N.3    95  ARG95      -0.1231
    104  CA        33.2900   10.7870    6.2970 C.3    95  ARG95       0.1694
    105  C         32.3910    9.9570    7.2050 C.2    95  ARG95       0.2591
    106  O         32.4540    8.7260    7.1940 O.2    95  ARG95      -0.2718
    107  CB        34.4970   11.3190    7.0640 C.3    95  ARG95       0.0321
    108  CG        35.5950   11.8350    6.1550 C.3    95  ARG95       0.0489
    109  CD        36.8780   11.0580    6.3680 C.3    95  ARG95       0.2205
    110  NE        37.8790   11.3780    5.3560 N.pl3  95  ARG95      -0.0865
    111  CZ        39.1640   11.0610    5.4580 C.cat  95  ARG95       0.5346
    112  NH1       39.6030   10.4210    6.5360 N.pl3  95  ARG95       0.1354
    113  NH2       40.0110   11.3870    4.4900 N.pl3  95  ARG95       0.1354
    114  N         31.5420   10.6140    7.9980 N.am   96  VAL96      -0.1980
    115  CA        30.6620    9.8630    8.9010 C.3    96  VAL96       0.1595
    116  C         29.7350    8.9300    8.1190 C.2    96  VAL96       0.2287
    117  O         29.5070    7.7770    8.5190 O.2    96  VAL96      -0.2864
    118  CB        29.8840   10.8150    9.8290 C.3    96  VAL96       0.0276
    119  CG1       28.8610   10.0380   10.6630 C.3    96  VAL96       0.0022
    120  CG2       30.8430   11.5790   10.7530 C.3    96  VAL96       0.0022
    121  N         31.8200    6.0500    6.8580 N.3    99  PHE99      -0.1241
    122  CA        32.1480    5.1700    7.9760 C.3    99  PHE99       0.1605
    123  C         30.9470    4.3200    8.3640 C.2    99  PHE99       0.2264
    124  O         31.0830    3.1250    8.6410 O.2    99  PHE99      -0.2867
    125  CB        32.5830    5.9920    9.1890 C.3    99  PHE99       0.0534
    126  CG        33.9720    6.5910    9.0860 C.ar   99  PHE99      -0.0203
    127  CD1       34.7500    6.4760    7.9370 C.ar   99  PHE99      -0.0042
    128  CD2       34.5000    7.2340   10.1890 C.ar   99  PHE99      -0.0042
    129  CE1       36.0360    7.0350    7.8950 C.ar   99  PHE99      -0.0003
    130  CE2       35.7730    7.8030   10.1560 C.ar   99  PHE99      -0.0003
    131  CZ        36.5400    7.6990    9.0060 C.ar   99  PHE99      -0.0000
@<TRIPOS>BOND
     1   113   111    1
     2    98    97    2
     3   110   111    2
     4   110   109    1
     5   111   112    1
     6    97    96    1
     7   103   104    1
     8   108   109    1
     9   108   107    1
    10   104   107    1
    11   104   105    1
    12   121   122    1
    13    96    99    1
    14    96    95    1
    15   106   105    2
    16   105   114   am
    17    99   100    1
    18    95    85   am
    19    86    85    2
    20   129   127   ar
    21   129   131   ar
    22   127   126   ar
    23   122   123    1
    24   122   125    1
    25   114   115    1
    26   116   117    2
    27   116   115    1
    28    85    84    1
    29    81    80    2
    30   123   124    2
    31    83    84    1
    32    80    79    1
    33   115   118    1
    34    84    87    1
    35   131   130   ar
    36   100   101    2
    37   100   102   am
    38   126   125    1
    39   126   128   ar
    40   118   119    1
    41   118   120    1
    42     6     7    1
    43     6     5    1
    44   130   128   ar
    45     7     1    1
    46    79    82    1
    47    79    78    1
    48    87    88    1
    49    88    90   ar
    50    88    89   ar
    51    90    92   ar
    52    89    91   ar
    53    92    93   ar
    54    91    93   ar
    55    93    94    1
    56     5     2    1
    57     1     2    1
    58    33    31   ar
    59    33    32   ar
    60     2     3    1
    61    31    29   ar
    62     3     4    2
    63    32    30   ar
    64    21    22    1
    65    21    20    1
    66    64    62    1
    67    29    28   ar
    68    22    16    1
    69    20    17    1
    70    30    28   ar
    71    62    59    1
    72    62    63    1
    73    28    27    1
    74    74    72   ar
    75    74    76   ar
    76    72    71   ar
    77    69    68    2
    78    67    66    1
    79    67    68    1
    80    67    70    1
    81    59    60    1
    82    59    58    1
    83    65    63    1
    84    16    17    1
    85    16    10   am
    86     8     9    1
    87    14    13    1
    88    17    18    1
    89    77    76    1
    90    76    75   ar
    91    60    61    2
    92    71    70    1
    93    71    73   ar
    94    12    13    1
    95    12     9    1
    96    27    24    1
    97    13    15    1
    98    53    52    2
    99     9    10    1
   100    18    23   am
   101    18    19    2
   102    10    11    2
   103    23    24    1
   104    75    73   ar
   105    24    25    1
   106    52    51    1
   107    54    51    1
   108    54    55    1
   109    56    55    1
   110    49    47    1
   111    48    47    1
   112    51    50    1
   113    57    55    1
   114    25    26    2
   115    47    44    1
   116    42    40   am
   117    44    43    1
   118    44    45    1
   119    37    36    2
   120    40    41    2
   121    40    39    1
   122    45    46    2
   123    34    35    1
   124    39    38    1
   125    36    35    1
   126    35    38    1
