@<TRIPOS>MOLECULE
tmp/5i8mC00.pdb
 71 69 0 0 0
SMALL
GASTEIGER

@<TRIPOS>ATOM
      1  N        -32.9460  -26.6780  -32.3150 N.3    36  THR36      -0.1203
      2  CA       -32.5110  -25.7190  -31.3050 C.3    36  THR36       0.1994
      3  C        -31.7090  -26.4210  -30.2170 C.2    36  THR36       0.2618
      4  O        -32.1890  -27.3740  -29.5950 O.2    36  THR36      -0.2717
      5  CB       -33.7120  -25.0010  -30.6960 C.3    36  THR36       0.1784
      6  OG1      -34.3720  -24.2280  -31.7050 O.3    36  THR36      -0.2211
      7  CG2      -33.2580  -24.0760  -29.5770 C.3    36  THR36       0.0376
      8  N        -30.4730  -25.9600  -30.0030 N.am   37  ALA37      -0.1965
      9  CA       -29.6050  -26.5000  -28.9670 C.3    37  ALA37       0.1728
     10  C        -29.3730  -25.5390  -27.8120 C.2    37  ALA37       0.2616
     11  O        -29.0670  -25.9920  -26.7030 O.2    37  ALA37      -0.2715
     12  CB       -28.2450  -26.8970  -29.5610 C.3    37  ALA37       0.0334
     13  N        -29.5130  -24.2360  -28.0400 N.am   38  ALA38      -0.1963
     14  CA       -29.3320  -23.2450  -26.9910 C.3    38  ALA38       0.1728
     15  C        -30.0570  -21.9750  -27.3990 C.2    38  ALA38       0.2617
     16  O        -30.1370  -21.6470  -28.5860 O.2    38  ALA38      -0.2715
     17  CB       -27.8490  -22.9510  -26.7330 C.3    38  ALA38       0.0334
     18  N        -30.5770  -21.2640  -26.4020 N.am   39  THR39      -0.1937
     19  CA       -31.2710  -20.0000  -26.6170 C.3    39  THR39       0.2028
     20  C        -30.8100  -19.0100  -25.5590 C.2    39  THR39       0.2642
     21  O        -30.9000  -19.2950  -24.3600 O.2    39  THR39      -0.2714
     22  CB       -32.7940  -20.1860  -26.5620 C.3    39  THR39       0.1808
     23  OG1      -33.2230  -20.9920  -27.6670 O.3    39  THR39      -0.2208
     24  CG2      -33.5060  -18.8440  -26.6180 C.3    39  THR39       0.0379
     25  N        -30.2970  -17.8630  -26.0020 N.am   40  PHE40      -0.1973
     26  CA       -29.9050  -16.7720  -25.1230 C.3    40  PHE40       0.1639
     27  C        -30.8540  -15.5990  -25.3220 C.2    40  PHE40       0.2290
     28  O        -31.4310  -15.4230  -26.4000 O.2    40  PHE40      -0.2864
     29  CB       -28.4680  -16.3010  -25.3940 C.3    40  PHE40       0.0560
     30  CG       -27.4360  -17.3870  -25.3180 C.ar   40  PHE40      -0.0200
     31  CD1      -27.5320  -18.3980  -24.3720 C.ar   40  PHE40      -0.0042
     32  CD2      -26.3580  -17.3920  -26.1950 C.ar   40  PHE40      -0.0042
     33  CE1      -26.5760  -19.3940  -24.3020 C.ar   40  PHE40      -0.0003
     34  CE2      -25.3940  -18.3850  -26.1310 C.ar   40  PHE40      -0.0003
     35  CZ       -25.5020  -19.3900  -25.1840 C.ar   40  PHE40      -0.0000
     36  N        -24.9100  -11.9090  -22.8260 N.3    50  ILE50      -0.1231
     37  CA       -26.2490  -12.4100  -22.5340 C.3    50  ILE50       0.1692
     38  C        -26.3130  -13.9280  -22.5390 C.2    50  ILE50       0.2593
     39  O        -27.3830  -14.4940  -22.2760 O.2    50  ILE50      -0.2718
     40  CB       -27.2920  -11.8590  -23.5290 C.3    50  ILE50       0.0266
     41  CG1      -27.0090  -12.3830  -24.9370 C.3    50  ILE50       0.0019
     42  CG2      -27.2820  -10.3480  -23.5220 C.3    50  ILE50       0.0020
     43  CD1      -28.0290  -11.9580  -25.9680 C.3    50  ILE50       0.0001
     44  N        -25.2080  -14.6060  -22.8380 N.am   51  GLY51      -0.1942
     45  CA       -25.1650  -16.0540  -22.7670 C.3    51  GLY51       0.2014
     46  C        -23.8550  -16.6400  -23.2540 C.2    51  GLY51       0.2640
     47  O        -23.2290  -16.1010  -24.1720 O.2    51  GLY51      -0.2714
     48  N        -23.4200  -17.7360  -22.6370 N.am   52  THR52      -0.1936
     49  CA       -22.2450  -18.4560  -23.1040 C.3    52  THR52       0.2028
     50  C        -22.4160  -19.9270  -22.7500 C.2    52  THR52       0.2642
     51  O        -22.8700  -20.2600  -21.6510 O.2    52  THR52      -0.2714
     52  CB       -20.9510  -17.8780  -22.5110 C.3    52  THR52       0.1808
     53  OG1      -19.8130  -18.5400  -23.0860 O.3    52  THR52      -0.2208
     54  CG2      -20.9310  -18.0260  -21.0000 C.3    52  THR52       0.0379
     55  N        -22.0710  -20.8010  -23.6920 N.am   53  GLN53      -0.1976
     56  CA       -22.4620  -22.1990  -23.5820 C.3    53  GLN53       0.1601
     57  C        -21.5010  -23.0720  -24.3780 C.2    53  GLN53       0.2287
     58  O        -20.9880  -22.6640  -25.4230 O.2    53  GLN53      -0.2864
     59  CB       -23.9000  -22.3950  -24.0830 C.3    53  GLN53       0.0394
     60  CG       -24.4490  -23.7850  -23.8950 C.3    53  GLN53       0.0908
     61  CD       -24.6500  -24.1210  -22.4400 C.2    53  GLN53       0.2608
     62  OE1      -25.5620  -23.6070  -21.7970 O.2    53  GLN53      -0.2717
     63  NE2      -23.7920  -24.9820  -21.9050 N.am   53  GLN53      -0.0878
     64  N        -21.3700  -26.5350  -26.4570 N.3    55  LEU55      -0.1245
     65  CA       -22.2650  -27.4510  -27.1420 C.3    55  LEU55       0.1561
     66  C        -21.4440  -28.4410  -27.9490 C.2    55  LEU55       0.2260
     67  O        -20.2230  -28.3140  -28.0810 O.2    55  LEU55      -0.2867
     68  CB       -23.2500  -26.6990  -28.0460 C.3    55  LEU55       0.0270
     69  CG       -24.1680  -25.7080  -27.3320 C.3    55  LEU55       0.0019
     70  CD1      -24.9530  -24.8880  -28.3430 C.3    55  LEU55       0.0001
     71  CD2      -25.1030  -26.4500  -26.3820 C.3    55  LEU55       0.0001
@<TRIPOS>BOND
     1     1     2    1
     2     6     5    1
     3     2     5    1
     4     2     3    1
     5     5     7    1
     6     3     8   am
     7     3     4    2
     8     8     9    1
     9    12     9    1
    10     9    10    1
    11    16    15    2
    12    70    69    1
    13    67    66    2
    14    68    69    1
    15    68    65    1
    16    13    10   am
    17    13    14    1
    18    66    65    1
    19    10    11    2
    20    23    22    1
    21    15    14    1
    22    15    18   am
    23    69    71    1
    24    65    64    1
    25    14    17    1
    26    24    22    1
    27    19    22    1
    28    19    18    1
    29    19    20    1
    30    28    27    2
    31    32    34   ar
    32    32    30   ar
    33    34    35   ar
    34    25    20   am
    35    25    26    1
    36    43    41    1
    37    20    21    2
    38    58    57    2
    39    29    30    1
    40    29    26    1
    41    27    26    1
    42    30    31   ar
    43    35    33   ar
    44    41    40    1
    45    57    56    1
    46    31    33   ar
    47    47    46    2
    48    59    60    1
    49    59    56    1
    50    60    61    1
    51    55    56    1
    52    55    50   am
    53    40    42    1
    54    40    37    1
    55    46    45    1
    56    46    48   am
    57    49    50    1
    58    49    48    1
    59    49    52    1
    60    53    52    1
    61    44    45    1
    62    44    38   am
    63    36    37    1
    64    50    51    2
    65    38    37    1
    66    38    39    2
    67    52    54    1
    68    61    63   am
    69    61    62    2
