@<TRIPOS>MOLECULE
tmp/5i8pB00.pdb
 217 211 0 0 0
SMALL
GASTEIGER

@<TRIPOS>ATOM
      1  N         64.8080   39.9030   25.0300 N.3    49  LEU49      -0.1245
      2  CA        64.4640   40.9260   24.0490 C.3    49  LEU49       0.1561
      3  C         63.3120   41.7950   24.5400 C.2    49  LEU49       0.2260
      4  O         63.3520   43.0220   24.4210 O.2    49  LEU49      -0.2867
      5  CB        64.1170   40.2910   22.7030 C.3    49  LEU49       0.0270
      6  CG        65.3640   39.9370   21.9060 C.3    49  LEU49       0.0019
      7  CD1       65.0420   39.0600   20.7040 C.3    49  LEU49       0.0001
      8  CD2       66.0810   41.2130   21.4920 C.3    49  LEU49       0.0001
      9  N         64.2480   44.1910   27.1520 N.3    52  PHE52      -0.1227
     10  CA        65.0140   45.2590   26.5180 C.3    52  PHE52       0.1736
     11  C         64.0730   46.3090   25.9350 C.2    52  PHE52       0.2595
     12  O         64.3010   47.5090   26.0750 O.2    52  PHE52      -0.2718
     13  CB        65.9370   44.6970   25.4320 C.3    52  PHE52       0.0547
     14  CG        66.6200   45.7520   24.6000 C.ar   52  PHE52      -0.0202
     15  CD1       67.5130   46.6410   25.1810 C.ar   52  PHE52      -0.0042
     16  CD2       66.3780   45.8440   23.2320 C.ar   52  PHE52      -0.0042
     17  CE1       68.1470   47.6120   24.4230 C.ar   52  PHE52      -0.0003
     18  CE2       67.0070   46.8160   22.4610 C.ar   52  PHE52      -0.0003
     19  CZ        67.8960   47.7030   23.0550 C.ar   52  PHE52      -0.0000
     20  N         63.0070   45.8420   25.2960 N.am   53  LEU53      -0.1980
     21  CA        62.0140   46.7210   24.6950 C.3    53  LEU53       0.1596
     22  C         61.0760   47.3690   25.7040 C.2    53  LEU53       0.2287
     23  O         60.3280   48.2750   25.3560 O.2    53  LEU53      -0.2864
     24  CB        61.1850   45.9520   23.6680 C.3    53  LEU53       0.0297
     25  CG        61.9580   45.4480   22.4590 C.3    53  LEU53       0.0022
     26  CD1       61.1210   44.4570   21.6770 C.3    53  LEU53       0.0001
     27  CD2       62.3670   46.6230   21.5940 C.3    53  LEU53       0.0001
     28  N         55.1510   39.5750   26.5460 N.3    58  MET58      -0.1245
     29  CA        55.4950   39.8360   25.1510 C.3    58  MET58       0.1570
     30  C         56.5510   38.8300   24.6550 C.2    58  MET58       0.2261
     31  O         56.6410   38.5360   23.4550 O.2    58  MET58      -0.2867
     32  CB        56.0030   41.2700   24.9870 C.3    58  MET58       0.0387
     33  CG        56.3020   41.6820   23.5490 C.3    58  MET58       0.0595
     34  SD        54.8810   41.5300   22.4400 S.3    58  MET58      -0.1393
     35  CE        55.4980   42.3690   20.9900 C.3    58  MET58       0.0692
     36  N         56.8820   36.9840   20.9830 N.3    62  LEU62      -0.1245
     37  CA        58.1170   37.0080   20.2130 C.3    62  LEU62       0.1561
     38  C         58.5890   35.5950   19.8820 C.2    62  LEU62       0.2260
     39  O         58.8900   35.2670   18.7290 O.2    62  LEU62      -0.2867
     40  CB        59.1860   37.7550   20.9960 C.3    62  LEU62       0.0270
     41  CG        58.8500   39.2350   21.0730 C.3    62  LEU62       0.0019
     42  CD1       59.8360   39.9520   21.9610 C.3    62  LEU62       0.0001
     43  CD2       58.8500   39.8110   19.6670 C.3    62  LEU62       0.0001
     44  N         58.7600   34.0700   16.1370 N.3    66  PHE66      -0.1241
     45  CA        60.1360   34.0270   15.6270 C.3    66  PHE66       0.1605
     46  C         60.9440   32.7940   16.0410 C.2    66  PHE66       0.2264
     47  O         62.0270   32.5690   15.5170 O.2    66  PHE66      -0.2867
     48  CB        60.8750   35.2940   16.0640 C.3    66  PHE66       0.0534
     49  CG        60.3190   36.5630   15.4550 C.ar   66  PHE66      -0.0203
     50  CD1       60.1650   36.6810   14.0800 C.ar   66  PHE66      -0.0042
     51  CD2       59.9340   37.6260   16.2560 C.ar   66  PHE66      -0.0042
     52  CE1       59.6500   37.8480   13.5100 C.ar   66  PHE66      -0.0003
     53  CE2       59.4100   38.7920   15.6960 C.ar   66  PHE66      -0.0003
     54  CZ        59.2740   38.9040   14.3280 C.ar   66  PHE66      -0.0000
     55  N         75.2460   44.6740   19.0870 N.3    93  GLY93      -0.1210
     56  CA        74.7260   45.8500   19.7660 C.3    93  GLY93       0.1956
     57  C         74.1080   45.5880   21.1290 C.2    93  GLY93       0.2612
     58  O         73.9430   44.4300   21.5410 O.2    93  GLY93      -0.2717
     59  N         73.7830   46.6750   21.8310 N.am   94  LEU94      -0.1965
     60  CA        73.0530   46.6120   23.0970 C.3    94  LEU94       0.1728
     61  C         71.6760   46.0190   22.8420 C.2    94  LEU94       0.2617
     62  O         71.0630   46.3000   21.8220 O.2    94  LEU94      -0.2715
     63  CB        72.9190   48.0060   23.7440 C.3    94  LEU94       0.0311
     64  CG        71.9990   48.1120   24.9690 C.3    94  LEU94       0.0022
     65  CD1       72.7650   47.7090   26.2370 C.3    94  LEU94       0.0001
     66  CD2       71.3600   49.5000   25.1230 C.3    94  LEU94       0.0001
     67  N         71.2110   45.1880   23.7630 N.am   95  GLY95      -0.1940
     68  CA        69.9520   44.4950   23.6060 C.3    95  GLY95       0.2014
     69  C         70.0370   43.3350   22.6350 C.2    95  GLY95       0.2638
     70  O         69.0890   42.5570   22.5320 O.2    95  GLY95      -0.2714
     71  N         71.1580   43.1980   21.9270 N.am   96  ALA96      -0.1977
     72  CA        71.3020   42.0790   20.9940 C.3    96  ALA96       0.1597
     73  C         72.0360   40.8930   21.6250 C.2    96  ALA96       0.2287
     74  O         72.2070   40.8300   22.8410 O.2    96  ALA96      -0.2864
     75  CB        72.0260   42.5210   19.7520 C.3    96  ALA96       0.0319
     76  N         72.1920   37.6360   16.1200 N.3   100  LEU100     -0.1231
     77  CA        71.3620   38.6180   15.4330 C.3   100  LEU100      0.1693
     78  C         71.9920   39.3240   14.2340 C.2   100  LEU100      0.2592
     79  O         71.3540   40.1990   13.6440 O.2   100  LEU100     -0.2718
     80  CB        70.8820   39.6630   16.4370 C.3   100  LEU100      0.0284
     81  CG        69.9170   38.9850   17.3990 C.3   100  LEU100      0.0019
     82  CD1       69.2580   39.9970   18.3060 C.3   100  LEU100      0.0001
     83  CD2       68.8780   38.1630   16.5930 C.3   100  LEU100      0.0001
     84  N         73.2230   38.9610   13.8690 N.am  101  TYR101     -0.1976
     85  CA        73.8710   39.5970   12.7220 C.3   101  TYR101      0.1639
     86  C         74.3700   38.5720   11.7030 C.2   101  TYR101      0.2290
     87  O         75.4620   38.7110   11.1430 O.2   101  TYR101     -0.2864
     88  CB        75.0280   40.4960   13.1900 C.3   101  TYR101      0.0560
     89  CG        74.6020   41.6240   14.1160 C.ar  101  TYR101     -0.0198
     90  CD1       74.2560   42.8880   13.6190 C.ar  101  TYR101     -0.0009
     91  CD2       74.5420   41.4350   15.4880 C.ar  101  TYR101     -0.0009
     92  CE1       73.8770   43.9350   14.4830 C.ar  101  TYR101      0.0417
     93  CE2       74.1530   42.4630   16.3410 C.ar  101  TYR101      0.0417
     94  CZ        73.8320   43.7080   15.8390 C.ar  101  TYR101      0.1957
     95  OH        73.4590   44.7060   16.7180 O.3   101  TYR101     -0.2866
     96  N         78.2150   46.6280   15.4120 N.3   213  HIS213     -0.1226
     97  CA        77.0980   47.5450   15.2310 C.3   213  HIS213      0.1752
     98  C         76.7530   48.2500   16.5260 C.2   213  HIS213      0.2597
     99  O         76.6340   47.6130   17.5710 O.2   213  HIS213     -0.2718
    100  CB        75.8670   46.7890   14.7000 C.3   213  HIS213      0.0759
    101  CG        74.5850   47.5660   14.7730 C.ar  213  HIS213      0.0818
    102  ND1       73.5170   47.1620   15.5460 N.ar  213  HIS213     -0.2268
    103  CD2       74.1850   48.6980   14.1440 C.ar  213  HIS213      0.1154
    104  CE1       72.5170   48.0160   15.3990 C.ar  213  HIS213      0.1986
    105  NE2       72.8970   48.9590   14.5550 N.ar  213  HIS213     -0.2212
    106  N         76.5800   49.5650   16.4440 N.am  214  SER214     -0.1938
    107  CA        76.0730   50.3450   17.5660 C.3   214  SER214      0.2055
    108  C         77.0320   50.2130   18.7650 C.2   214  SER214      0.2643
    109  O         78.1590   50.6590   18.6590 O.2   214  SER214     -0.2714
    110  CB        74.6500   49.9110   17.9130 C.3   214  SER214      0.2130
    111  OG        73.9750   50.9130   18.6470 O.3   214  SER214     -0.2179
    112  N         76.6000   49.6290   19.8900 N.am  215  PHE215     -0.1973
    113  CA        77.4820   49.4450   21.0490 C.3   215  PHE215      0.1639
    114  C         78.7220   48.6540   20.5780 C.2   215  PHE215      0.2290
    115  O         79.8600   48.9870   20.9220 O.2   215  PHE215     -0.2864
    116  CB        76.7160   48.7560   22.1850 C.3   215  PHE215      0.0560
    117  CG        77.3320   48.9050   23.5580 C.ar  215  PHE215     -0.0200
    118  CD1       78.5270   49.5710   23.7570 C.ar  215  PHE215     -0.0042
    119  CD2       76.6600   48.4220   24.6580 C.ar  215  PHE215     -0.0042
    120  CE1       79.0630   49.6980   25.0200 C.ar  215  PHE215     -0.0003
    121  CE2       77.1830   48.5720   25.9370 C.ar  215  PHE215     -0.0003
    122  CZ        78.3960   49.2150   26.1090 C.ar  215  PHE215     -0.0000
    123  N         77.7580   53.8120   18.2940 N.3   239  TRP239     -0.1241
    124  CA        77.1910   54.6140   19.3600 C.3   239  TRP239      0.1605
    125  C         78.3710   55.0140   20.2380 C.2   239  TRP239      0.2264
    126  O         78.8950   54.1860   20.9840 O.2   239  TRP239     -0.2867
    127  CB        76.1390   53.8060   20.1200 C.3   239  TRP239      0.0550
    128  CG        75.5890   54.4430   21.3240 C.ar  239  TRP239      0.0003
    129  CD1       74.9760   55.6750   21.4120 C.ar  239  TRP239      0.0946
    130  CD2       75.5310   53.8690   22.6380 C.ar  239  TRP239      0.0152
    131  NE1       74.5610   55.8990   22.7120 N.ar  239  TRP239     -0.2442
    132  CE2       74.8840   54.8070   23.4790 C.ar  239  TRP239      0.0810
    133  CE3       75.9700   52.6600   23.1880 C.ar  239  TRP239      0.0012
    134  CZ2       74.6810   54.5720   24.8390 C.ar  239  TRP239      0.0191
    135  CZ3       75.7570   52.4270   24.5550 C.ar  239  TRP239      0.0001
    136  CH2       75.1190   53.3790   25.3560 C.ar  239  TRP239      0.0015
    137  N         69.8560   57.2770   12.4470 N.3   263  PHE263     -0.1241
    138  CA        70.3230   57.0950   13.8090 C.3   263  PHE263      0.1605
    139  C         71.1420   58.2940   14.2760 C.2   263  PHE263      0.2264
    140  O         71.0470   58.6870   15.4380 O.2   263  PHE263     -0.2867
    141  CB        71.1500   55.8130   13.9430 C.3   263  PHE263      0.0534
    142  CG        71.8540   55.6780   15.2780 C.ar  263  PHE263     -0.0203
    143  CD1       71.1290   55.4850   16.4340 C.ar  263  PHE263     -0.0042
    144  CD2       73.2380   55.6970   15.3580 C.ar  263  PHE263     -0.0042
    145  CE1       71.7630   55.3470   17.6550 C.ar  263  PHE263     -0.0003
    146  CE2       73.8870   55.5570   16.5820 C.ar  263  PHE263     -0.0003
    147  CZ        73.1530   55.3840   17.7300 C.ar  263  PHE263     -0.0000
    148  N         73.3610   61.7140   15.1540 N.3   265  TYR265     -0.1241
    149  CA        73.1660   63.0620   15.6700 C.3   265  TYR265      0.1605
    150  C         74.5360   63.7430   15.8350 C.2   265  TYR265      0.2264
    151  O         75.5700   63.0690   15.8290 O.2   265  TYR265     -0.2867
    152  CB        72.3780   63.0260   16.9870 C.3   265  TYR265      0.0534
    153  CG        72.8340   62.0110   18.0100 C.ar  265  TYR265     -0.0201
    154  CD1       73.5050   62.4180   19.1600 C.ar  265  TYR265     -0.0009
    155  CD2       72.5710   60.6480   17.8510 C.ar  265  TYR265     -0.0009
    156  CE1       73.9190   61.5050   20.1290 C.ar  265  TYR265      0.0417
    157  CE2       72.9900   59.7150   18.8200 C.ar  265  TYR265      0.0417
    158  CZ        73.6710   60.1570   19.9560 C.ar  265  TYR265      0.1957
    159  OH        74.0890   59.2730   20.9370 O.3   265  TYR265     -0.2866
    160  N         68.6560   52.5730   12.2440 N.3   292  HIS292     -0.1226
    161  CA        69.6090   51.8500   13.0860 C.3   292  HIS292      0.1752
    162  C         69.5280   50.3380   12.8710 C.2   292  HIS292      0.2595
    163  O         70.5480   49.6760   12.7430 O.2   292  HIS292     -0.2718
    164  CB        69.3810   52.1890   14.5670 C.3   292  HIS292      0.0759
    165  CG        70.6090   52.0500   15.4200 C.ar  292  HIS292      0.0818
    166  ND1       71.8640   52.4050   14.9720 N.ar  292  HIS292     -0.2268
    167  CD2       70.7740   51.5980   16.6840 C.ar  292  HIS292      0.1154
    168  CE1       72.7510   52.1800   15.9280 C.ar  292  HIS292      0.1986
    169  NE2       72.1140   51.6990   16.9800 N.ar  292  HIS292     -0.2212
    170  N         68.3130   49.8150   12.7730 N.am  293  GLN293     -0.1979
    171  CA        68.0810   48.3790   12.7120 C.3   293  GLN293      0.1601
    172  C         68.3330   47.7270   11.3430 C.2   293  GLN293      0.2287
    173  O         68.2450   46.5070   11.2270 O.2   293  GLN293     -0.2864
    174  CB        66.6540   48.0950   13.1630 C.3   293  GLN293      0.0394
    175  CG        66.4700   48.2620   14.6520 C.3   293  GLN293      0.0908
    176  CD        67.2210   47.2000   15.4310 C.2   293  GLN293      0.2608
    177  OE1       67.1540   46.0080   15.0990 O.2   293  GLN293     -0.2717
    178  NE2       67.9550   47.6240   16.4630 N.am  293  GLN293     -0.0878
    179  N         71.0080   44.9170   11.4560 N.3   296  ALA296     -0.1245
    180  CA        70.7380   43.6910   12.2230 C.3   296  ALA296      0.1562
    181  C         69.5590   42.9200   11.6400 C.2   296  ALA296      0.2260
    182  O         68.7410   43.4780   10.9120 O.2   296  ALA296     -0.2867
    183  CB        70.4830   44.0120   13.6800 C.3   296  ALA296      0.0290
    184  N         66.6870   41.7050   12.4090 N.3   298  PHE298     -0.1241
    185  CA        65.2510   41.9210   12.5750 C.3   298  PHE298      0.1605
    186  C         64.6570   42.8160   11.4890 C.2   298  PHE298      0.2264
    187  O         63.4430   42.9610   11.4150 O.2   298  PHE298     -0.2867
    188  CB        64.9420   42.4930   13.9530 C.3   298  PHE298      0.0534
    189  CG        64.6190   41.4420   14.9650 C.ar  298  PHE298     -0.0203
    190  CD1       63.3310   40.9340   15.0650 C.ar  298  PHE298     -0.0042
    191  CD2       65.6100   40.9310   15.7920 C.ar  298  PHE298     -0.0042
    192  CE1       63.0300   39.9450   15.9900 C.ar  298  PHE298     -0.0003
    193  CE2       65.3230   39.9460   16.7180 C.ar  298  PHE298     -0.0003
    194  CZ        64.0280   39.4540   16.8270 C.ar  298  PHE298     -0.0000
    195  N         60.1940   40.7570    9.4790 N.3   302  THR302     -0.1218
    196  CA        58.7760   41.1030    9.3260 C.3   302  THR302      0.1862
    197  C         58.4860   41.6300    7.9180 C.2   302  THR302      0.2287
    198  O         59.3920   41.7350    7.0830 O.2   302  THR302     -0.2866
    199  CB        58.3050   42.1670   10.3680 C.3   302  THR302      0.1770
    200  OG1       58.6760   43.4860    9.9390 O.3   302  THR302     -0.2211
    201  CG2       58.8940   41.9020   11.7550 C.3   302  THR302      0.0375
    202  N         57.6450   49.4190   13.2420 N.3   310  LEU310     -0.1245
    203  CA        58.4870   49.1050   14.3840 C.3   310  LEU310      0.1561
    204  C         59.9010   49.6930   14.2820 C.2   310  LEU310      0.2260
    205  O         60.7160   49.4600   15.1570 O.2   310  LEU310     -0.2867
    206  CB        58.5740   47.5930   14.5580 C.3   310  LEU310      0.0270
    207  CG        57.2270   46.9150   14.7640 C.3   310  LEU310      0.0019
    208  CD1       57.3900   45.4120   14.6690 C.3   310  LEU310      0.0001
    209  CD2       56.6560   47.3190   16.1150 C.3   310  LEU310      0.0001
    210  N         62.0770   48.7570   12.2940 N.3   312  LEU312     -0.1245
    211  CA        62.9700   47.7270   11.8160 C.3   312  LEU312      0.1561
    212  C         63.4090   48.0150   10.3900 C.2   312  LEU312      0.2260
    213  O         64.3990   47.4530    9.9090 O.2   312  LEU312     -0.2867
    214  CB        62.3040   46.3560   11.8920 C.3   312  LEU312      0.0270
    215  CG        61.9310   45.8640   13.2870 C.3   312  LEU312      0.0019
    216  CD1       61.3550   44.4500   13.2290 C.3   312  LEU312      0.0001
    217  CD2       63.1540   45.9230   14.1910 C.3   312  LEU312      0.0001
@<TRIPOS>BOND
     1   198   197    2
     2   197   196    1
     3   196   195    1
     4   196   199    1
     5   213   212    2
     6   200   199    1
     7   199   201    1
     8   212   211    1
     9   182   181    2
    10    87    86    2
    11   173   172    2
    12   172   171    1
    13   187   186    2
    14   179   180    1
    15   186   185    1
    16   181   180    1
    17    86    85    1
    18   211   214    1
    19   211   210    1
    20   214   215    1
    21   180   183    1
    22   160   161    1
    23   184   185    1
    24   137   138    1
    25   185   188    1
    26   171   170    1
    27   171   174    1
    28    85    88    1
    29    85    84    1
    30   163   162    2
    31   170   162   am
    32   162   161    1
    33   161   164    1
    34   174   175    1
    35    88    89    1
    36   216   215    1
    37   202   203    1
    38   215   217    1
    39    52    50   ar
    40    52    54   ar
    41    90    89   ar
    42    90    92   ar
    43    79    78    2
    44   138   141    1
    45   138   139    1
    46    84    78   am
    47   141   142    1
    48   188   189    1
    49    50    49   ar
    50    89    91   ar
    51   103   105   ar
    52   103   101   ar
    53    78    77    1
    54   139   140    2
    55   204   203    1
    56   204   205    2
    57    54    53   ar
    58   203   206    1
    59    92    94   ar
    60   105   104   ar
    61   206   207    1
    62   164   165    1
    63   175   176    1
    64   208   207    1
    65   100   101    1
    66   100    97    1
    67   207   209    1
    68   101   102   ar
    69   189   190   ar
    70   189   191   ar
    71   166   165   ar
    72   166   168   ar
    73   190   192   ar
    74   177   176    2
    75   148   149    1
    76    97    96    1
    77    97    98    1
    78   142   144   ar
    79   142   143   ar
    80   144   146   ar
    81   104   102   ar
    82   165   167   ar
    83   176   178   am
    84    77    76    1
    85    77    80    1
    86    49    48    1
    87    49    51   ar
    88    91    93   ar
    89    47    46    2
    90    45    46    1
    91    45    48    1
    92    45    44    1
    93   149   150    1
    94   149   152    1
    95    53    51   ar
    96   191   193   ar
    97   151   150    2
    98    94    93   ar
    99    94    95    1
   100   168   169   ar
   101   192   194   ar
   102   143   145   ar
   103    80    81    1
   104   106    98   am
   105   106   107    1
   106    98    99    2
   107   146   147   ar
   108    83    81    1
   109   167   169   ar
   110   193   194   ar
   111   152   153    1
   112    81    82    1
   113   107   110    1
   114   107   108    1
   115   145   147   ar
   116   155   153   ar
   117   155   157   ar
   118   110   111    1
   119   153   154   ar
   120   123   124    1
   121   109   108    2
   122    39    38    2
   123   108   112   am
   124   157   158   ar
   125    55    56    1
   126   154   156   ar
   127   124   127    1
   128   124   125    1
   129    43    41    1
   130    75    72    1
   131    56    57    1
   132    38    37    1
   133   112   113    1
   134   158   156   ar
   135   158   159    1
   136   127   128    1
   137    37    36    1
   138    37    40    1
   139   125   126    2
   140   114   115    2
   141   114   113    1
   142     7     6    1
   143    35    34    1
   144    72    73    1
   145    72    71    1
   146    40    41    1
   147   113   116    1
   148    41    42    1
   149    57    58    2
   150    57    59   am
   151   128   129   ar
   152   128   130   ar
   153   129   131   ar
   154     8     6    1
   155    27    25    1
   156    73    74    2
   157    26    25    1
   158    62    61    2
   159    59    60    1
   160     6     5    1
   161    71    69   am
   162   116   117    1
   163    34    33    1
   164    25    24    1
   165    18    19   ar
   166    18    16   ar
   167    70    69    2
   168    69    68    1
   169   130   133   ar
   170   130   132   ar
   171     5     2    1
   172   131   132   ar
   173    61    60    1
   174    61    67   am
   175    19    17   ar
   176    60    63    1
   177   133   135   ar
   178    16    14   ar
   179    31    30    2
   180   132   134   ar
   181    33    32    1
   182   117   118   ar
   183   117   119   ar
   184    68    67    1
   185    24    21    1
   186    63    64    1
   187   118   120   ar
   188     2     3    1
   189     2     1    1
   190     4     3    2
   191    17    15   ar
   192   135   136   ar
   193    14    15   ar
   194    14    13    1
   195    30    29    1
   196   119   121   ar
   197    21    20    1
   198    21    22    1
   199   134   136   ar
   200    64    66    1
   201    64    65    1
   202    32    29    1
   203   120   122   ar
   204    29    28    1
   205    20    11   am
   206    23    22    2
   207    13    10    1
   208    11    12    2
   209    11    10    1
   210   121   122   ar
   211    10     9    1
