@<TRIPOS>MOLECULE
tmp/5i8qA00.pdb
 198 184 0 0 0
SMALL
GASTEIGER

@<TRIPOS>ATOM
      1  N         74.5340   58.6570   43.4030 N.3    86  ILE86      -0.1245
      2  CA        73.2640   58.2320   42.8230 C.3    86  ILE86       0.1561
      3  C         73.2010   56.7200   42.5980 C.2    86  ILE86       0.2260
      4  O         72.2290   56.0690   42.9810 O.2    86  ILE86      -0.2867
      5  CB        72.9950   58.9490   41.4830 C.3    86  ILE86       0.0252
      6  CG1       72.7650   60.4430   41.7180 C.3    86  ILE86       0.0019
      7  CG2       71.7930   58.3390   40.7780 C.3    86  ILE86       0.0019
      8  CD1       72.5200   61.2310   40.4490 C.3    86  ILE86       0.0001
      9  N         71.4170   52.0900   44.0580 N.3    90  LEU90      -0.1245
     10  CA        70.6950   51.1940   43.1580 C.3    90  LEU90       0.1561
     11  C         70.5370   49.8070   43.7780 C.2    90  LEU90       0.2260
     12  O         71.4350   49.3310   44.4700 O.2    90  LEU90      -0.2867
     13  CB        71.4130   51.0930   41.8100 C.3    90  LEU90       0.0270
     14  CG        71.2620   52.2850   40.8630 C.3    90  LEU90       0.0019
     15  CD1       72.0500   52.0570   39.5840 C.3    90  LEU90       0.0001
     16  CD2       69.7950   52.5390   40.5510 C.3    90  LEU90       0.0001
     17  N         63.4730   45.7500   36.0040 N.3   115  THR115     -0.1203
     18  CA        63.8070   46.7050   34.9560 C.3   115  THR115      0.1994
     19  C         64.3120   48.0220   35.5330 C.2   115  THR115      0.2618
     20  O         63.6380   48.6520   36.3460 O.2   115  THR115     -0.2717
     21  CB        62.5970   46.9930   34.0520 C.3   115  THR115      0.1784
     22  OG1       61.4630   47.3290   34.8600 O.3   115  THR115     -0.2211
     23  CG2       62.2620   45.7790   33.2050 C.3   115  THR115      0.0376
     24  N         65.5000   48.4340   35.1050 N.am  116  GLY116     -0.1942
     25  CA        66.0790   49.6860   35.5550 C.3   116  GLY116      0.2014
     26  C         66.6910   49.5960   36.9390 C.2   116  GLY116      0.2640
     27  O         66.6480   50.5570   37.7070 O.2   116  GLY116     -0.2714
     28  N         67.2590   48.4390   37.2590 N.am  117  SER117     -0.1935
     29  CA        67.9210   48.2460   38.5440 C.3   117  SER117      0.2055
     30  C         69.4130   48.5370   38.4230 C.2   117  SER117      0.2644
     31  O         70.1010   48.7350   39.4240 O.2   117  SER117     -0.2714
     32  CB        67.6960   46.8260   39.0640 C.3   117  SER117      0.2130
     33  OG        68.2210   45.8650   38.1650 O.3   117  SER117     -0.2179
     34  N         69.9040   48.5640   37.1880 N.am  118  GLY118     -0.1939
     35  CA        71.2990   48.8660   36.9270 C.3   118  GLY118      0.2014
     36  C         72.1080   47.6510   36.5200 C.2   118  GLY118      0.2639
     37  O         73.2900   47.5520   36.8330 O.2   118  GLY118     -0.2714
     38  N         71.4730   46.7200   35.8180 N.am  119  LYS119     -0.1963
     39  CA        72.1630   45.5180   35.3680 C.3   119  LYS119      0.1728
     40  C         73.2530   45.8610   34.3540 C.2   119  LYS119      0.2617
     41  O         74.4480   45.7130   34.6350 O.2   119  LYS119     -0.2715
     42  CB        71.1690   44.5200   34.7660 C.3   119  LYS119      0.0311
     43  CG        70.1140   44.0320   35.7490 C.3   119  LYS119      0.0038
     44  CD        69.2630   42.9180   35.1570 C.3   119  LYS119      0.0206
     45  CE        68.4270   43.4120   33.9890 C.3   119  LYS119      0.1093
     46  NZ        67.4190   44.4270   34.4090 N.3   119  LYS119     -0.1314
     47  N         72.8290   46.3460   33.1900 N.am  120  THR120     -0.1937
     48  CA        73.7280   46.6240   32.0720 C.3   120  THR120      0.2028
     49  C         74.8480   47.6070   32.4230 C.2   120  THR120      0.2642
     50  O         75.9270   47.5620   31.8320 O.2   120  THR120     -0.2714
     51  CB        72.9420   47.1800   30.8630 C.3   120  THR120      0.1808
     52  OG1       71.7520   46.4070   30.6640 O.3   120  THR120     -0.2208
     53  CG2       73.7860   47.1340   29.5960 C.3   120  THR120      0.0379
     54  N         74.6000   48.4840   33.3910 N.am  121  THR121     -0.1950
     55  CA        75.5690   49.5200   33.7360 C.3   121  THR121      0.1897
     56  C         76.5250   49.1190   34.8600 C.2   121  THR121      0.2313
     57  O         77.7170   49.4200   34.7980 O.2   121  THR121     -0.2863
     58  CB        74.8660   50.8300   34.1460 C.3   121  THR121      0.1794
     59  OG1       73.9020   50.5600   35.1720 O.3   121  THR121     -0.2208
     60  CG2       74.1680   51.4580   32.9500 C.3   121  THR121      0.0378
     61  N         74.1870   54.4520   23.7810 N.3   152  SER152     -0.1202
     62  CA        73.7170   55.2160   24.9320 C.3   152  SER152      0.2020
     63  C         74.3110   54.7090   26.2430 C.2   152  SER152      0.2618
     64  O         74.7690   55.5000   27.0730 O.2   152  SER152     -0.2717
     65  CB        72.1900   55.1790   25.0050 C.3   152  SER152      0.2103
     66  OG        71.7100   55.9600   26.0860 O.3   152  SER152     -0.2182
     67  N         74.3070   53.3910   26.4300 N.am  153  VAL153     -0.1979
     68  CA        74.8360   52.8170   27.6620 C.3   153  VAL153      0.1595
     69  C         76.3500   53.0180   27.7260 C.2   153  VAL153      0.2287
     70  O         76.9180   53.1590   28.8120 O.2   153  VAL153     -0.2864
     71  CB        74.4820   51.3120   27.8020 C.3   153  VAL153      0.0276
     72  CG1       75.2540   50.4670   26.8050 C.3   153  VAL153      0.0022
     73  CG2       74.7450   50.8320   29.2220 C.3   153  VAL153      0.0022
     74  N         76.6330   56.6130   29.0320 N.3   156  ARG156     -0.1245
     75  CA        76.3280   56.6520   30.4610 C.3   156  ARG156      0.1563
     76  C         77.4500   56.0660   31.3130 C.2   156  ARG156      0.2260
     77  O         77.8690   56.6720   32.2990 O.2   156  ARG156     -0.2867
     78  CB        75.0220   55.9050   30.7450 C.3   156  ARG156      0.0307
     79  CG        74.7870   55.5840   32.2160 C.3   156  ARG156      0.0489
     80  CD        74.5430   56.8370   33.0480 C.3   156  ARG156      0.2205
     81  NE        74.3750   56.5190   34.4640 N.pl3 156  ARG156     -0.0865
     82  CZ        74.0540   57.4060   35.4000 C.cat 156  ARG156      0.5346
     83  NH1       73.8580   58.6760   35.0730 N.pl3 156  ARG156      0.1354
     84  NH2       73.9250   57.0250   36.6630 N.pl3 156  ARG156      0.1354
     85  N         80.5000   58.1890   31.4070 N.3   159  GLU159     -0.1231
     86  CA        80.3400   59.2590   32.3870 C.3   159  GLU159      0.1699
     87  C         80.4430   58.7360   33.8180 C.2   159  GLU159      0.2592
     88  O         80.8650   59.4590   34.7200 O.2   159  GLU159     -0.2718
     89  CB        79.0050   59.9800   32.1920 C.3   159  GLU159      0.0402
     90  CG        79.0420   61.0800   31.1440 C.3   159  GLU159      0.1161
     91  CD        77.8240   61.9790   31.2030 C.2   159  GLU159      0.3649
     92  OE1       76.7240   61.5160   30.8360 O.co2 159  GLU159     -0.2457
     93  OE2       77.9680   63.1470   31.6240 O.co2 159  GLU159     -0.2457
     94  N         80.0610   57.4790   34.0220 N.am  160  GLU160     -0.1979
     95  CA        80.0860   56.8800   35.3540 C.3   160  GLU160      0.1602
     96  C         81.5040   56.5840   35.8310 C.2   160  GLU160      0.2287
     97  O         81.8170   56.7530   37.0090 O.2   160  GLU160     -0.2864
     98  CB        79.2600   55.5930   35.3810 C.3   160  GLU160      0.0415
     99  CG        77.7570   55.8100   35.4150 C.3   160  GLU160      0.1163
    100  CD        76.9990   54.5470   35.7720 C.2   160  GLU160      0.3649
    101  OE1       77.6520   53.5270   36.0790 O.co2 160  GLU160     -0.2457
    102  OE2       75.7510   54.5760   35.7480 O.co2 160  GLU160     -0.2457
    103  N         73.3130   40.6700   27.4690 N.3   212  ASP212     -0.1225
    104  CA        72.1400   41.2720   28.0930 C.3   212  ASP212      0.1805
    105  C         70.9210   41.1520   27.1840 C.2   212  ASP212      0.2597
    106  O         71.0540   41.1100   25.9580 O.2   212  ASP212     -0.2718
    107  CB        72.4100   42.7390   28.4370 C.3   212  ASP212      0.1424
    108  CG        71.4460   43.2830   29.4760 C.2   212  ASP212      0.3668
    109  OD1       70.7560   42.4750   30.1320 O.co2 212  ASP212     -0.2456
    110  OD2       71.3890   44.5200   29.6440 O.co2 212  ASP212     -0.2456
    111  N         69.7400   41.0930   27.7970 N.am  213  GLU213     -0.1979
    112  CA        68.4780   40.9060   27.0810 C.3   213  GLU213      0.1602
    113  C         68.5050   39.6470   26.2190 C.2   213  GLU213      0.2287
    114  O         68.3210   39.7110   25.0050 O.2   213  GLU213     -0.2864
    115  CB        68.1550   42.1250   26.2120 C.3   213  GLU213      0.0415
    116  CG        67.9350   43.4140   26.9820 C.3   213  GLU213      0.1163
    117  CD        66.6240   43.4310   27.7420 C.2   213  GLU213      0.3649
    118  OE1       66.1100   44.5380   28.0030 O.co2 213  GLU213     -0.2457
    119  OE2       66.1100   42.3440   28.0820 O.co2 213  GLU213     -0.2457
    120  N         65.9700   41.1790   32.0340 N.3   245  ALA245     -0.1245
    121  CA        65.0120   41.6480   33.0260 C.3   245  ALA245      0.1562
    122  C         63.9520   40.5830   33.2740 C.2   245  ALA245      0.2260
    123  O         63.4840   40.4020   34.3970 O.2   245  ALA245     -0.2867
    124  CB        64.3720   42.9430   32.5760 C.3   245  ALA245      0.0290
    125  N         63.8620   50.3680   41.8600 N.3   268  THR268     -0.1218
    126  CA        64.3810   51.7300   41.9370 C.3   268  THR268      0.1862
    127  C         63.2440   52.7250   42.1370 C.2   268  THR268      0.2287
    128  O         63.2250   53.4770   43.1110 O.2   268  THR268     -0.2866
    129  CB        65.1700   52.1110   40.6720 C.3   268  THR268      0.1770
    130  OG1       66.2780   51.2180   40.5070 O.3   268  THR268     -0.2211
    131  CG2       65.6860   53.5390   40.7740 C.3   268  THR268      0.0375
    132  N         66.5720   47.5500   26.9250 N.3   379  SER379     -0.1202
    133  CA        67.7960   48.1410   27.4740 C.3   379  SER379      0.2020
    134  C         68.1120   49.5330   26.9360 C.2   379  SER379      0.2619
    135  O         69.0410   49.7080   26.1500 O.2   379  SER379     -0.2717
    136  CB        68.9900   47.2170   27.2210 C.3   379  SER379      0.2103
    137  OG        69.1530   46.2890   28.2810 O.3   379  SER379     -0.2182
    138  N         67.3390   50.5190   27.3740 N.am  380  LEU380     -0.1965
    139  CA        67.5620   51.9020   26.9770 C.3   380  LEU380      0.1728
    140  C         66.9290   52.8380   27.9980 C.2   380  LEU380      0.2616
    141  O         65.7430   52.7200   28.3090 O.2   380  LEU380     -0.2715
    142  CB        66.9910   52.1630   25.5820 C.3   380  LEU380      0.0311
    143  CG        67.8690   52.9650   24.6170 C.3   380  LEU380      0.0022
    144  CD1       67.2110   53.0610   23.2500 C.3   380  LEU380      0.0001
    145  CD2       68.1660   54.3520   25.1670 C.3   380  LEU380      0.0001
    146  N         67.7260   53.7630   28.5210 N.am  381  THR381     -0.1951
    147  CA        67.2540   54.6700   29.5580 C.3   381  THR381      0.1897
    148  C         67.1950   56.1150   29.0720 C.2   381  THR381      0.2313
    149  O         68.2250   56.7690   28.8980 O.2   381  THR381     -0.2863
    150  CB        68.1480   54.6000   30.8090 C.3   381  THR381      0.1794
    151  OG1       68.1140   53.2730   31.3510 O.3   381  THR381     -0.2208
    152  CG2       67.6640   55.5840   31.8630 C.3   381  THR381      0.0378
    153  N         66.0920   59.8800   30.0120 N.3   383  ASP383     -0.1239
    154  CA        65.9850   60.6040   31.2750 C.3   383  ASP383      0.1674
    155  C         64.6170   61.2510   31.4930 C.2   383  ASP383      0.2266
    156  O         64.0820   61.2240   32.6010 O.2   383  ASP383     -0.2867
    157  CB        67.0750   61.6750   31.3540 C.3   383  ASP383      0.1410
    158  CG        67.1390   62.3410   32.7140 C.2   383  ASP383      0.3668
    159  OD1       66.8670   61.6590   33.7230 O.co2 383  ASP383     -0.2456
    160  OD2       67.4610   63.5470   32.7730 O.co2 383  ASP383     -0.2456
    161  N         59.1120   44.7930   29.4040 N.3   420  GLN420     -0.1245
    162  CA        60.2560   45.6100   29.0150 C.3   420  GLN420      0.1566
    163  C         59.8230   47.0340   28.6780 C.2   420  GLN420      0.2260
    164  O         60.3840   48.0040   29.1960 O.2   420  GLN420     -0.2867
    165  CB        60.9830   44.9820   27.8230 C.3   420  GLN420      0.0367
    166  CG        62.4970   45.0000   27.9470 C.3   420  GLN420      0.0905
    167  CD        62.9880   44.1390   29.0930 C.2   420  GLN420      0.2608
    168  OE1       63.9650   44.4730   29.7630 O.2   420  GLN420     -0.2717
    169  NE2       62.3070   43.0200   29.3260 N.am  420  GLN420     -0.0878
    170  N         60.6800   50.5860   30.6940 N.3   424  ARG424     -0.1245
    171  CA        61.4200   51.7400   30.1910 C.3   424  ARG424      0.1563
    172  C         61.2500   52.9570   31.0980 C.2   424  ARG424      0.2260
    173  O         62.1290   53.8160   31.1680 O.2   424  ARG424     -0.2867
    174  CB        60.9810   52.0870   28.7660 C.3   424  ARG424      0.0307
    175  CG        61.3700   51.0570   27.7130 C.3   424  ARG424      0.0489
    176  CD        62.8300   50.6430   27.8430 C.3   424  ARG424      0.2205
    177  NE        62.9810   49.4070   28.6080 N.pl3 424  ARG424     -0.0865
    178  CZ        64.1470   48.9070   29.0010 C.cat 424  ARG424      0.5346
    179  NH1       65.2740   49.5400   28.7130 N.pl3 424  ARG424      0.1354
    180  NH2       64.1850   47.7760   29.6930 N.pl3 424  ARG424      0.1354
    181  N         62.6640   55.1120   36.2310 N.3   427  ARG427     -0.1231
    182  CA        64.1110   55.0340   36.4010 C.3   427  ARG427      0.1694
    183  C         64.6440   56.3050   37.0510 C.2   427  ARG427      0.2592
    184  O         65.1410   56.2780   38.1770 O.2   427  ARG427     -0.2718
    185  CB        64.7930   54.7940   35.0540 C.3   427  ARG427      0.0321
    186  CG        64.3630   53.4980   34.3880 C.3   427  ARG427      0.0489
    187  CD        64.8720   53.3910   32.9640 C.3   427  ARG427      0.2205
    188  NE        64.5040   52.1110   32.3670 N.pl3 427  ARG427     -0.0865
    189  CZ        65.2900   51.0400   32.3550 C.cat 427  ARG427      0.5346
    190  NH1       66.4980   51.0970   32.8990 N.pl3 427  ARG427      0.1354
    191  NH2       64.8710   49.9140   31.7960 N.pl3 427  ARG427      0.1354
    192  N         64.5390   57.4180   36.3330 N.am  428  THR428     -0.1953
    193  CA        64.8910   58.7200   36.8840 C.3   428  THR428      0.1897
    194  C         63.8920   59.0990   37.9680 C.2   428  THR428      0.2313
    195  O         64.2620   59.5520   39.0510 O.2   428  THR428     -0.2863
    196  CB        64.9100   59.8130   35.7990 C.3   428  THR428      0.1794
    197  OG1       65.9210   59.5110   34.8290 O.3   428  THR428     -0.2208
    198  CG2       65.1910   61.1750   36.4160 C.3   428  THR428      0.0378
@<TRIPOS>BOND
     1   144   143    1
     2    61    62    1
     3   143   145    1
     4   143   142    1
     5    62    65    1
     6    62    63    1
     7   114   113    2
     8    65    66    1
     9   142   139    1
    10   106   105    2
    11   135   134    2
    12   115   116    1
    13   115   112    1
    14   113   112    1
    15    63    67   am
    16    63    64    2
    17    67    68    1
    18    72    71    1
    19   132   133    1
    20   134   138   am
    21   134   133    1
    22   139   138    1
    23   139   140    1
    24   116   117    1
    25   112   111    1
    26   105   111   am
    27   105   104    1
    28   136   133    1
    29   136   137    1
    30   103   104    1
    31    68    69    1
    32    68    71    1
    33   175   176    1
    34   175   174    1
    35    69    70    2
    36   117   118   ar
    37   117   119   ar
    38    71    73    1
    39   165   166    1
    40   165   162    1
    41   176   177    1
    42   166   167    1
    43   140   141    2
    44   140   146   am
    45   104   107    1
    46   107   108    1
    47   146   147    1
    48   177   178    2
    49   163   162    1
    50   163   164    2
    51   179   178    1
    52   174   171    1
    53   149   148    2
    54   178   180    1
    55   162   161    1
    56    74    75    1
    57   148   147    1
    58   167   169   am
    59   167   168    2
    60   108   110   ar
    61   108   109   ar
    62   147   150    1
    63    53    51    1
    64   153   154    1
    65   171   170    1
    66   171   172    1
    67    75    78    1
    68    75    76    1
    69    52    51    1
    70    78    79    1
    71   150   151    1
    72   150   152    1
    73    92    91   ar
    74    51    48    1
    75   172   173    2
    76    90    91    1
    77    90    89    1
    78    91    93   ar
    79   154   157    1
    80   154   155    1
    81    76    77    2
    82   157   158    1
    83    85    86    1
    84   155   156    2
    85   191   189    1
    86    50    49    2
    87   120   121    1
    88    48    49    1
    89    48    47    1
    90    89    86    1
    91    79    80    1
    92   189   188    2
    93   189   190    1
    94   188   187    1
    95    86    87    1
    96    49    54   am
    97   124   121    1
    98   158   160   ar
    99   158   159   ar
   100    60    58    1
   101   187   186    1
   102   121   122    1
   103    80    81    1
   104    47    40   am
   105    23    21    1
   106   122   123    2
   107    54    55    1
   108    55    58    1
   109    55    56    1
   110    87    94   am
   111    87    88    2
   112    45    46    1
   113    45    44    1
   114    94    95    1
   115    21    22    1
   116    21    18    1
   117    58    59    1
   118    40    41    2
   119    40    39    1
   120   186   185    1
   121    81    82    2
   122    42    39    1
   123    42    43    1
   124    57    56    2
   125   197   196    1
   126    18    19    1
   127    18    17    1
   128   185   182    1
   129    83    82    1
   130    24    19   am
   131    24    25    1
   132    44    43    1
   133    95    98    1
   134    95    96    1
   135    39    38    1
   136    98    99    1
   137    82    84    1
   138    99   100    1
   139    19    20    2
   140    25    26    1
   141   102   100   ar
   142   100   101   ar
   143   196   198    1
   144   196   193    1
   145    38    36   am
   146    96    97    2
   147   181   182    1
   148   192   193    1
   149   192   183   am
   150   182   183    1
   151    36    37    2
   152    36    35    1
   153   193   194    1
   154    35    34    1
   155    26    28   am
   156    26    27    2
   157   183   184    2
   158    34    30   am
   159    28    29    1
   160   194   195    2
   161    33    32    1
   162    30    29    1
   163    30    31    2
   164    29    32    1
   165    15    14    1
   166     8     6    1
   167   130   129    1
   168    16    14    1
   169   129   131    1
   170   129   126    1
   171     7     5    1
   172    14    13    1
   173     5     6    1
   174     5     2    1
   175    13    10    1
   176   125   126    1
   177   126   127    1
   178   127   128    2
   179     3     2    1
   180     3     4    2
   181     2     1    1
   182    10    11    1
   183    10     9    1
   184    11    12    2
