@<TRIPOS>MOLECULE
tmp/5i8sA00.pdb
 120 112 0 0 0
SMALL
GASTEIGER

@<TRIPOS>ATOM
      1  N         13.6810   91.3080  131.0060 N.3    67  ILE67      -0.1245
      2  CA        12.8470   90.4860  131.8670 C.3    67  ILE67       0.1561
      3  C         12.7110   91.1950  133.2090 C.2    67  ILE67       0.2260
      4  O         13.6540   91.8290  133.6830 O.2    67  ILE67      -0.2867
      5  CB        13.4300   89.0480  132.0310 C.3    67  ILE67       0.0252
      6  CG1       12.4370   88.1670  132.7870 C.3    67  ILE67       0.0019
      7  CG2       14.7740   89.0940  132.7390 C.3    67  ILE67       0.0019
      8  CD1       12.4950   86.7360  132.3390 C.3    67  ILE67       0.0001
      9  N         11.6170   90.3800  137.1250 N.3    69  ILE69      -0.1245
     10  CA        11.2420   89.3670  138.0920 C.3    69  ILE69       0.1561
     11  C         10.6840   90.0300  139.3430 C.2    69  ILE69       0.2260
     12  O         11.4250   90.6120  140.1380 O.2    69  ILE69      -0.2867
     13  CB        12.4370   88.4670  138.4550 C.3    69  ILE69       0.0252
     14  CG1       13.0630   87.8860  137.1770 C.3    69  ILE69       0.0019
     15  CG2       12.0030   87.3530  139.3930 C.3    69  ILE69       0.0019
     16  CD1       14.3470   87.1500  137.4210 C.3    69  ILE69       0.0001
     17  N         15.2070   78.8020  138.7480 N.3    84  PHE84      -0.1241
     18  CA        16.4220   79.6230  138.7320 C.3    84  PHE84       0.1605
     19  C         17.4340   79.1870  139.7820 C.2    84  PHE84       0.2264
     20  O         18.6380   79.2310  139.5390 O.2    84  PHE84      -0.2867
     21  CB        16.0990   81.0970  138.9650 C.3    84  PHE84       0.0534
     22  CG        15.3740   81.7550  137.8280 C.ar   84  PHE84      -0.0203
     23  CD1       15.4230   81.2250  136.5440 C.ar   84  PHE84      -0.0042
     24  CD2       14.6500   82.9230  138.0430 C.ar   84  PHE84      -0.0042
     25  CE1       14.7530   81.8440  135.4900 C.ar   84  PHE84      -0.0003
     26  CE2       13.9760   83.5460  136.9920 C.ar   84  PHE84      -0.0003
     27  CZ        14.0270   83.0030  135.7190 C.ar   84  PHE84      -0.0000
     28  N         22.3890   74.3430  138.1200 N.3    88  HIS88      -0.1241
     29  CA        22.2430   73.8930  136.7360 C.3    88  HIS88       0.1621
     30  C         23.3400   74.4530  135.8330 C.2    88  HIS88       0.2264
     31  O         24.1330   75.3010  136.2400 O.2    88  HIS88      -0.2867
     32  CB        20.8700   74.3030  136.1920 C.3    88  HIS88       0.0745
     33  CG        20.6890   75.7870  136.0840 C.ar   88  HIS88       0.0817
     34  ND1       20.2410   76.5640  137.1330 N.ar   88  HIS88      -0.2268
     35  CD2       20.9150   76.6410  135.0560 C.ar   88  HIS88       0.1154
     36  CE1       20.1880   77.8310  136.7530 C.ar   88  HIS88       0.1986
     37  NE2       20.5850   77.9020  135.4960 N.ar   88  HIS88      -0.2212
     38  N         24.1090   75.4790  131.3980 N.3    90  HIS90      -0.1241
     39  CA        23.5700   75.6540  130.0560 C.3    90  HIS90       0.1621
     40  C         24.6210   75.2830  129.0210 C.2    90  HIS90       0.2264
     41  O         25.8160   75.2740  129.3150 O.2    90  HIS90      -0.2867
     42  CB        23.1180   77.0980  129.8240 C.3    90  HIS90       0.0745
     43  CG        22.2050   77.6070  130.8870 C.ar   90  HIS90       0.0817
     44  ND1       20.9180   77.1400  131.0420 N.ar   90  HIS90      -0.2268
     45  CD2       22.3960   78.5280  131.8610 C.ar   90  HIS90       0.1154
     46  CE1       20.3530   77.7540  132.0670 C.ar   90  HIS90       0.1986
     47  NE2       21.2300   78.6020  132.5830 N.ar   90  HIS90      -0.2212
     48  N         25.3960   82.4180  129.6940 N.3    94  GLU94      -0.1245
     49  CA        24.2820   83.0920  130.3490 C.3    94  GLU94       0.1567
     50  C         24.7250   84.5260  130.5810 C.2    94  GLU94       0.2260
     51  O         25.5990   84.7820  131.4040 O.2    94  GLU94      -0.2867
     52  CB        23.9120   82.4200  131.6650 C.3    94  GLU94       0.0388
     53  CG        22.8920   83.2040  132.4990 C.3    94  GLU94       0.1160
     54  CD        22.2290   82.3380  133.5570 C.2    94  GLU94       0.3649
     55  OE1       21.6860   81.2900  133.1720 O.co2  94  GLU94      -0.2457
     56  OE2       22.2720   82.7030  134.7530 O.co2  94  GLU94      -0.2457
     57  N         23.6560   88.3830  131.5270 N.3    96  ARG96      -0.1245
     58  CA        22.6280   89.1880  132.1660 C.3    96  ARG96       0.1563
     59  C         23.1930   90.5600  132.5050 C.2    96  ARG96       0.2260
     60  O         24.2920   90.6770  133.0560 O.2    96  ARG96      -0.2867
     61  CB        22.0970   88.5050  133.4420 C.3    96  ARG96       0.0307
     62  CG        21.5000   87.1140  133.2140 C.3    96  ARG96       0.0489
     63  CD        20.1890   87.1710  132.4110 C.3    96  ARG96       0.2205
     64  NE        19.5620   85.8460  132.3110 N.pl3  96  ARG96      -0.0865
     65  CZ        19.8090   84.9730  131.3420 C.cat  96  ARG96       0.5346
     66  NH1       20.6750   85.2720  130.3790 N.pl3  96  ARG96       0.1354
     67  NH2       19.2120   83.7880  131.3360 N.pl3  96  ARG96       0.1354
     68  N         22.0560   93.9580  134.5580 N.3    98  ILE98      -0.1245
     69  CA        21.0680   94.3920  135.5470 C.3    98  ILE98       0.1561
     70  C         20.6890   95.8600  135.3260 C.2    98  ILE98       0.2260
     71  O         21.5470   96.7410  135.4020 O.2    98  ILE98      -0.2867
     72  CB        21.5920   94.2110  136.9890 C.3    98  ILE98       0.0252
     73  CG1       22.0450   92.7590  137.2270 C.3    98  ILE98       0.0019
     74  CG2       20.5290   94.6790  138.0130 C.3    98  ILE98       0.0019
     75  CD1       21.0080   91.6960  136.8110 C.3    98  ILE98       0.0001
     76  N         23.9910   85.7380  141.7320 N.3   105  PHE105     -0.1241
     77  CA        24.3590   84.5660  140.9410 C.3   105  PHE105      0.1605
     78  C         25.4130   83.7960  141.7190 C.2   105  PHE105      0.2264
     79  O         26.4710   84.3320  142.0510 O.2   105  PHE105     -0.2867
     80  CB        24.9120   84.9440  139.5530 C.3   105  PHE105      0.0534
     81  CG        23.9040   85.6220  138.6480 C.ar  105  PHE105     -0.0203
     82  CD1       23.6230   86.9700  138.7900 C.ar  105  PHE105     -0.0042
     83  CD2       23.2580   84.9110  137.6450 C.ar  105  PHE105     -0.0042
     84  CE1       22.7100   87.6120  137.9400 C.ar  105  PHE105     -0.0003
     85  CE2       22.3440   85.5350  136.7940 C.ar  105  PHE105     -0.0003
     86  CZ        22.0670   86.8910  136.9460 C.ar  105  PHE105     -0.0000
     87  N         20.5870   81.1870  140.4740 N.3   135  PHE135     -0.1241
     88  CA        20.2480   82.5820  140.6950 C.3   135  PHE135      0.1605
     89  C         19.1190   82.7110  141.7010 C.2   135  PHE135      0.2264
     90  O         18.1600   81.9360  141.6810 O.2   135  PHE135     -0.2867
     91  CB        19.8250   83.2810  139.3920 C.3   135  PHE135      0.0534
     92  CG        19.2560   84.6730  139.6220 C.ar  135  PHE135     -0.0203
     93  CD1       20.1030   85.7800  139.7220 C.ar  135  PHE135     -0.0042
     94  CD2       17.8880   84.8620  139.7790 C.ar  135  PHE135     -0.0042
     95  CE1       19.5870   87.0440  139.9610 C.ar  135  PHE135     -0.0003
     96  CE2       17.3640   86.1270  140.0270 C.ar  135  PHE135     -0.0003
     97  CZ        18.2060   87.2140  140.1150 C.ar  135  PHE135     -0.0000
     98  N         14.2820   92.3920  140.5540 N.3   143  VAL143     -0.1245
     99  CA        15.3210   92.6790  139.5780 C.3   143  VAL143      0.1561
    100  C         14.7110   92.8740  138.1970 C.2   143  VAL143      0.2260
    101  O         13.7340   92.2120  137.8380 O.2   143  VAL143     -0.2867
    102  CB        16.4000   91.5640  139.5320 C.3   143  VAL143      0.0252
    103  CG1       15.8770   90.3170  138.8050 C.3   143  VAL143      0.0019
    104  CG2       17.6720   92.0960  138.8760 C.3   143  VAL143      0.0019
    105  N         16.2640   92.9080  134.2960 N.3   145  ALA145     -0.1245
    106  CA        17.5080   92.5480  133.6340 C.3   145  ALA145      0.1562
    107  C         17.3480   92.4470  132.1280 C.2   145  ALA145      0.2260
    108  O         16.2870   92.0650  131.6180 O.2   145  ALA145     -0.2867
    109  CB        18.0430   91.2220  134.1930 C.3   145  ALA145      0.0290
    110  N         18.4840   90.2400  129.1050 N.3   147  ARG147     -0.1245
    111  CA        19.0840   88.9600  128.7420 C.3   147  ARG147      0.1563
    112  C         19.7110   89.1030  127.3710 C.2   147  ARG147      0.2260
    113  O         19.0920   89.6530  126.4570 O.2   147  ARG147     -0.2867
    114  CB        18.0420   87.8270  128.7270 C.3   147  ARG147      0.0307
    115  CG        17.2990   87.6430  130.0490 C.3   147  ARG147      0.0489
    116  CD        16.4500   86.3620  130.0570 C.3   147  ARG147      0.2205
    117  NE        15.3870   86.3910  129.0460 N.pl3 147  ARG147     -0.0865
    118  CZ        14.5300   85.3970  128.8280 C.cat 147  ARG147      0.5346
    119  NH1       14.5990   84.2820  129.5460 N.pl3 147  ARG147      0.1354
    120  NH2       13.6040   85.5180  127.8870 N.pl3 147  ARG147      0.1354
@<TRIPOS>BOND
     1   113   112    2
     2   112   111    1
     3   120   118    1
     4   114   111    1
     5   114   115    1
     6   111   110    1
     7   118   117    2
     8   118   119    1
     9    40    41    2
    10    40    39    1
    11   117   116    1
    12    48    49    1
    13    42    39    1
    14    42    43    1
    15   115   116    1
    16    39    38    1
    17    49    50    1
    18    49    52    1
    19    66    65    1
    20    50    51    2
    21    43    44   ar
    22    43    45   ar
    23     1     2    1
    24    44    46   ar
    25    67    65    1
    26    65    64    2
    27    57    58    1
    28   108   107    2
    29    52    53    1
    30    45    47   ar
    31     2     5    1
    32     2     3    1
    33     5     7    1
    34     5     6    1
    35    46    47   ar
    36   107   106    1
    37    58    59    1
    38    58    61    1
    39    64    63    1
    40     8     6    1
    41    63    62    1
    42    53    54    1
    43    59    60    2
    44    55    54   ar
    45     3     4    2
    46    62    61    1
    47    54    56   ar
    48   106   109    1
    49   106   105    1
    50    68    69    1
    51    35    37   ar
    52    35    33   ar
    53    70    71    2
    54    70    69    1
    55    25    27   ar
    56    25    23   ar
    57    37    36   ar
    58    69    72    1
    59    27    26   ar
    60    30    31    2
    61    30    29    1
    62    33    32    1
    63    33    34   ar
    64    32    29    1
    65    23    22   ar
    66    29    28    1
    67    36    34   ar
    68    85    86   ar
    69    85    83   ar
    70    75    73    1
    71    86    84   ar
    72    72    73    1
    73    72    74    1
    74    26    24   ar
    75     9    10    1
    76    14    16    1
    77    14    13    1
    78    83    81   ar
    79    22    24   ar
    80    22    21    1
    81   101   100    2
    82    84    82   ar
    83    10    13    1
    84    10    11    1
    85   100    99    1
    86    13    15    1
    87    81    82   ar
    88    81    80    1
    89    18    17    1
    90    18    21    1
    91    18    19    1
    92   103   102    1
    93   104   102    1
    94    11    12    2
    95    91    92    1
    96    91    88    1
    97   102    99    1
    98    20    19    2
    99    80    77    1
   100    99    98    1
   101    92    93   ar
   102    92    94   ar
   103    93    95   ar
   104    94    96   ar
   105    95    97   ar
   106    96    97   ar
   107    87    88    1
   108    88    89    1
   109    77    78    1
   110    77    76    1
   111    90    89    2
   112    78    79    2
