@<TRIPOS>MOLECULE
tmp/5i8wA01.pdb
 175 169 0 0 0
SMALL
GASTEIGER

@<TRIPOS>ATOM
      1  N        -14.6380   -5.1560   25.4540 N.3    91  ILE91      -0.1231
      2  CA       -14.0630   -5.5590   24.1780 C.3    91  ILE91       0.1692
      3  C        -12.6000   -5.8680   24.4150 C.2    91  ILE91       0.2593
      4  O        -11.9150   -5.1030   25.0920 O.2    91  ILE91      -0.2718
      5  CB       -14.0750   -4.3740   23.1870 C.3    91  ILE91       0.0266
      6  CG1      -15.4960   -4.0400   22.7390 C.3    91  ILE91       0.0019
      7  CG2      -13.1930   -4.6630   21.9740 C.3    91  ILE91       0.0020
      8  CD1      -15.5370   -2.8410   21.8060 C.3    91  ILE91       0.0001
      9  N        -12.1120   -6.9690   23.8550 N.am   92  GLY92      -0.1942
     10  CA       -10.6860   -7.2430   23.8800 C.3    92  GLY92       0.2014
     11  C        -10.3100   -8.2480   22.8120 C.2    92  GLY92       0.2639
     12  O        -11.1450   -9.0510   22.3980 O.2    92  GLY92      -0.2714
     13  N         -9.0570   -8.1990   22.3620 N.am   93  PHE93      -0.1959
     14  CA        -8.5270   -9.1790   21.4120 C.3    93  PHE93       0.1771
     15  C         -7.0020   -9.1350   21.3510 C.2    93  PHE93       0.2619
     16  O         -6.3990   -8.0530   21.3360 O.2    93  PHE93      -0.2715
     17  CB        -9.0740   -8.9440   20.0010 C.3    93  PHE93       0.0574
     18  CG        -8.5160   -9.8930   18.9710 C.ar   93  PHE93      -0.0200
     19  CD1       -9.0310  -11.1790   18.8420 C.ar   93  PHE93      -0.0042
     20  CD2       -7.4810   -9.5050   18.1320 C.ar   93  PHE93      -0.0042
     21  CE1       -8.5190  -12.0640   17.8950 C.ar   93  PHE93      -0.0003
     22  CE2       -6.9610  -10.3860   17.1880 C.ar   93  PHE93      -0.0003
     23  CZ        -7.4820  -11.6640   17.0670 C.ar   93  PHE93      -0.0000
     24  N         -6.3950  -10.3170   21.3220 N.am   94  ALA94      -0.1977
     25  CA        -5.0070  -10.4850   20.9100 C.3    94  ALA94       0.1597
     26  C         -4.9220  -11.7540   20.0910 C.2    94  ALA94       0.2287
     27  O         -5.6630  -12.7120   20.3490 O.2    94  ALA94      -0.2864
     28  CB        -4.0870  -10.5870   22.1080 C.3    94  ALA94       0.0319
     29  N         -1.0510  -14.6570   23.4700 N.3    99  ILE99      -0.1245
     30  CA        -1.6100  -14.9570   24.7890 C.3    99  ILE99       0.1561
     31  C         -1.5200  -16.4470   25.0780 C.2    99  ILE99       0.2260
     32  O         -2.4170  -17.0460   25.6860 O.2    99  ILE99      -0.2867
     33  CB        -3.0670  -14.5100   24.9170 C.3    99  ILE99       0.0252
     34  CG1       -3.8840  -15.0070   23.7220 C.3    99  ILE99       0.0019
     35  CG2       -3.1470  -13.0000   25.0390 C.3    99  ILE99       0.0019
     36  CD1       -5.3620  -14.6670   23.8120 C.3    99  ILE99       0.0001
     37  N        -11.0900   -4.8380   32.9170 N.3   144  SER144     -0.1202
     38  CA        -9.6680   -5.1650   32.9010 C.3   144  SER144      0.2020
     39  C         -9.4650   -6.4720   33.6730 C.2   144  SER144      0.2618
     40  O        -10.4310   -7.1260   34.0770 O.2   144  SER144     -0.2717
     41  CB        -8.8600   -4.0220   33.5190 C.3   144  SER144      0.2103
     42  OG        -7.4660   -4.2250   33.3480 O.3   144  SER144     -0.2182
     43  N         -8.2130   -6.8490   33.8800 N.am  145  TYR145     -0.1975
     44  CA        -7.8830   -8.0940   34.5650 C.3   145  TYR145      0.1639
     45  C         -6.5600   -7.9010   35.2990 C.2   145  TYR145      0.2290
     46  O         -5.7340   -7.0950   34.8640 O.2   145  TYR145     -0.2864
     47  CB        -7.7810   -9.2490   33.5570 C.3   145  TYR145      0.0560
     48  CG        -7.3780  -10.5680   34.1880 C.ar  145  TYR145     -0.0198
     49  CD1       -8.1690  -11.1560   35.1570 C.ar  145  TYR145     -0.0009
     50  CD2       -6.2010  -11.2050   33.8240 C.ar  145  TYR145     -0.0009
     51  CE1       -7.8120  -12.3470   35.7470 C.ar  145  TYR145      0.0417
     52  CE2       -5.8360  -12.4090   34.4050 C.ar  145  TYR145      0.0417
     53  CZ        -6.6380  -12.9680   35.3680 C.ar  145  TYR145      0.1957
     54  OH        -6.2710  -14.1570   35.9550 O.3   145  TYR145     -0.2866
     55  N          0.8990  -12.7570   34.9710 N.3   152  ILE152     -0.1231
     56  CA         0.1430  -13.9990   35.1060 C.3   152  ILE152      0.1678
     57  C          0.4770  -14.8580   33.8900 C.2   152  ILE152      0.2434
     58  O          0.5020  -14.3480   32.7700 O.2   152  ILE152     -0.2733
     59  CB        -1.3790  -13.7000   35.1460 C.3   152  ILE152      0.0265
     60  CG1       -1.7050  -12.8070   36.3510 C.3   152  ILE152      0.0019
     61  CG2       -2.1980  -14.9860   35.1920 C.3   152  ILE152      0.0020
     62  CD1       -3.1940  -12.6000   36.6110 C.3   152  ILE152      0.0001
     63  N          0.7540  -16.1560   34.0960 N.am  153  PRO153     -0.2718
     64  CA         1.1500  -16.9980   32.9590 C.3   153  PRO153      0.1535
     65  C          0.1430  -16.9590   31.8040 C.2   153  PRO153      0.2599
     66  O         -1.0700  -16.9120   32.0370 O.2   153  PRO153     -0.2715
     67  CB         1.2150  -18.3970   33.5710 C.3   153  PRO153      0.0310
     68  CG         1.5340  -18.1460   35.0240 C.3   153  PRO153      0.0237
     69  CD         0.7800  -16.8970   35.3730 C.3   153  PRO153      0.0939
     70  N          0.6720  -16.9400   30.5820 N.am  154  ASN154     -0.1959
     71  CA        -0.1150  -16.9050   29.3490 C.3   154  ASN154      0.1819
     72  C         -0.7430  -15.5540   28.9870 C.2   154  ASN154      0.2621
     73  O         -0.9450  -15.2820   27.8090 O.2   154  ASN154     -0.2715
     74  CB        -1.1540  -18.0370   29.2930 C.3   154  ASN154      0.1195
     75  CG        -0.5160  -19.4180   29.3530 C.2   154  ASN154      0.2630
     76  OD1        0.3140  -19.7710   28.5160 O.2   154  ASN154     -0.2716
     77  ND2       -0.8830  -20.1940   30.3630 N.am  154  ASN154     -0.0877
     78  N         -1.0240  -14.6960   29.9660 N.am  155  TYR155     -0.1974
     79  CA        -1.7270  -13.4480   29.6560 C.3   155  TYR155      0.1639
     80  C         -0.8890  -12.5430   28.7670 C.2   155  TYR155      0.2290
     81  O         -1.4150  -11.8940   27.8620 O.2   155  TYR155     -0.2864
     82  CB        -2.1770  -12.7260   30.9310 C.3   155  TYR155      0.0560
     83  CG        -3.3900  -11.8350   30.7390 C.ar  155  TYR155     -0.0198
     84  CD1       -4.5980  -12.3560   30.3100 C.ar  155  TYR155     -0.0009
     85  CD2       -3.3250  -10.4730   31.0000 C.ar  155  TYR155     -0.0009
     86  CE1       -5.7080  -11.5560   30.1470 C.ar  155  TYR155      0.0417
     87  CE2       -4.4330   -9.6600   30.8420 C.ar  155  TYR155      0.0417
     88  CZ        -5.6200  -10.2050   30.4140 C.ar  155  TYR155      0.1957
     89  OH        -6.7330   -9.4010   30.2550 O.3   155  TYR155     -0.2866
     90  N         -1.5510   -9.3450   26.3620 N.3   158  MET158     -0.1245
     91  CA        -2.7870   -8.7400   26.8550 C.3   158  MET158      0.1570
     92  C         -2.5580   -8.0060   28.1920 C.2   158  MET158      0.2261
     93  O         -3.2720   -7.0490   28.5120 O.2   158  MET158     -0.2867
     94  CB        -3.8960   -9.8000   26.9740 C.3   158  MET158      0.0387
     95  CG        -5.2710   -9.2390   27.3330 C.3   158  MET158      0.0595
     96  SD        -5.9020   -7.9970   26.1580 S.3   158  MET158     -0.1393
     97  CE        -5.5610   -8.7970   24.6510 C.3   158  MET158      0.0692
     98  N         -3.8330   -4.2620   28.7640 N.3   162  LYS162     -0.1245
     99  CA        -4.6970   -3.9170   29.8960 C.3   162  LYS162      0.1561
    100  C         -4.0580   -2.8600   30.8020 C.2   162  LYS162      0.2260
    101  O         -4.7660   -2.0430   31.3790 O.2   162  LYS162     -0.2867
    102  CB        -5.0690   -5.1590   30.7060 C.3   162  LYS162      0.0271
    103  CG        -6.0060   -6.1180   29.9920 C.3   162  LYS162      0.0035
    104  CD        -7.3540   -5.4690   29.6630 C.3   162  LYS162      0.0206
    105  CE        -8.3600   -6.5540   29.2780 C.3   162  LYS162      0.1093
    106  NZ        -9.6790   -5.9970   28.8290 N.3   162  LYS162     -0.1314
    107  N        -12.4780  -11.0050   38.0610 N.3   189  GLY189     -0.1210
    108  CA       -11.8400  -12.2990   38.2010 C.3   189  GLY189      0.1940
    109  C        -12.2140  -13.1770   37.0250 C.2   189  GLY189      0.2454
    110  O        -13.0740  -12.8060   36.2230 O.2   189  GLY189     -0.2732
    111  N        -11.5820  -14.3530   36.9170 N.am  190  PRO190     -0.2717
    112  CA       -11.9000  -15.2220   35.7860 C.3   190  PRO190      0.1535
    113  C        -13.3370  -15.7110   35.8230 C.2   190  PRO190      0.2598
    114  O        -13.8730  -16.0870   36.8770 O.2   190  PRO190     -0.2715
    115  CB       -10.9180  -16.3890   35.9520 C.3   190  PRO190      0.0310
    116  CG       -10.5710  -16.3870   37.4100 C.3   190  PRO190      0.0237
    117  CD       -10.5560  -14.9410   37.7990 C.3   190  PRO190      0.0939
    118  N        -13.9540  -15.6900   34.6440 N.am  191  ILE191     -0.1978
    119  CA       -15.3060  -16.1610   34.4160 C.3   191  ILE191      0.1596
    120  C        -15.2850  -16.8740   33.0750 C.2   191  ILE191      0.2287
    121  O        -14.7480  -16.3430   32.0960 O.2   191  ILE191     -0.2864
    122  CB       -16.3000  -14.9880   34.3020 C.3   191  ILE191      0.0276
    123  CG1      -16.3050  -14.1600   35.5870 C.3   191  ILE191      0.0022
    124  CG2      -17.6950  -15.5020   33.9860 C.3   191  ILE191      0.0022
    125  CD1      -17.1420  -12.8940   35.5080 C.3   191  ILE191      0.0001
    126  N        -16.1140  -17.3670   29.9020 N.3   193  THR193     -0.1218
    127  CA       -16.7850  -16.7580   28.7510 C.3   193  THR193      0.1862
    128  C        -16.2150  -17.3100   27.4490 C.2   193  THR193      0.2287
    129  O        -15.3260  -18.1620   27.4660 O.2   193  THR193     -0.2866
    130  CB       -16.6070  -15.2350   28.7280 C.3   193  THR193      0.1770
    131  OG1      -15.2130  -14.9250   28.5880 O.3   193  THR193     -0.2211
    132  CG2      -17.1430  -14.6050   30.0080 C.3   193  THR193      0.0375
    133  N        -14.3880  -15.6980   25.3270 N.3   195  ALA195     -0.1231
    134  CA       -13.0060  -15.2360   25.2690 C.3   195  ALA195      0.1694
    135  C        -12.0800  -16.1530   26.0710 C.2   195  ALA195      0.2591
    136  O        -10.9000  -16.2900   25.7470 O.2   195  ALA195     -0.2718
    137  CB       -12.9050  -13.8000   25.7720 C.3   195  ALA195      0.0304
    138  N        -12.6230  -16.7750   27.1170 N.am  196  ALA196     -0.1980
    139  CA       -11.8420  -17.6510   27.9920 C.3   196  ALA196      0.1597
    140  C        -11.4840  -18.9710   27.3110 C.2   196  ALA196      0.2287
    141  O        -10.5480  -19.6580   27.7240 O.2   196  ALA196     -0.2864
    142  CB       -12.5780  -17.9030   29.3030 C.3   196  ALA196      0.0319
    143  N         -6.7430  -19.7780   25.7750 N.3   199  ILE199     -0.1245
    144  CA        -5.9620  -20.7900   26.4660 C.3   199  ILE199      0.1561
    145  C         -6.7680  -21.2650   27.6710 C.2   199  ILE199      0.2260
    146  O         -7.3010  -20.4410   28.4170 O.2   199  ILE199     -0.2867
    147  CB        -4.5870  -20.2360   26.9070 C.3   199  ILE199      0.0252
    148  CG1       -3.5580  -20.3750   25.7840 C.3   199  ILE199      0.0019
    149  CG2       -4.0640  -20.9640   28.1140 C.3   199  ILE199      0.0019
    150  CD1       -2.7540  -21.6700   25.8350 C.3   199  ILE199      0.0001
    151  N         -5.4120  -22.4420   30.3580 N.3   201  SER201     -0.1202
    152  CA        -4.7000  -22.4420   31.6120 C.3   201  SER201      0.2020
    153  C         -5.7980  -21.8720   32.4880 C.2   201  SER201      0.2618
    154  O         -5.6660  -21.7600   33.7020 O.2   201  SER201     -0.2717
    155  CB        -3.5060  -21.4940   31.5600 C.3   201  SER201      0.2103
    156  OG        -3.9040  -20.1810   31.1950 O.3   201  SER201     -0.2182
    157  N         -6.8960  -21.5200   31.8150 N.am  202  PHE202     -0.1975
    158  CA        -8.1030  -20.9990   32.4300 C.3   202  PHE202      0.1639
    159  C         -8.6820  -21.9320   33.4800 C.2   202  PHE202      0.2290
    160  O         -9.0320  -21.4850   34.5650 O.2   202  PHE202     -0.2864
    161  CB        -9.1670  -20.6980   31.3730 C.3   202  PHE202      0.0560
    162  CG       -10.3180  -19.9200   31.9100 C.ar  202  PHE202     -0.0200
    163  CD1      -10.2090  -18.5500   32.0890 C.ar  202  PHE202     -0.0042
    164  CD2      -11.4910  -20.5550   32.2840 C.ar  202  PHE202     -0.0042
    165  CE1      -11.2580  -17.8170   32.6140 C.ar  202  PHE202     -0.0003
    166  CE2      -12.5480  -19.8320   32.8100 C.ar  202  PHE202     -0.0003
    167  CZ       -12.4300  -18.4590   32.9740 C.ar  202  PHE202     -0.0000
    168  N         -6.4300  -21.5470   36.4060 N.3   205  ILE205     -0.1245
    169  CA        -6.5960  -20.2600   37.0810 C.3   205  ILE205      0.1561
    170  C         -7.9070  -20.2570   37.8720 C.2   205  ILE205      0.2260
    171  O         -7.9760  -19.7720   39.0060 O.2   205  ILE205     -0.2867
    172  CB        -6.5850  -19.0720   36.0760 C.3   205  ILE205      0.0252
    173  CG1       -5.1620  -18.6530   35.6810 C.3   205  ILE205      0.0019
    174  CG2       -7.2350  -17.8450   36.6920 C.3   205  ILE205      0.0019
    175  CD1       -4.1660  -19.7640   35.4350 C.3   205  ILE205      0.0001
@<TRIPOS>BOND
     1    23    22   ar
     2    23    21   ar
     3    22    20   ar
     4    21    19   ar
     5    20    18   ar
     6    19    18   ar
     7    18    17    1
     8    17    14    1
     9    26    27    2
    10    26    25    1
    11    25    24    1
    12    25    28    1
    13    24    15   am
    14    16    15    2
    15    15    14    1
    16    14    13    1
    17     8     6    1
    18     7     5    1
    19    13    11   am
    20    12    11    2
    21     6     5    1
    22    11    10    1
    23     5     2    1
    24    29    30    1
    25    34    36    1
    26    34    33    1
    27     9    10    1
    28     9     3   am
    29     2     3    1
    30     2     1    1
    31     3     4    2
    32    97    96    1
    33    30    33    1
    34    30    31    1
    35    33    35    1
    36    31    32    2
    37   134   133    1
    38   134   137    1
    39   134   135    1
    40   136   135    2
    41   143   144    1
    42   148   150    1
    43   148   147    1
    44   135   138   am
    45    96    95    1
    46    90    91    1
    47   144   147    1
    48   144   145    1
    49    91    94    1
    50    91    92    1
    51   147   149    1
    52    94    95    1
    53   138   139    1
    54   140   141    2
    55   140   139    1
    56   128   129    2
    57   128   127    1
    58   145   146    2
    59    73    72    2
    60    81    80    2
    61   139   142    1
    62    92    93    2
    63    76    75    2
    64   131   130    1
    65   130   127    1
    66   130   132    1
    67   127   126    1
    68    98    99    1
    69    80    79    1
    70   106   105    1
    71    72    71    1
    72    72    78   am
    73   105   104    1
    74    74    71    1
    75    74    75    1
    76    71    70    1
    77    75    77   am
    78    79    78    1
    79    79    82    1
    80   104   103    1
    81    99   102    1
    82    99   100    1
    83   103   102    1
    84    86    84   ar
    85    86    88   ar
    86    89    88    1
    87    84    83   ar
    88   151   152    1
    89    88    87   ar
    90    70    65   am
    91    83    82    1
    92    83    85   ar
    93   100   101    2
    94    87    85   ar
    95   156   155    1
    96   161   162    1
    97   161   158    1
    98   155   152    1
    99   152   153    1
   100    65    66    2
   101    65    64    1
   102   157   158    1
   103   157   153   am
   104   162   163   ar
   105   162   164   ar
   106   163   165   ar
   107   121   120    2
   108   164   166   ar
   109   158   159    1
   110   153   154    2
   111   165   167   ar
   112    58    57    2
   113   166   167   ar
   114    38    37    1
   115    38    41    1
   116    38    39    1
   117    64    67    1
   118    64    63    1
   119   120   119    1
   120    42    41    1
   121   159   160    2
   122    47    48    1
   123    47    44    1
   124    67    68    1
   125    39    43   am
   126    39    40    2
   127    50    48   ar
   128    50    52   ar
   129    43    44    1
   130    57    63   am
   131    57    56    1
   132   124   122    1
   133    63    69    1
   134    48    49   ar
   135   122   119    1
   136   122   123    1
   137    52    53   ar
   138   119   118    1
   139    44    45    1
   140   118   113   am
   141    46    45    2
   142    55    56    1
   143    68    69    1
   144    56    59    1
   145    59    61    1
   146    59    60    1
   147    49    51   ar
   148    53    51   ar
   149    53    54    1
   150   175   173    1
   151   125   123    1
   152   173   172    1
   153   112   113    1
   154   112   115    1
   155   112   111    1
   156   113   114    2
   157   115   116    1
   158   172   174    1
   159   172   169    1
   160   110   109    2
   161    60    62    1
   162   168   169    1
   163   111   109   am
   164   111   117    1
   165   109   108    1
   166   169   170    1
   167   116   117    1
   168   170   171    2
   169   107   108    1
