@<TRIPOS>MOLECULE
tmp/5i8xC00.pdb
 76 70 0 0 0
SMALL
GASTEIGER

@<TRIPOS>ATOM
      1  N         28.2420   15.9810  -27.6390 N.3    21  ASN21      -0.1225
      2  CA        28.2890   17.3770  -27.1890 C.3    21  ASN21       0.1785
      3  C         29.5990   17.5500  -26.4180 C.2    21  ASN21       0.2598
      4  O         29.6150   17.7050  -25.2040 O.2    21  ASN21      -0.2718
      5  CB        27.0910   17.7540  -26.3100 C.3    21  ASN21       0.1169
      6  CG        25.8120   17.8900  -27.0910 C.2    21  ASN21       0.2627
      7  OD1       25.5640   18.9130  -27.7300 O.2    21  ASN21      -0.2716
      8  ND2       24.9770   16.8690  -27.0300 N.am   21  ASN21      -0.0877
      9  N         30.7180   17.5040  -27.1390 N.am   22  SER22      -0.1938
     10  CA        32.0270   17.5790  -26.5050 C.3    22  SER22       0.2055
     11  C         33.0940   17.7640  -27.5780 C.2    22  SER22       0.2644
     12  O         32.9260   17.3120  -28.7100 O.2    22  SER22      -0.2714
     13  CB        32.3280   16.3080  -25.6920 C.3    22  SER22       0.2130
     14  OG        33.6930   16.2980  -25.2690 O.3    22  SER22      -0.2179
     15  N         34.2010   18.4010  -27.2090 N.am   23  SER23      -0.1935
     16  CA        35.2750   18.4700  -28.1860 C.3    23  SER23       0.2055
     17  C         36.0640   17.1660  -28.2620 C.2    23  SER23       0.2643
     18  O         36.8760   17.0070  -29.1730 O.2    23  SER23      -0.2714
     19  CB        36.1820   19.6790  -27.9000 C.3    23  SER23       0.2130
     20  OG        37.0620   19.4300  -26.8330 O.3    23  SER23      -0.2179
     21  N         35.8010   16.2140  -27.3650 N.am   24  GLY24      -0.1954
     22  CA        36.4210   14.9000  -27.4410 C.3    24  GLY24       0.1869
     23  C         35.6050   13.9220  -28.2760 C.2    24  GLY24       0.2309
     24  O         34.3720   13.9290  -28.2480 O.2    24  GLY24      -0.2863
     25  N         30.1850   19.1710  -31.0860 N.3    45  THR45      -0.1218
     26  CA        29.7120   20.0510  -30.0290 C.3    45  THR45       0.1862
     27  C         28.3060   20.5670  -30.3170 C.2    45  THR45       0.2287
     28  O         27.8340   21.4880  -29.6390 O.2    45  THR45      -0.2866
     29  CB        30.6900   21.2130  -29.8280 C.3    45  THR45       0.1770
     30  OG1       31.0470   21.7770  -31.0970 O.3    45  THR45      -0.2211
     31  CG2       31.9540   20.7200  -29.1380 C.3    45  THR45       0.0375
     32  N         29.9240   11.9880  -18.8010 N.3    95  GLU95      -0.1231
     33  CA        30.7970   13.1200  -18.5280 C.3    95  GLU95       0.1699
     34  C         32.2330   12.6820  -18.7710 C.2    95  GLU95       0.2592
     35  O         32.7110   11.7330  -18.1380 O.2    95  GLU95      -0.2718
     36  CB        30.6080   13.6310  -17.0950 C.3    95  GLU95       0.0402
     37  CG        31.5390   14.7670  -16.7180 C.3    95  GLU95       0.1161
     38  CD        31.5150   15.9000  -17.7350 C.2    95  GLU95       0.3649
     39  OE1       30.4100   16.3840  -18.0430 O.co2  95  GLU95      -0.2457
     40  OE2       32.5980   16.2940  -18.2280 O.co2  95  GLU95      -0.2457
     41  N         32.9130   13.3680  -19.6810 N.am   96  ASP96      -0.1960
     42  CA        34.2930   13.0380  -20.0060 C.3    96  ASP96       0.1840
     43  C         35.2980   14.0060  -19.4050 C.2    96  ASP96       0.2622
     44  O         36.5050   13.8150  -19.5930 O.2    96  ASP96      -0.2715
     45  CB        34.4680   12.9580  -21.5290 C.3    96  ASP96       0.1450
     46  CG        34.2140   14.2920  -22.2490 C.2    96  ASP96       0.3671
     47  OD1       34.3490   15.3790  -21.6560 O.co2  96  ASP96      -0.2456
     48  OD2       33.8950   14.2540  -23.4550 O.co2  96  ASP96      -0.2456
     49  N         34.8390   15.0360  -18.6940 N.am   97  GLY97      -0.1954
     50  CA        35.7150   16.0230  -18.0830 C.3    97  GLY97       0.1869
     51  C         35.2930   16.4610  -16.6900 C.2    97  GLY97       0.2309
     52  O         34.8290   15.6430  -15.8960 O.2    97  GLY97      -0.2863
     53  N         33.4660   19.6970  -16.2280 N.3    99  ASP99      -0.1239
     54  CA        32.4490   20.7410  -16.2060 C.3    99  ASP99       0.1674
     55  C         31.0790   20.2050  -15.8050 C.2    99  ASP99       0.2266
     56  O         30.1580   21.0000  -15.5780 O.2    99  ASP99      -0.2867
     57  CB        32.3770   21.4430  -17.5650 C.3    99  ASP99       0.1410
     58  CG        31.7650   20.5760  -18.6450 C.2    99  ASP99       0.3668
     59  OD1       31.7550   19.3420  -18.4880 O.co2  99  ASP99      -0.2456
     60  OD2       31.3020   21.1320  -19.6630 O.co2  99  ASP99      -0.2456
     61  N         28.4740   18.6380  -17.1950 N.3   101  ASP101     -0.1239
     62  CA        27.2200   18.8040  -17.9200 C.3   101  ASP101      0.1674
     63  C         26.5910   17.4810  -18.3530 C.2   101  ASP101      0.2266
     64  O         25.3990   17.4660  -18.6990 O.2   101  ASP101     -0.2867
     65  CB        27.3990   19.7400  -19.1290 C.3   101  ASP101      0.1410
     66  CG        28.4130   19.2400  -20.1510 C.2   101  ASP101      0.3668
     67  OD1       28.9980   18.1400  -20.0000 O.co2 101  ASP101     -0.2456
     68  OD2       28.5940   19.9700  -21.1470 O.co2 101  ASP101     -0.2456
     69  N         28.1600   14.8310  -22.8530 N.3   104  ASP104     -0.1239
     70  CA        29.2620   14.6790  -23.8010 C.3   104  ASP104      0.1674
     71  C         28.9810   13.5620  -24.7950 C.2   104  ASP104      0.2266
     72  O         29.2730   13.6900  -25.9930 O.2   104  ASP104     -0.2867
     73  CB        30.5520   14.4370  -23.0250 C.3   104  ASP104      0.1410
     74  CG        30.8270   15.5490  -22.0170 C.2   104  ASP104      0.3668
     75  OD1       30.5060   16.7050  -22.3710 O.co2 104  ASP104     -0.2456
     76  OD2       31.3380   15.2800  -20.8920 O.co2 104  ASP104     -0.2456
@<TRIPOS>BOND
     1    30    29    1
     2    25    26    1
     3    27    26    1
     4    27    28    2
     5    26    29    1
     6    29    31    1
     7    18    17    2
     8    12    11    2
     9    23    24    2
    10    23    22    1
    11    17    16    1
    12    17    21   am
    13    16    19    1
    14    16    15    1
    15    19    20    1
    16     7     6    2
    17     1     2    1
    18    11    15   am
    19    11    10    1
    20    22    21    1
    21     2     3    1
    22     2     5    1
    23     9    10    1
    24     9     3   am
    25     6     8   am
    26     6     5    1
    27    10    13    1
    28     3     4    2
    29    72    71    2
    30    13    14    1
    31    71    70    1
    32    70    73    1
    33    70    69    1
    34    48    46   ar
    35    73    74    1
    36    75    74   ar
    37    46    47   ar
    38    46    45    1
    39    74    76   ar
    40    45    42    1
    41    68    66   ar
    42    66    67   ar
    43    66    65    1
    44    42    41    1
    45    42    43    1
    46    41    34   am
    47    60    58   ar
    48    44    43    2
    49    43    49   am
    50    65    62    1
    51    32    33    1
    52    34    33    1
    53    34    35    2
    54    64    63    2
    55    49    50    1
    56    58    59   ar
    57    58    57    1
    58    33    36    1
    59    63    62    1
    60    40    38   ar
    61    50    51    1
    62    39    38   ar
    63    62    61    1
    64    38    37    1
    65    57    54    1
    66    36    37    1
    67    51    52    2
    68    53    54    1
    69    54    55    1
    70    55    56    2
