@<TRIPOS>MOLECULE
tmp/5i8yA00.pdb
 130 122 0 0 0
SMALL
GASTEIGER

@<TRIPOS>ATOM
      1  N         13.6400   91.0360  130.7080 N.3    67  ILE67      -0.1245
      2  CA        12.8040   90.2370  131.5960 C.3    67  ILE67       0.1561
      3  C         12.6630   90.9590  132.9260 C.2    67  ILE67       0.2260
      4  O         13.6170   91.5700  133.4110 O.2    67  ILE67      -0.2867
      5  CB        13.3870   88.8090  131.8000 C.3    67  ILE67       0.0252
      6  CG1       12.3950   87.9490  132.5820 C.3    67  ILE67       0.0019
      7  CG2       14.7310   88.8760  132.5060 C.3    67  ILE67       0.0019
      8  CD1       12.4540   86.5060  132.1750 C.3    67  ILE67       0.0001
      9  N         11.5400   90.2650  136.8150 N.3    69  ILE69      -0.1245
     10  CA        11.2040   89.2190  137.7660 C.3    69  ILE69       0.1561
     11  C         10.4930   89.8520  138.9460 C.2    69  ILE69       0.2260
     12  O         11.1100   90.3590  139.8840 O.2    69  ILE69      -0.2867
     13  CB        12.4390   88.4490  138.2070 C.3    69  ILE69       0.0252
     14  CG1       13.1480   87.9050  136.9590 C.3    69  ILE69       0.0019
     15  CG2       12.0480   87.3070  139.1270 C.3    69  ILE69       0.0019
     16  CD1       14.1350   86.8230  137.2630 C.3    69  ILE69       0.0001
     17  N         15.2670   78.7870  138.1350 N.3    84  PHE84      -0.1241
     18  CA        16.5000   79.5970  138.1610 C.3    84  PHE84       0.1605
     19  C         17.4580   79.1360  139.2480 C.2    84  PHE84       0.2264
     20  O         18.6810   79.2070  139.0810 O.2    84  PHE84      -0.2867
     21  CB        16.2130   81.0790  138.4100 C.3    84  PHE84       0.0534
     22  CG        15.3920   81.7450  137.3440 C.ar   84  PHE84      -0.0203
     23  CD1       15.4090   81.2900  136.0380 C.ar   84  PHE84      -0.0042
     24  CD2       14.6250   82.8620  137.6560 C.ar   84  PHE84      -0.0042
     25  CE1       14.6480   81.9220  135.0580 C.ar   84  PHE84      -0.0003
     26  CE2       13.8610   83.4980  136.6810 C.ar   84  PHE84      -0.0003
     27  CZ        13.8740   83.0260  135.3820 C.ar   84  PHE84      -0.0000
     28  N         22.3450   74.2030  137.8770 N.3    88  HIS88      -0.1241
     29  CA        22.2290   73.7280  136.5040 C.3    88  HIS88       0.1621
     30  C         23.3470   74.2750  135.6200 C.2    88  HIS88       0.2264
     31  O         24.1150   75.1530  136.0320 O.2    88  HIS88      -0.2867
     32  CB        20.8620   74.1220  135.9210 C.3    88  HIS88       0.0745
     33  CG        20.6730   75.6080  135.7690 C.ar   88  HIS88       0.0817
     34  ND1       20.2100   76.4070  136.7950 N.ar   88  HIS88      -0.2268
     35  CD2       20.9110   76.4360  134.7250 C.ar   88  HIS88       0.1154
     36  CE1       20.1530   77.6650  136.3800 C.ar   88  HIS88       0.1986
     37  NE2       20.5750   77.7130  135.1330 N.ar   88  HIS88      -0.2212
     38  N         24.1490   75.2990  131.1740 N.3    90  HIS90      -0.1241
     39  CA        23.6170   75.4650  129.8230 C.3    90  HIS90       0.1621
     40  C         24.6760   75.0840  128.7930 C.2    90  HIS90       0.2264
     41  O         25.8750   75.0740  129.0890 O.2    90  HIS90      -0.2867
     42  CB        23.1690   76.9140  129.5800 C.3    90  HIS90       0.0745
     43  CG        22.2090   77.4260  130.6090 C.ar   90  HIS90       0.0817
     44  ND1       20.9060   76.9680  130.7040 N.ar   90  HIS90      -0.2268
     45  CD2       22.3610   78.3590  131.5800 C.ar   90  HIS90       0.1154
     46  CE1       20.3080   77.5900  131.7090 C.ar   90  HIS90       0.1986
     47  NE2       21.1580   78.4400  132.2540 N.ar   90  HIS90      -0.2212
     48  N         25.4110   82.2360  129.4260 N.3    94  GLU94      -0.1245
     49  CA        24.2920   82.9220  130.0560 C.3    94  GLU94       0.1567
     50  C         24.7270   84.3650  130.3040 C.2    94  GLU94       0.2260
     51  O         25.6070   84.6110  131.1270 O.2    94  GLU94      -0.2867
     52  CB        23.8820   82.2430  131.3650 C.3    94  GLU94       0.0388
     53  CG        22.9400   83.0780  132.2220 C.3    94  GLU94       0.1160
     54  CD        22.2000   82.2340  133.2580 C.2    94  GLU94       0.3649
     55  OE1       21.6130   81.1980  132.8750 O.co2  94  GLU94      -0.2457
     56  OE2       22.2150   82.6070  134.4410 O.co2  94  GLU94      -0.2457
     57  N         23.6100   88.2700  131.2460 N.3    96  ARG96      -0.1245
     58  CA        22.5620   89.0700  131.8750 C.3    96  ARG96       0.1563
     59  C         23.1110   90.4450  132.2260 C.2    96  ARG96       0.2260
     60  O         24.2050   90.5620  132.7630 O.2    96  ARG96      -0.2867
     61  CB        22.0240   88.3890  133.1380 C.3    96  ARG96       0.0307
     62  CG        21.3850   87.0210  132.8960 C.3    96  ARG96       0.0489
     63  CD        20.0500   87.1010  132.1310 C.3    96  ARG96       0.2205
     64  NE        19.4260   85.7730  132.0670 N.pl3  96  ARG96      -0.0865
     65  CZ        19.6850   84.8790  131.1260 C.cat  96  ARG96       0.5346
     66  NH1       20.5390   85.1760  130.1540 N.pl3  96  ARG96       0.1354
     67  NH2       19.0990   83.6820  131.1540 N.pl3  96  ARG96       0.1354
     68  N         21.9310   93.7900  134.3160 N.3    98  ILE98      -0.1245
     69  CA        20.9200   94.2250  135.2890 C.3    98  ILE98       0.1561
     70  C         20.5330   95.6870  135.0430 C.2    98  ILE98       0.2260
     71  O         21.3850   96.5750  135.1260 O.2    98  ILE98      -0.2867
     72  CB        21.4210   94.0920  136.7460 C.3    98  ILE98       0.0252
     73  CG1       21.9930   92.6890  137.0080 C.3    98  ILE98       0.0019
     74  CG2       20.2890   94.4550  137.7400 C.3    98  ILE98       0.0019
     75  CD1       21.0220   91.5660  136.6650 C.3    98  ILE98       0.0001
     76  N         23.9860   85.6580  141.4890 N.3   105  PHE105     -0.1241
     77  CA        24.3740   84.4720  140.7320 C.3   105  PHE105      0.1605
     78  C         25.4000   83.6900  141.5400 C.2   105  PHE105      0.2264
     79  O         26.4680   84.2160  141.8660 O.2   105  PHE105     -0.2867
     80  CB        24.9790   84.8360  139.3660 C.3   105  PHE105      0.0534
     81  CG        23.9880   85.4180  138.4040 C.ar  105  PHE105     -0.0203
     82  CD1       23.7280   86.7810  138.4050 C.ar  105  PHE105     -0.0042
     83  CD2       23.3060   84.6070  137.5150 C.ar  105  PHE105     -0.0042
     84  CE1       22.8060   87.3310  137.5210 C.ar  105  PHE105     -0.0003
     85  CE2       22.3800   85.1560  136.6210 C.ar  105  PHE105     -0.0003
     86  CZ        22.1380   86.5160  136.6320 C.ar  105  PHE105     -0.0000
     87  N         25.7380   76.6810  137.9270 N.3   133  HIS133     -0.1241
     88  CA        25.3430   77.9560  138.5120 C.3   133  HIS133      0.1621
     89  C         23.8650   77.9540  138.8990 C.2   133  HIS133      0.2264
     90  O         23.1270   77.0100  138.6000 O.2   133  HIS133     -0.2867
     91  CB        25.5970   79.1010  137.5230 C.3   133  HIS133      0.0745
     92  CG        24.7190   79.0370  136.3170 C.ar  133  HIS133      0.0817
     93  ND1       24.9300   78.1410  135.2890 N.ar  133  HIS133     -0.2268
     94  CD2       23.6060   79.7340  135.9820 C.ar  133  HIS133      0.1154
     95  CE1       23.9970   78.2970  134.3700 C.ar  133  HIS133      0.1986
     96  NE2       23.1650   79.2470  134.7760 N.ar  133  HIS133     -0.2212
     97  N         20.5870   81.1320  140.0930 N.3   135  PHE135     -0.1241
     98  CA        20.2430   82.5310  140.3370 C.3   135  PHE135      0.1605
     99  C         19.1380   82.6420  141.3740 C.2   135  PHE135      0.2264
    100  O         18.1610   81.9000  141.3180 O.2   135  PHE135     -0.2867
    101  CB        19.7570   83.2410  139.0620 C.3   135  PHE135      0.0534
    102  CG        19.2080   84.6340  139.3400 C.ar  135  PHE135     -0.0203
    103  CD1       20.0700   85.7180  139.4450 C.ar  135  PHE135     -0.0042
    104  CD2       17.8450   84.8360  139.5510 C.ar  135  PHE135     -0.0042
    105  CE1       19.5850   86.9970  139.7470 C.ar  135  PHE135     -0.0003
    106  CE2       17.3500   86.1100  139.8450 C.ar  135  PHE135     -0.0003
    107  CZ        18.2200   87.1870  139.9440 C.ar  135  PHE135     -0.0000
    108  N         14.2020   92.1610  140.2940 N.3   143  VAL143     -0.1245
    109  CA        15.2480   92.4620  139.3210 C.3   143  VAL143      0.1561
    110  C         14.6290   92.6270  137.9350 C.2   143  VAL143      0.2260
    111  O         13.6780   91.9300  137.5790 O.2   143  VAL143     -0.2867
    112  CB        16.3450   91.3610  139.2840 C.3   143  VAL143      0.0252
    113  CG1       15.8230   90.1090  138.6070 C.3   143  VAL143      0.0019
    114  CG2       17.5950   91.8800  138.5700 C.3   143  VAL143      0.0019
    115  N         16.1740   92.6770  134.0260 N.3   145  ALA145     -0.1245
    116  CA        17.4410   92.3820  133.3700 C.3   145  ALA145      0.1562
    117  C         17.2920   92.2460  131.8620 C.2   145  ALA145      0.2260
    118  O         16.2830   91.7500  131.3680 O.2   145  ALA145     -0.2867
    119  CB        18.0540   91.1010  133.9490 C.3   145  ALA145      0.0290
    120  N         18.4020   90.1030  128.8280 N.3   147  ARG147     -0.1245
    121  CA        19.0080   88.8230  128.4590 C.3   147  ARG147      0.1563
    122  C         19.6380   88.9770  127.0950 C.2   147  ARG147      0.2260
    123  O         19.0390   89.5660  126.2010 O.2   147  ARG147     -0.2867
    124  CB        17.9760   87.6890  128.4300 C.3   147  ARG147      0.0307
    125  CG        17.1890   87.5210  129.7240 C.3   147  ARG147      0.0489
    126  CD        16.3350   86.2480  129.7080 C.3   147  ARG147      0.2205
    127  NE        15.3120   86.2600  128.6590 N.pl3 147  ARG147     -0.0865
    128  CZ        14.4770   85.2480  128.4220 C.cat 147  ARG147      0.5346
    129  NH1       14.5460   84.1390  129.1520 N.pl3 147  ARG147      0.1354
    130  NH2       13.5780   85.3400  127.4520 N.pl3 147  ARG147      0.1354
@<TRIPOS>BOND
     1   123   122    2
     2   122   121    1
     3   130   128    1
     4   128   127    2
     5   128   129    1
     6   124   121    1
     7   124   125    1
     8   121   120    1
     9   127   126    1
    10    40    41    2
    11    40    39    1
    12    48    49    1
    13    42    39    1
    14    42    43    1
    15   126   125    1
    16    39    38    1
    17    49    50    1
    18    49    52    1
    19    66    65    1
    20    50    51    2
    21    43    44   ar
    22    43    45   ar
    23    44    46   ar
    24     1     2    1
    25    65    67    1
    26    65    64    2
    27    57    58    1
    28    52    53    1
    29   118   117    2
    30    45    47   ar
    31     2     5    1
    32     2     3    1
    33    46    47   ar
    34     5     7    1
    35     5     6    1
    36   117   116    1
    37    58    59    1
    38    58    61    1
    39    64    63    1
    40    63    62    1
    41     8     6    1
    42    53    54    1
    43    59    60    2
    44    55    54   ar
    45    62    61    1
    46     3     4    2
    47    54    56   ar
    48   116   119    1
    49   116   115    1
    50    68    69    1
    51    95    96   ar
    52    95    93   ar
    53    35    37   ar
    54    35    33   ar
    55    96    94   ar
    56    70    71    2
    57    70    69    1
    58    25    27   ar
    59    25    23   ar
    60    37    36   ar
    61    69    72    1
    62    93    92   ar
    63    27    26   ar
    64    30    31    2
    65    30    29    1
    66    33    32    1
    67    33    34   ar
    68    32    29    1
    69    94    92   ar
    70    23    22   ar
    71    92    91    1
    72    36    34   ar
    73    29    28    1
    74    85    86   ar
    75    85    83   ar
    76    86    84   ar
    77    75    73    1
    78    26    24   ar
    79    72    73    1
    80    72    74    1
    81     9    10    1
    82    14    16    1
    83    14    13    1
    84    22    24   ar
    85    22    21    1
    86    83    81   ar
    87    84    82   ar
    88    91    88    1
    89   111   110    2
    90    10    13    1
    91    10    11    1
    92    87    88    1
    93   110   109    1
    94    17    18    1
    95    18    21    1
    96    18    19    1
    97    13    15    1
    98    81    82   ar
    99    81    80    1
   100    88    89    1
   101   114   112    1
   102    90    89    2
   103   113   112    1
   104    11    12    2
   105   101   102    1
   106   101    98    1
   107    20    19    2
   108   112   109    1
   109   109   108    1
   110   102   103   ar
   111   102   104   ar
   112    80    77    1
   113   103   105   ar
   114   104   106   ar
   115   105   107   ar
   116   106   107   ar
   117    97    98    1
   118    98    99    1
   119    77    76    1
   120    77    78    1
   121   100    99    2
   122    78    79    2
