@<TRIPOS>MOLECULE
tmp/5i8zA01.pdb
 178 171 0 0 0
SMALL
GASTEIGER

@<TRIPOS>ATOM
      1  N        -12.0880    7.1110  -24.8340 N.3    92  GLY92      -0.1210
      2  CA       -10.6460    7.4070  -24.9500 C.3    92  GLY92       0.1956
      3  C        -10.3020    8.3480  -23.8000 C.2    92  GLY92       0.2612
      4  O        -11.1520    9.1460  -23.3590 O.2    92  GLY92      -0.2717
      5  N         -9.0680    8.2440  -23.2970 N.am   93  PHE93      -0.1962
      6  CA        -8.5880    9.1660  -22.2840 C.3    93  PHE93       0.1771
      7  C         -7.0640    9.0800  -22.2130 C.2    93  PHE93       0.2619
      8  O         -6.5000    7.9630  -22.2080 O.2    93  PHE93      -0.2715
      9  CB        -9.1560    8.8170  -20.8950 C.3    93  PHE93       0.0574
     10  CG        -8.6260    9.6860  -19.8160 C.ar   93  PHE93      -0.0200
     11  CD1       -9.1340   10.9890  -19.6540 C.ar   93  PHE93      -0.0042
     12  CD2       -7.6380    9.2460  -18.9690 C.ar   93  PHE93      -0.0042
     13  CE1       -8.6430   11.8160  -18.6790 C.ar   93  PHE93      -0.0003
     14  CE2       -7.1320   10.0950  -17.9690 C.ar   93  PHE93      -0.0003
     15  CZ        -7.6250   11.3650  -17.8350 C.ar   93  PHE93      -0.0000
     16  N         -6.4210   10.2470  -22.0930 N.am   94  ALA94      -0.1977
     17  CA        -5.0320   10.3670  -21.6340 C.3    94  ALA94       0.1597
     18  C         -4.9600   11.5750  -20.7390 C.2    94  ALA94       0.2287
     19  O         -5.6440   12.5470  -20.9600 O.2    94  ALA94      -0.2864
     20  CB        -4.0470   10.5490  -22.8170 C.3    94  ALA94       0.0319
     21  N         -4.0000   15.1470  -19.5880 N.3    96  ARG96      -0.1245
     22  CA        -3.8150   16.3070  -20.4630 C.3    96  ARG96       0.1563
     23  C         -2.3620   16.5660  -20.8690 C.2    96  ARG96       0.2260
     24  O         -2.1300   16.8700  -22.0150 O.2    96  ARG96      -0.2867
     25  CB        -4.3770   17.5620  -19.7790 C.3    96  ARG96       0.0307
     26  CG        -5.8510   17.4460  -19.4950 C.3    96  ARG96       0.0489
     27  CD        -6.4460   18.7180  -18.9040 C.3    96  ARG96       0.2205
     28  NE        -7.9070   18.6860  -18.9650 N.pl3  96  ARG96      -0.0865
     29  CZ        -8.6180   18.9980  -20.0480 C.cat  96  ARG96       0.5346
     30  NH1       -9.9440   18.9380  -20.0170 N.pl3  96  ARG96       0.1354
     31  NH2       -8.0060   19.3690  -21.1650 N.pl3  96  ARG96       0.1354
     32  N         -0.8810   14.8640  -24.1540 N.3    99  ILE99      -0.1245
     33  CA        -1.4050   15.1580  -25.4980 C.3    99  ILE99       0.1561
     34  C         -1.2950   16.6190  -25.8130 C.2    99  ILE99       0.2260
     35  O         -2.0600   17.1820  -26.6140 O.2    99  ILE99      -0.2867
     36  CB        -2.8580   14.7760  -25.6940 C.3    99  ILE99       0.0252
     37  CG1       -3.7640   15.5900  -24.7800 C.3    99  ILE99       0.0019
     38  CG2       -3.0880   13.3600  -25.4450 C.3    99  ILE99       0.0019
     39  CD1       -5.1170   15.7500  -25.4130 C.3    99  ILE99       0.0001
     40  N        -11.1030    4.8220  -33.6120 N.3   144  SER144     -0.1202
     41  CA        -9.6590    5.1130  -33.6130 C.3   144  SER144      0.2020
     42  C         -9.4510    6.4320  -34.3830 C.2   144  SER144      0.2618
     43  O        -10.4130    7.1060  -34.7170 O.2   144  SER144     -0.2717
     44  CB        -8.8780    3.9550  -34.2580 C.3   144  SER144      0.2103
     45  OG        -7.4750    4.2110  -34.0640 O.3   144  SER144     -0.2182
     46  N         -8.2080    6.8190  -34.5830 N.am  145  TYR145     -0.1975
     47  CA        -7.8570    8.0530  -35.2670 C.3   145  TYR145      0.1639
     48  C         -6.5350    7.8170  -36.0220 C.2   145  TYR145      0.2290
     49  O         -5.7020    6.9960  -35.5870 O.2   145  TYR145     -0.2864
     50  CB        -7.7390    9.1980  -34.2290 C.3   145  TYR145      0.0560
     51  CG        -7.3420   10.5130  -34.8850 C.ar  145  TYR145     -0.0198
     52  CD1       -8.1510   11.0510  -35.8770 C.ar  145  TYR145     -0.0009
     53  CD2       -6.1370   11.1250  -34.5420 C.ar  145  TYR145     -0.0009
     54  CE1       -7.7680   12.2100  -36.4950 C.ar  145  TYR145      0.0417
     55  CE2       -5.7440   12.3190  -35.1530 C.ar  145  TYR145      0.0417
     56  CZ        -6.5480   12.8070  -36.1640 C.ar  145  TYR145      0.1957
     57  OH        -6.1570   13.9640  -36.8480 O.3   145  TYR145     -0.2866
     58  N          0.9690   12.7210  -35.5930 N.3   152  ILE152     -0.1231
     59  CA         0.2180   13.9860  -35.6980 C.3   152  ILE152      0.1678
     60  C          0.5940   14.8250  -34.5120 C.2   152  ILE152      0.2434
     61  O          0.6660   14.3270  -33.3880 O.2   152  ILE152     -0.2733
     62  CB        -1.3090   13.7200  -35.7210 C.3   152  ILE152      0.0265
     63  CG1       -1.6260   12.8190  -36.9540 C.3   152  ILE152      0.0019
     64  CG2       -2.0650   15.0310  -35.7910 C.3   152  ILE152      0.0020
     65  CD1       -3.1040   12.6020  -37.3260 C.3   152  ILE152      0.0001
     66  N          0.8730   16.1340  -34.7230 N.am  153  PRO153     -0.2718
     67  CA         1.3680   16.8560  -33.5620 C.3   153  PRO153      0.1535
     68  C          0.3570   16.8940  -32.4260 C.2   153  PRO153      0.2599
     69  O         -0.8360   16.9340  -32.6870 O.2   153  PRO153     -0.2715
     70  CB         1.6340   18.2710  -34.1120 C.3   153  PRO153      0.0310
     71  CG         1.9020   18.0300  -35.5700 C.3   153  PRO153      0.0237
     72  CD         0.9540   16.9050  -35.9720 C.3   153  PRO153      0.0939
     73  N          0.8940   16.8000  -31.2050 N.am  154  ASN154     -0.1959
     74  CA         0.1800   16.7930  -29.9380 C.3   154  ASN154      0.1819
     75  C         -0.5360   15.4830  -29.6140 C.2   154  ASN154      0.2621
     76  O         -0.7170   15.1740  -28.4530 O.2   154  ASN154     -0.2715
     77  CB        -0.8060   17.9640  -29.8680 C.3   154  ASN154      0.1195
     78  CG        -0.0860   19.3200  -29.9050 C.2   154  ASN154      0.2630
     79  OD1        0.4580   19.7650  -28.8960 O.2   154  ASN154     -0.2716
     80  ND2       -0.0910   19.9630  -31.0600 N.am  154  ASN154     -0.0877
     81  N         -0.8810   14.6820  -30.6140 N.am  155  TYR155     -0.1974
     82  CA        -1.6490   13.4550  -30.2560 C.3   155  TYR155      0.1639
     83  C         -0.8130   12.5160  -29.3980 C.2   155  TYR155      0.2290
     84  O         -1.3390   11.8440  -28.4970 O.2   155  TYR155     -0.2864
     85  CB        -2.1270   12.7470  -31.5330 C.3   155  TYR155      0.0560
     86  CG        -3.3560   11.8420  -31.3560 C.ar  155  TYR155     -0.0198
     87  CD1       -4.5480   12.3590  -30.8750 C.ar  155  TYR155     -0.0009
     88  CD2       -3.3150   10.5230  -31.7310 C.ar  155  TYR155     -0.0009
     89  CE1       -5.6950   11.5410  -30.7360 C.ar  155  TYR155      0.0417
     90  CE2       -4.3750    9.6830  -31.6100 C.ar  155  TYR155      0.0417
     91  CZ        -5.5940   10.1960  -31.1040 C.ar  155  TYR155      0.1957
     92  OH        -6.7220    9.3960  -30.9790 O.3   155  TYR155     -0.2866
     93  N         -1.5600    9.3020  -27.0400 N.3   158  MET158     -0.1245
     94  CA        -2.7800    8.7050  -27.5820 C.3   158  MET158      0.1570
     95  C         -2.5330    7.9900  -28.8930 C.2   158  MET158      0.2261
     96  O         -3.2410    7.0530  -29.2050 O.2   158  MET158     -0.2867
     97  CB        -3.8650    9.7570  -27.7970 C.3   158  MET158      0.0387
     98  CG        -4.4800   10.1700  -26.5290 C.3   158  MET158      0.0595
     99  SD        -5.4990    8.8970  -25.7270 S.3   158  MET158     -0.1393
    100  CE        -6.9650    8.8670  -26.7670 C.3   158  MET158      0.0692
    101  N         -3.7870    4.3150  -29.6050 N.3   162  LYS162     -0.1245
    102  CA        -4.6590    3.9390  -30.7100 C.3   162  LYS162      0.1561
    103  C         -4.0010    2.9020  -31.6100 C.2   162  LYS162      0.2260
    104  O         -4.7400    2.0650  -32.1990 O.2   162  LYS162     -0.2867
    105  CB        -5.0520    5.1640  -31.5520 C.3   162  LYS162      0.0271
    106  CG        -5.9530    6.1590  -30.8260 C.3   162  LYS162      0.0035
    107  CD        -7.3270    5.5040  -30.4210 C.3   162  LYS162      0.0206
    108  CE        -8.2120    6.6570  -29.9540 C.3   162  LYS162      0.1093
    109  NZ        -9.5850    6.1370  -29.4910 N.3   162  LYS162     -0.1314
    110  N        -12.4990   10.9550  -38.7590 N.3   189  GLY189     -0.1210
    111  CA       -11.8610   12.2760  -38.8700 C.3   189  GLY189      0.1940
    112  C        -12.2430   13.1530  -37.6610 C.2   189  GLY189      0.2454
    113  O        -13.0790   12.7580  -36.7830 O.2   189  GLY189     -0.2732
    114  N        -11.6150   14.3360  -37.5630 N.am  190  PRO190     -0.2717
    115  CA       -11.8450   15.2310  -36.4100 C.3   190  PRO190      0.1535
    116  C        -13.2820   15.7110  -36.4110 C.2   190  PRO190      0.2598
    117  O        -13.8280   16.1280  -37.4210 O.2   190  PRO190     -0.2715
    118  CB       -10.8700   16.3960  -36.6640 C.3   190  PRO190      0.0310
    119  CG       -10.5710   16.3050  -38.1910 C.3   190  PRO190      0.0237
    120  CD       -10.5840   14.8310  -38.4890 C.3   190  PRO190      0.0939
    121  N        -13.8530   15.6750  -35.2110 N.am  191  ILE191     -0.1978
    122  CA       -15.1960   16.1020  -34.9450 C.3   191  ILE191      0.1596
    123  C        -15.1890   16.8480  -33.6220 C.2   191  ILE191      0.2287
    124  O        -14.5980   16.4090  -32.6420 O.2   191  ILE191     -0.2864
    125  CB       -16.1780   14.9250  -34.8630 C.3   191  ILE191      0.0276
    126  CG1      -16.2940   14.2160  -36.2150 C.3   191  ILE191      0.0022
    127  CG2      -17.5830   15.3980  -34.4480 C.3   191  ILE191      0.0022
    128  CD1      -17.0910   12.8720  -36.1470 C.3   191  ILE191      0.0001
    129  N        -16.1590   17.3690  -30.4660 N.3   193  THR193     -0.1218
    130  CA       -16.8140   16.7740  -29.3000 C.3   193  THR193      0.1862
    131  C        -16.2370   17.3310  -28.0430 C.2   193  THR193      0.2287
    132  O        -15.3210   18.1510  -28.0940 O.2   193  THR193     -0.2866
    133  CB       -16.6180   15.2700  -29.2650 C.3   193  THR193      0.1770
    134  OG1      -15.1940   15.0080  -29.1170 O.3   193  THR193     -0.2211
    135  CG2      -17.1340   14.6080  -30.5490 C.3   193  THR193      0.0375
    136  N        -14.3670   15.7550  -25.9740 N.3   195  ALA195     -0.1231
    137  CA       -12.9860   15.3150  -25.7990 C.3   195  ALA195      0.1694
    138  C        -12.1050   16.2190  -26.6880 C.2   195  ALA195      0.2591
    139  O        -10.9890   16.5360  -26.3300 O.2   195  ALA195     -0.2718
    140  CB       -12.8490   13.8160  -26.1820 C.3   195  ALA195      0.0304
    141  N        -12.6170   16.6020  -27.8470 N.am  196  ALA196     -0.1980
    142  CA       -11.8140   17.3570  -28.8050 C.3   196  ALA196      0.1597
    143  C        -11.6050   18.7550  -28.2630 C.2   196  ALA196      0.2287
    144  O        -10.6490   19.4270  -28.6040 O.2   196  ALA196     -0.2864
    145  CB       -12.4910   17.3860  -30.1800 C.3   196  ALA196      0.0319
    146  N         -8.2840   20.2260  -26.7170 N.3   199  ILE199     -0.1245
    147  CA        -7.0870   20.2620  -27.5820 C.3   199  ILE199      0.1561
    148  C         -6.9140   21.6250  -28.2320 C.2   199  ILE199      0.2260
    149  O         -7.7090   21.9930  -29.1050 O.2   199  ILE199     -0.2867
    150  CB        -7.2310   19.1860  -28.6490 C.3   199  ILE199      0.0252
    151  CG1       -7.5250   17.8340  -27.9780 C.3   199  ILE199      0.0019
    152  CG2       -6.0260   19.1730  -29.6590 C.3   199  ILE199      0.0019
    153  CD1       -7.9350   16.7220  -28.9360 C.3   199  ILE199      0.0001
    154  N         -5.0180   22.8910  -30.4090 N.3   201  SER201     -0.1202
    155  CA        -4.7850   22.9730  -31.8420 C.3   201  SER201      0.2020
    156  C         -5.9390   22.4120  -32.6690 C.2   201  SER201      0.2618
    157  O         -5.8190   22.3240  -33.8910 O.2   201  SER201     -0.2717
    158  CB        -3.5060   22.2270  -32.2360 C.3   201  SER201      0.2103
    159  OG        -3.6610   20.8470  -32.0400 O.3   201  SER201     -0.2182
    160  N         -7.0430   22.0220  -32.0200 N.am  202  PHE202     -0.1975
    161  CA        -8.1330   21.3350  -32.7450 C.3   202  PHE202      0.1639
    162  C         -8.7730   22.1710  -33.8520 C.2   202  PHE202      0.2290
    163  O         -9.0020   21.6510  -34.9480 O.2   202  PHE202     -0.2864
    164  CB        -9.2170   20.8550  -31.7510 C.3   202  PHE202      0.0560
    165  CG       -10.2130   19.9240  -32.3740 C.ar  202  PHE202     -0.0200
    166  CD1       -9.8770   18.5890  -32.6290 C.ar  202  PHE202     -0.0042
    167  CD2      -11.4600   20.3850  -32.7430 C.ar  202  PHE202     -0.0042
    168  CE1      -10.8460   17.7280  -33.2160 C.ar  202  PHE202     -0.0003
    169  CE2      -12.3970   19.5300  -33.3360 C.ar  202  PHE202     -0.0003
    170  CZ       -12.0680   18.2220  -33.5860 C.ar  202  PHE202     -0.0000
    171  N         -6.6240   21.7950  -36.9060 N.3   205  ILE205     -0.1245
    172  CA        -6.7880   20.4720  -37.5490 C.3   205  ILE205      0.1561
    173  C         -8.0800   20.4460  -38.3880 C.2   205  ILE205      0.2260
    174  O         -8.1110   19.9600  -39.5390 O.2   205  ILE205     -0.2867
    175  CB        -6.8310   19.3620  -36.4850 C.3   205  ILE205      0.0252
    176  CG1       -5.5980   19.4360  -35.5850 C.3   205  ILE205      0.0019
    177  CG2       -6.9690   17.9790  -37.1390 C.3   205  ILE205      0.0019
    178  CD1       -4.3540   19.4010  -36.3460 C.3   205  ILE205      0.0001
@<TRIPOS>BOND
     1   174   173    2
     2   111   110    1
     3   111   112    1
     4   120   119    1
     5   120   114    1
     6   173   172    1
     7   119   118    1
     8   112   114   am
     9   112   113    2
    10   114   115    1
    11   172   171    1
    12   172   175    1
    13   117   116    2
    14    65    63    1
    15   177   175    1
    16    63    62    1
    17    57    56    1
    18   118   115    1
    19    54    56   ar
    20    54    52   ar
    21   175   176    1
    22   116   115    1
    23   116   121   am
    24   178   176    1
    25   126   128    1
    26   126   125    1
    27    56    55   ar
    28    48    49    2
    29    48    47    1
    30    72    71    1
    31    72    66    1
    32    52    51   ar
    33    64    62    1
    34    62    59    1
    35    59    58    1
    36    59    60    1
    37    71    70    1
    38    47    46    1
    39    47    50    1
    40   121   122    1
    41    55    53   ar
    42   163   162    2
    43   122   125    1
    44   122   123    1
    45    51    53   ar
    46    51    50    1
    47   125   127    1
    48    66    60   am
    49    66    67    1
    50    43    42    2
    51    46    42   am
    52    60    61    2
    53    42    41    1
    54    44    45    1
    55    44    41    1
    56    70    67    1
    57   157   156    2
    58   162   161    1
    59   123   124    2
    60    41    40    1
    61   170   169   ar
    62   170   168   ar
    63    67    68    1
    64   169   167   ar
    65   168   166   ar
    66   161   160    1
    67   161   164    1
    68   167   165   ar
    69    69    68    2
    70   156   160   am
    71   156   155    1
    72   166   165   ar
    73    68    73   am
    74   165   164    1
    75   158   159    1
    76   158   155    1
    77   104   103    2
    78   155   154    1
    79    88    90   ar
    80    88    86   ar
    81   103   102    1
    82    90    91   ar
    83   105   106    1
    84   105   102    1
    85    85    86    1
    86    85    82    1
    87    86    87   ar
    88    73    74    1
    89    91    92    1
    90    91    89   ar
    91    80    78   am
    92    87    89   ar
    93   106   107    1
    94   102   101    1
    95    81    82    1
    96    81    75   am
    97   135   133    1
    98   129   130    1
    99   107   108    1
   100    82    83    1
   101   145   142    1
   102   108   109    1
   103    74    77    1
   104    74    75    1
   105    78    77    1
   106    78    79    2
   107   152   150    1
   108    75    76    2
   109    83    84    2
   110   130   133    1
   111   130   131    1
   112   133   134    1
   113    96    95    2
   114   149   148    2
   115   153   151    1
   116    95    94    1
   117   142   143    1
   118   142   141    1
   119   150   151    1
   120   150   147    1
   121   144   143    2
   122   148   147    1
   123   132   131    2
   124   141   138   am
   125    97    94    1
   126    97    98    1
   127   147   146    1
   128    94    93    1
   129   100    99    1
   130   138   139    2
   131   138   137    1
   132    35    34    2
   133    98    99    1
   134   140   137    1
   135   136   137    1
   136    34    33    1
   137    36    33    1
   138    36    38    1
   139    36    37    1
   140    33    32    1
   141    39    37    1
   142     2     1    1
   143     2     3    1
   144     3     4    2
   145     3     5   am
   146     5     6    1
   147    20    17    1
   148     6     7    1
   149     6     9    1
   150     7     8    2
   151     7    16   am
   152    16    17    1
   153    24    23    2
   154    17    18    1
   155    31    29    1
   156    19    18    2
   157     9    10    1
   158    23    22    1
   159    22    25    1
   160    22    21    1
   161    29    30    1
   162    29    28    2
   163    10    11   ar
   164    10    12   ar
   165    25    26    1
   166    11    13   ar
   167    26    27    1
   168    12    14   ar
   169    28    27    1
   170    13    15   ar
   171    14    15   ar
