@<TRIPOS>MOLECULE
tmp/5i92F00.pdb
 86 83 0 0 0
SMALL
GASTEIGER

@<TRIPOS>ATOM
      1  N         63.4270  -47.2130   67.7180 N.3   339  ILE339     -0.1245
      2  CA        62.7910  -48.1490   66.7930 C.3   339  ILE339      0.1561
      3  C         63.8430  -48.5870   65.7780 C.2   339  ILE339      0.2260
      4  O         64.3250  -47.7460   65.0070 O.2   339  ILE339     -0.2867
      5  CB        61.5810  -47.5040   66.0850 C.3   339  ILE339      0.0252
      6  CG1       60.5150  -47.0430   67.0830 C.3   339  ILE339      0.0019
      7  CG2       60.9620  -48.4670   65.0670 C.3   339  ILE339      0.0019
      8  CD1       59.7420  -48.1840   67.7340 C.3   339  ILE339      0.0001
      9  N         61.5760  -51.9210   59.0250 N.3   354  PHE354     -0.1241
     10  CA        61.7210  -52.0410   60.4730 C.3   354  PHE354      0.1605
     11  C         62.6700  -53.2060   60.6980 C.2   354  PHE354      0.2264
     12  O         62.2720  -54.3720   60.7340 O.2   354  PHE354     -0.2867
     13  CB        60.3580  -52.2050   61.1290 C.3   354  PHE354      0.0534
     14  CG        59.5610  -50.9500   61.0770 C.ar  354  PHE354     -0.0203
     15  CD1       59.7860  -49.9450   62.0110 C.ar  354  PHE354     -0.0042
     16  CD2       58.6690  -50.7180   60.0440 C.ar  354  PHE354     -0.0042
     17  CE1       59.0910  -48.7550   61.9480 C.ar  354  PHE354     -0.0003
     18  CE2       57.9820  -49.5290   59.9720 C.ar  354  PHE354     -0.0003
     19  CZ        58.1890  -48.5470   60.9220 C.ar  354  PHE354     -0.0000
     20  N         55.2320  -54.7990   62.3740 N.3   373  ARG373     -0.1245
     21  CA        55.4160  -53.4090   62.7570 C.3   373  ARG373      0.1563
     22  C         55.1510  -52.4840   61.5730 C.2   373  ARG373      0.2260
     23  O         54.5250  -51.4280   61.7330 O.2   373  ARG373     -0.2867
     24  CB        56.8150  -53.1990   63.3240 C.3   373  ARG373      0.0307
     25  CG        57.1460  -51.7670   63.6430 C.3   373  ARG373      0.0489
     26  CD        58.2900  -51.7060   64.6090 C.3   373  ARG373      0.2205
     27  NE        57.8390  -51.9800   65.9740 N.pl3 373  ARG373     -0.0865
     28  CZ        58.6570  -52.0030   67.0150 C.cat 373  ARG373      0.5346
     29  NH1       59.9510  -51.8100   66.8270 N.pl3 373  ARG373      0.1354
     30  NH2       58.1900  -52.2340   68.2370 N.pl3 373  ARG373      0.1354
     31  N         51.3890  -51.9320   61.3170 N.3   376  ARG376     -0.1231
     32  CA        50.9330  -50.9440   62.2940 C.3   376  ARG376      0.1694
     33  C         51.3330  -49.5400   61.8660 C.2   376  ARG376      0.2592
     34  O         50.5270  -48.6030   61.9150 O.2   376  ARG376     -0.2718
     35  CB        51.5210  -51.2430   63.6740 C.3   376  ARG376      0.0321
     36  CG        51.3710  -52.6630   64.1830 C.3   376  ARG376      0.0489
     37  CD        52.1720  -52.8090   65.4780 C.3   376  ARG376      0.2205
     38  NE        51.8940  -54.0500   66.1960 N.pl3 376  ARG376     -0.0865
     39  CZ        51.0580  -54.1420   67.2260 C.cat 376  ARG376      0.5346
     40  NH1       50.4110  -53.0660   67.6550 N.pl3 376  ARG376      0.1354
     41  NH2       50.8630  -55.3080   67.8230 N.pl3 376  ARG376      0.1354
     42  N         52.5950  -49.3840   61.4550 N.am  377  PHE377     -0.1976
     43  CA        53.0960  -48.0980   60.9940 C.3   377  PHE377      0.1639
     44  C         52.2420  -47.5640   59.8530 C.2   377  PHE377      0.2290
     45  O         51.8840  -46.3790   59.8320 O.2   377  PHE377     -0.2864
     46  CB        54.5460  -48.2680   60.5440 C.3   377  PHE377      0.0560
     47  CG        55.2300  -46.9910   60.1490 C.ar  377  PHE377     -0.0200
     48  CD1       55.4970  -46.0090   61.0900 C.ar  377  PHE377     -0.0042
     49  CD2       55.6600  -46.7980   58.8380 C.ar  377  PHE377     -0.0042
     50  CE1       56.1570  -44.8420   60.7350 C.ar  377  PHE377     -0.0003
     51  CE2       56.3230  -45.6280   58.4800 C.ar  377  PHE377     -0.0003
     52  CZ        56.5670  -44.6520   59.4340 C.ar  377  PHE377     -0.0000
     53  N         49.0270  -46.1500   61.2390 N.3   380  LEU380     -0.1245
     54  CA        49.2970  -44.9250   61.9830 C.3   380  LEU380      0.1561
     55  C         49.5910  -43.7700   61.0360 C.2   380  LEU380      0.2260
     56  O         49.1640  -42.6360   61.2770 O.2   380  LEU380     -0.2867
     57  CB        50.4580  -45.1410   62.9450 C.3   380  LEU380      0.0270
     58  CG        50.1150  -46.0560   64.1250 C.3   380  LEU380      0.0019
     59  CD1       51.3760  -46.5270   64.8120 C.3   380  LEU380      0.0001
     60  CD2       49.2150  -45.3150   65.0850 C.3   380  LEU380      0.0001
     61  N         53.7050  -41.7040   64.8890 N.3   417  ALA417     -0.1231
     62  CA        53.5840  -43.1460   64.6810 C.3   417  ALA417      0.1694
     63  C         54.6400  -43.9160   65.4640 C.2   417  ALA417      0.2592
     64  O         54.3390  -44.9410   66.0870 O.2   417  ALA417     -0.2718
     65  CB        53.6830  -43.4790   63.1920 C.3   417  ALA417      0.0304
     66  N         55.8970  -43.4550   65.4150 N.am  418  PHE418     -0.1962
     67  CA        56.9590  -44.1370   66.1510 C.3   418  PHE418      0.1771
     68  C         56.6520  -44.1390   67.6420 C.2   418  PHE418      0.2619
     69  O         56.9360  -45.1150   68.3480 O.2   418  PHE418     -0.2715
     70  CB        58.3130  -43.4670   65.8950 C.3   418  PHE418      0.0574
     71  CG        58.8340  -43.6290   64.4790 C.ar  418  PHE418     -0.0200
     72  CD1       58.6310  -44.8030   63.7750 C.ar  418  PHE418     -0.0042
     73  CD2       59.5490  -42.6070   63.8750 C.ar  418  PHE418     -0.0042
     74  CE1       59.1370  -44.9490   62.4800 C.ar  418  PHE418     -0.0003
     75  CE2       60.0440  -42.7290   62.5850 C.ar  418  PHE418     -0.0003
     76  CZ        59.8330  -43.9040   61.8820 C.ar  418  PHE418     -0.0000
     77  N         56.0590  -43.0510   68.1300 N.am  419  ALA419     -0.1963
     78  CA        55.7370  -42.9450   69.5510 C.3   419  ALA419      0.1728
     79  C         54.6940  -43.9710   69.9740 C.2   419  ALA419      0.2616
     80  O         54.7940  -44.5500   71.0610 O.2   419  ALA419     -0.2715
     81  CB        55.2470  -41.5310   69.8640 C.3   419  ALA419      0.0334
     82  N         53.6980  -44.2130   69.1320 N.am  420  ALA420     -0.1977
     83  CA        52.4460  -44.8550   69.5360 C.3   420  ALA420      0.1597
     84  C         52.6080  -46.2750   70.0660 C.2   420  ALA420      0.2287
     85  O         52.3520  -47.2410   69.3520 O.2   420  ALA420     -0.2864
     86  CB        51.4680  -44.8510   68.3670 C.3   420  ALA420      0.0319
@<TRIPOS>BOND
     1    51    49   ar
     2    51    52   ar
     3    49    47   ar
     4     9    10    1
     5    52    50   ar
     6    45    44    2
     7    44    43    1
     8    18    16   ar
     9    18    19   ar
    10    16    14   ar
    11    47    46    1
    12    47    48   ar
    13    10    11    1
    14    10    13    1
    15    46    43    1
    16    11    12    2
    17    50    48   ar
    18    19    17   ar
    19    43    42    1
    20    55    56    2
    21    55    54    1
    22    14    13    1
    23    14    15   ar
    24    53    54    1
    25    31    32    1
    26    42    33   am
    27    22    23    2
    28    22    21    1
    29    33    34    2
    30    33    32    1
    31    76    74   ar
    32    76    75   ar
    33    17    15   ar
    34    54    57    1
    35    32    35    1
    36    20    21    1
    37    74    72   ar
    38    75    73   ar
    39    21    24    1
    40    57    58    1
    41    65    62    1
    42    24    25    1
    43    25    26    1
    44    35    36    1
    45    72    71   ar
    46    73    71   ar
    47    58    59    1
    48    58    60    1
    49    36    37    1
    50    71    70    1
    51    26    27    1
    52    62    61    1
    53    62    63    1
    54     4     3    2
    55     7     5    1
    56    66    63   am
    57    66    67    1
    58    63    64    2
    59    37    38    1
    60     3     2    1
    61    70    67    1
    62    27    28    2
    63     5     2    1
    64     5     6    1
    65    67    68    1
    66    38    39    2
    67     2     1    1
    68    29    28    1
    69    28    30    1
    70     6     8    1
    71    39    40    1
    72    39    41    1
    73    68    77   am
    74    68    69    2
    75    77    78    1
    76    86    83    1
    77    82    83    1
    78    82    79   am
    79    85    84    2
    80    83    84    1
    81    78    81    1
    82    78    79    1
    83    79    80    2
