@<TRIPOS>MOLECULE
tmp/5i93A00.pdb
 130 122 0 0 0
SMALL
GASTEIGER

@<TRIPOS>ATOM
      1  N         13.6940   91.1240  130.8960 N.3    67  ILE67      -0.1245
      2  CA        12.8710   90.3190  131.7850 C.3    67  ILE67       0.1561
      3  C         12.7470   91.0270  133.1350 C.2    67  ILE67       0.2260
      4  O         13.6950   91.6590  133.6160 O.2    67  ILE67      -0.2867
      5  CB        13.4560   88.8800  131.9500 C.3    67  ILE67       0.0252
      6  CG1       12.3500   87.9040  132.3700 C.3    67  ILE67       0.0019
      7  CG2       14.6870   88.8770  132.8950 C.3    67  ILE67       0.0019
      8  CD1       11.1960   87.7060  131.3430 C.3    67  ILE67       0.0001
      9  N         11.6120   90.3420  137.0950 N.3    69  ILE69      -0.1245
     10  CA        11.2830   89.2980  138.0550 C.3    69  ILE69       0.1561
     11  C         10.7250   89.8780  139.3540 C.2    69  ILE69       0.2260
     12  O         11.4680   90.4060  140.1790 O.2    69  ILE69      -0.2867
     13  CB        12.5240   88.4100  138.3390 C.3    69  ILE69       0.0252
     14  CG1       13.0080   87.7800  137.0250 C.3    69  ILE69       0.0019
     15  CG2       12.1860   87.3160  139.3580 C.3    69  ILE69       0.0019
     16  CD1       14.1090   86.8020  137.1890 C.3    69  ILE69       0.0001
     17  N         15.2630   78.7320  138.7790 N.3    84  PHE84      -0.1241
     18  CA        16.4750   79.5610  138.7420 C.3    84  PHE84       0.1605
     19  C         17.4640   79.1220  139.8020 C.2    84  PHE84       0.2264
     20  O         18.6690   79.1790  139.5850 O.2    84  PHE84      -0.2867
     21  CB        16.1640   81.0450  138.9640 C.3    84  PHE84       0.0534
     22  CG        15.3930   81.6900  137.8460 C.ar   84  PHE84      -0.0203
     23  CD1       15.5250   81.2440  136.5380 C.ar   84  PHE84      -0.0042
     24  CD2       14.5320   82.7530  138.1080 C.ar   84  PHE84      -0.0042
     25  CE1       14.8100   81.8480  135.5010 C.ar   84  PHE84      -0.0003
     26  CE2       13.8140   83.3650  137.0820 C.ar   84  PHE84      -0.0003
     27  CZ        13.9480   82.9080  135.7750 C.ar   84  PHE84      -0.0000
     28  N         22.4500   74.2240  138.1870 N.3    88  HIS88      -0.1241
     29  CA        22.3240   73.7640  136.8120 C.3    88  HIS88       0.1621
     30  C         23.4260   74.3390  135.9310 C.2    88  HIS88       0.2264
     31  O         24.2220   75.1650  136.3710 O.2    88  HIS88      -0.2867
     32  CB        20.9370   74.1430  136.2600 C.3    88  HIS88       0.0745
     33  CG        20.7210   75.6230  136.1500 C.ar   88  HIS88       0.0817
     34  ND1       20.2560   76.3890  137.1970 N.ar   88  HIS88      -0.2268
     35  CD2       20.9300   76.4830  135.1240 C.ar   88  HIS88       0.1154
     36  CE1       20.1740   77.6540  136.8170 C.ar   88  HIS88       0.1986
     37  NE2       20.5730   77.7360  135.5640 N.ar   88  HIS88      -0.2212
     38  N         24.1640   75.3200  131.4410 N.3    90  HIS90      -0.1241
     39  CA        23.6000   75.4250  130.0930 C.3    90  HIS90       0.1621
     40  C         24.6380   75.0520  129.0380 C.2    90  HIS90       0.2264
     41  O         25.8370   74.9900  129.3230 O.2    90  HIS90      -0.2867
     42  CB        23.0910   76.8420  129.8180 C.3    90  HIS90       0.0745
     43  CG        22.1960   77.3800  130.8810 C.ar   90  HIS90       0.0817
     44  ND1       20.8830   76.9720  131.0250 N.ar   90  HIS90      -0.2268
     45  CD2       22.4170   78.2860  131.8610 C.ar   90  HIS90       0.1154
     46  CE1       20.3400   77.6130  132.0410 C.ar   90  HIS90       0.1986
     47  NE2       21.2460   78.4150  132.5660 N.ar   90  HIS90      -0.2212
     48  N         25.3960   82.2530  129.7100 N.3    94  GLU94      -0.1245
     49  CA        24.3170   82.9450  130.3750 C.3    94  GLU94       0.1567
     50  C         24.7530   84.3850  130.5660 C.2    94  GLU94       0.2260
     51  O         25.6400   84.6600  131.3670 O.2    94  GLU94      -0.2867
     52  CB        23.9910   82.2980  131.7190 C.3    94  GLU94       0.0388
     53  CG        22.9060   83.0260  132.4890 C.3    94  GLU94       0.1160
     54  CD        22.2340   82.1470  133.5340 C.2    94  GLU94       0.3649
     55  OE1       21.7300   81.0570  133.1670 O.co2  94  GLU94      -0.2457
     56  OE2       22.2120   82.5470  134.7200 O.co2  94  GLU94      -0.2457
     57  N         23.6600   88.2240  131.5110 N.3    96  ARG96      -0.1245
     58  CA        22.6310   89.0180  132.1620 C.3    96  ARG96       0.1563
     59  C         23.1680   90.3990  132.4750 C.2    96  ARG96       0.2260
     60  O         24.2700   90.5450  132.9960 O.2    96  ARG96      -0.2867
     61  CB        22.1390   88.3310  133.4370 C.3    96  ARG96       0.0307
     62  CG        21.4960   86.9700  133.1880 C.3    96  ARG96       0.0489
     63  CD        20.2090   87.0930  132.3510 C.3    96  ARG96       0.2205
     64  NE        19.5300   85.8010  132.2630 N.pl3  96  ARG96      -0.0865
     65  CZ        19.7910   84.8700  131.3500 C.cat  96  ARG96       0.5346
     66  NH1       20.7110   85.0820  130.4080 N.pl3  96  ARG96       0.1354
     67  NH2       19.1190   83.7250  131.3730 N.pl3  96  ARG96       0.1354
     68  N         22.0470   93.8100  134.4680 N.3    98  ILE98      -0.1245
     69  CA        21.0540   94.2670  135.4410 C.3    98  ILE98       0.1561
     70  C         20.6540   95.7270  135.1820 C.2    98  ILE98       0.2260
     71  O         21.4960   96.6260  135.2470 O.2    98  ILE98      -0.2867
     72  CB        21.5650   94.1400  136.8980 C.3    98  ILE98       0.0252
     73  CG1       22.0210   92.7080  137.2000 C.3    98  ILE98       0.0019
     74  CG2       20.4800   94.5950  137.8790 C.3    98  ILE98       0.0019
     75  CD1       21.0100   91.6220  136.7810 C.3    98  ILE98       0.0001
     76  N         24.0020   85.6180  141.7470 N.3   105  PHE105     -0.1241
     77  CA        24.3640   84.4630  140.9250 C.3   105  PHE105      0.1605
     78  C         25.3990   83.6720  141.7050 C.2   105  PHE105      0.2264
     79  O         26.4260   84.2140  142.1050 O.2   105  PHE105     -0.2867
     80  CB        24.9390   84.8740  139.5570 C.3   105  PHE105      0.0534
     81  CG        23.9330   85.5230  138.6240 C.ar  105  PHE105     -0.0203
     82  CD1       23.6730   86.8850  138.6870 C.ar  105  PHE105     -0.0042
     83  CD2       23.2670   84.7760  137.6700 C.ar  105  PHE105     -0.0042
     84  CE1       22.7530   87.4910  137.8130 C.ar  105  PHE105     -0.0003
     85  CE2       22.3570   85.3780  136.7970 C.ar  105  PHE105     -0.0003
     86  CZ        22.0960   86.7330  136.8810 C.ar  105  PHE105     -0.0000
     87  N         25.7760   76.6570  138.2240 N.3   133  HIS133     -0.1241
     88  CA        25.3610   77.9300  138.7780 C.3   133  HIS133      0.1621
     89  C         23.8940   77.9200  139.1750 C.2   133  HIS133      0.2264
     90  O         23.1660   76.9580  138.9050 O.2   133  HIS133     -0.2867
     91  CB        25.6070   79.0550  137.7640 C.3   133  HIS133      0.0745
     92  CG        24.7230   78.9740  136.5530 C.ar  133  HIS133      0.0817
     93  ND1       24.9670   78.1020  135.5130 N.ar  133  HIS133     -0.2268
     94  CD2       23.5930   79.6460  136.2250 C.ar  133  HIS133      0.1154
     95  CE1       24.0290   78.2450  134.5890 C.ar  133  HIS133      0.1986
     96  NE2       23.1810   79.1720  135.0000 N.ar  133  HIS133     -0.2212
     97  N         20.5910   81.1200  140.3780 N.3   135  PHE135     -0.1241
     98  CA        20.2760   82.5060  140.6340 C.3   135  PHE135      0.1605
     99  C         19.1370   82.6220  141.6310 C.2   135  PHE135      0.2264
    100  O         18.1750   81.8500  141.5950 O.2   135  PHE135     -0.2867
    101  CB        19.8960   83.2460  139.3370 C.3   135  PHE135      0.0534
    102  CG        19.2620   84.5910  139.5910 C.ar  135  PHE135     -0.0203
    103  CD1       20.0490   85.7340  139.7150 C.ar  135  PHE135     -0.0042
    104  CD2       17.8900   84.7020  139.7770 C.ar  135  PHE135     -0.0042
    105  CE1       19.4770   86.9590  139.9920 C.ar  135  PHE135     -0.0003
    106  CE2       17.3090   85.9340  140.0530 C.ar  135  PHE135     -0.0003
    107  CZ        18.1030   87.0630  140.1550 C.ar  135  PHE135     -0.0000
    108  N         14.2430   92.2260  140.5440 N.3   143  VAL143     -0.1245
    109  CA        15.2600   92.5070  139.5460 C.3   143  VAL143      0.1561
    110  C         14.6480   92.6970  138.1560 C.2   143  VAL143      0.2260
    111  O         13.6980   92.0130  137.7750 O.2   143  VAL143     -0.2867
    112  CB        16.3530   91.3900  139.5180 C.3   143  VAL143      0.0252
    113  CG1       15.8590   90.1530  138.7860 C.3   143  VAL143      0.0019
    114  CG2       17.6470   91.9260  138.8960 C.3   143  VAL143      0.0019
    115  N         16.2310   92.7650  134.2690 N.3   145  ALA145     -0.1245
    116  CA        17.4800   92.3800  133.6330 C.3   145  ALA145      0.1562
    117  C         17.3400   92.2280  132.1340 C.2   145  ALA145      0.2260
    118  O         16.3260   91.7340  131.6260 O.2   145  ALA145     -0.2867
    119  CB        18.0010   91.0730  134.2350 C.3   145  ALA145      0.0290
    120  N         18.4530   90.0880  129.0750 N.3   147  ARG147     -0.1245
    121  CA        19.0470   88.8010  128.7260 C.3   147  ARG147      0.1563
    122  C         19.6580   88.9240  127.3450 C.2   147  ARG147      0.2260
    123  O         19.0280   89.4440  126.4230 O.2   147  ARG147     -0.2867
    124  CB        18.0140   87.6580  128.7490 C.3   147  ARG147      0.0307
    125  CG        17.2200   87.5240  130.0600 C.3   147  ARG147      0.0489
    126  CD        16.3590   86.2490  130.0960 C.3   147  ARG147      0.2205
    127  NE        15.3330   86.2380  129.0480 N.pl3 147  ARG147     -0.0865
    128  CZ        14.5150   85.2150  128.7840 C.cat 147  ARG147      0.5346
    129  NH1       14.5760   84.0770  129.4810 N.pl3 147  ARG147      0.1354
    130  NH2       13.6260   85.3310  127.8100 N.pl3 147  ARG147      0.1354
@<TRIPOS>BOND
     1   123   122    2
     2   122   121    1
     3   130   128    1
     4   121   124    1
     5   121   120    1
     6   124   125    1
     7   128   127    2
     8   128   129    1
     9    40    41    2
    10    40    39    1
    11   127   126    1
    12    48    49    1
    13    42    39    1
    14    42    43    1
    15   125   126    1
    16    39    38    1
    17    49    50    1
    18    49    52    1
    19    66    65    1
    20    50    51    2
    21    43    44   ar
    22    43    45   ar
    23     1     2    1
    24    44    46   ar
    25     8     6    1
    26    65    67    1
    27    65    64    2
    28    57    58    1
    29   118   117    2
    30    52    53    1
    31     2     5    1
    32     2     3    1
    33    45    47   ar
    34     5     6    1
    35     5     7    1
    36    46    47   ar
    37   117   116    1
    38    58    59    1
    39    58    61    1
    40    64    63    1
    41    63    62    1
    42    59    60    2
    43    53    54    1
    44     3     4    2
    45    55    54   ar
    46    62    61    1
    47    54    56   ar
    48   116   119    1
    49   116   115    1
    50    68    69    1
    51    95    96   ar
    52    95    93   ar
    53    96    94   ar
    54    35    37   ar
    55    35    33   ar
    56    70    71    2
    57    70    69    1
    58    69    72    1
    59    25    27   ar
    60    25    23   ar
    61    93    92   ar
    62    37    36   ar
    63    27    26   ar
    64    30    31    2
    65    30    29    1
    66    33    32    1
    67    33    34   ar
    68    94    92   ar
    69    32    29    1
    70    23    22   ar
    71    92    91    1
    72    75    73    1
    73    85    86   ar
    74    85    83   ar
    75    29    28    1
    76    36    34   ar
    77    86    84   ar
    78    72    73    1
    79    72    74    1
    80    14    16    1
    81    14    13    1
    82    26    24   ar
    83     9    10    1
    84    83    81   ar
    85    91    88    1
    86   111   110    2
    87    84    82   ar
    88    22    24   ar
    89    22    21    1
    90    10    13    1
    91    10    11    1
    92   110   109    1
    93    87    88    1
    94    13    15    1
    95    81    82   ar
    96    81    80    1
    97    18    17    1
    98    18    21    1
    99    18    19    1
   100    88    89    1
   101   113   112    1
   102   114   112    1
   103    90    89    2
   104   101   102    1
   105   101    98    1
   106    11    12    2
   107   112   109    1
   108   109   108    1
   109    80    77    1
   110    20    19    2
   111   102   103   ar
   112   102   104   ar
   113   103   105   ar
   114   104   106   ar
   115   105   107   ar
   116   106   107   ar
   117    97    98    1
   118    98    99    1
   119    77    78    1
   120    77    76    1
   121   100    99    2
   122    78    79    2
