@<TRIPOS>MOLECULE
tmp/5i9iA00.pdb
 218 213 0 0 0
SMALL
GASTEIGER

@<TRIPOS>ATOM
      1  N        201.0190   28.7140  124.4200 N.3    54  LEU54      -0.1245
      2  CA       201.9830   28.5170  123.3590 C.3    54  LEU54       0.1561
      3  C        202.9440   27.4090  123.7570 C.2    54  LEU54       0.2260
      4  O        203.0830   26.4090  123.0510 O.2    54  LEU54      -0.2867
      5  CB       202.7550   29.7980  123.0830 C.3    54  LEU54       0.0270
      6  CG       202.0970   30.9440  122.3300 C.3    54  LEU54       0.0019
      7  CD1      203.0800   32.0970  122.3110 C.3    54  LEU54       0.0001
      8  CD2      201.7280   30.5240  120.9160 C.3    54  LEU54       0.0001
      9  N        201.3630   24.1000  123.6820 N.3    57  PHE57      -0.1227
     10  CA       201.1630   23.7480  122.2790 C.3    57  PHE57       0.1736
     11  C        202.4600   23.3180  121.6130 C.2    57  PHE57       0.2595
     12  O        202.4930   22.3210  120.8920 O.2    57  PHE57      -0.2718
     13  CB       200.5550   24.9260  121.5010 C.3    57  PHE57       0.0547
     14  CG       200.5500   24.7340  120.0020 C.ar   57  PHE57      -0.0202
     15  CD1      199.7510   23.7540  119.4120 C.ar   57  PHE57      -0.0042
     16  CD2      201.3360   25.5410  119.1800 C.ar   57  PHE57      -0.0042
     17  CE1      199.7360   23.5700  118.0190 C.ar   57  PHE57      -0.0003
     18  CE2      201.3320   25.3700  117.7990 C.ar   57  PHE57      -0.0003
     19  CZ       200.5260   24.3800  117.2150 C.ar   57  PHE57      -0.0000
     20  N        203.5210   24.0760  121.8650 N.am   58  LEU58      -0.1966
     21  CA       204.7680   23.9320  121.1240 C.3    58  LEU58       0.1728
     22  C        205.5590   22.7100  121.5320 C.2    58  LEU58       0.2616
     23  O        206.4990   22.3350  120.8460 O.2    58  LEU58      -0.2715
     24  CB       205.6380   25.1750  121.2940 C.3    58  LEU58       0.0311
     25  CG       205.3840   26.3200  120.3120 C.3    58  LEU58       0.0022
     26  CD1      206.1700   27.5540  120.6920 C.3    58  LEU58       0.0001
     27  CD2      205.7660   25.8880  118.9230 C.3    58  LEU58       0.0001
     28  N        205.1820   22.0860  122.6420 N.am   59  GLY59      -0.1955
     29  CA       205.9030   20.9210  123.1300 C.3    59  GLY59       0.1869
     30  C        206.6290   21.1790  124.4400 C.2    59  GLY59       0.2309
     31  O        206.7700   20.2850  125.2830 O.2    59  GLY59      -0.2863
     32  N        209.2870   27.5190  129.5280 N.3    64  MET64      -0.1245
     33  CA       209.3020   28.1890  128.2440 C.3    64  MET64       0.1570
     34  C        208.1230   29.1600  128.1790 C.2    64  MET64       0.2261
     35  O        208.1930   30.1920  127.4970 O.2    64  MET64      -0.2867
     36  CB       209.2720   27.1800  127.0970 C.3    64  MET64       0.0387
     37  CG       209.5410   27.7940  125.7210 C.3    64  MET64       0.0595
     38  SD       211.1850   28.5560  125.5890 S.3    64  MET64      -0.1393
     39  CE       212.2170   27.1220  125.3730 C.3    64  MET64       0.0692
     40  N        209.2460   32.6940  126.9830 N.3    68  LEU68      -0.1245
     41  CA       208.5050   33.3460  125.8980 C.3    68  LEU68       0.1561
     42  C        207.8070   34.6270  126.3870 C.2    68  LEU68       0.2260
     43  O        207.7830   35.6660  125.6980 O.2    68  LEU68      -0.2867
     44  CB       207.4820   32.3780  125.2930 C.3    68  LEU68       0.0270
     45  CG       208.0950   31.2540  124.4520 C.3    68  LEU68       0.0019
     46  CD1      207.0450   30.2470  124.0130 C.3    68  LEU68       0.0001
     47  CD2      208.8250   31.8410  123.2450 C.3    68  LEU68       0.0001
     48  N        208.6500   38.2540  125.0910 N.3    72  PHE72      -0.1241
     49  CA       207.6550   38.8930  124.2250 C.3    72  PHE72       0.1605
     50  C        206.5140   39.6640  124.8940 C.2    72  PHE72       0.2264
     51  O        205.8630   40.4730  124.2390 O.2    72  PHE72      -0.2867
     52  CB       207.0550   37.8420  123.3090 C.3    72  PHE72       0.0534
     53  CG       208.0630   37.1660  122.4360 C.ar   72  PHE72      -0.0203
     54  CD1      208.7290   37.8780  121.4560 C.ar   72  PHE72      -0.0042
     55  CD2      208.3330   35.8190  122.5860 C.ar   72  PHE72      -0.0042
     56  CE1      209.6680   37.2560  120.6360 C.ar   72  PHE72      -0.0003
     57  CE2      209.2550   35.1910  121.7720 C.ar   72  PHE72      -0.0003
     58  CZ       209.9310   35.9150  120.7960 C.ar   72  PHE72      -0.0000
     59  N        194.9750   29.8390  113.1260 N.3    99  GLY99      -0.1210
     60  CA       195.2820   28.4390  112.9020 C.3    99  GLY99       0.1956
     61  C        195.4460   27.6720  114.1990 C.2    99  GLY99       0.2612
     62  O        195.2920   28.2350  115.2760 O.2    99  GLY99      -0.2717
     63  N        195.7570   26.3850  114.0920 N.am  100  LEU100     -0.1965
     64  CA       195.9230   25.5200  115.2490 C.3   100  LEU100      0.1728
     65  C        197.0160   26.0410  116.1900 C.2   100  LEU100      0.2617
     66  O        198.1010   26.4230  115.7460 O.2   100  LEU100     -0.2715
     67  CB       196.2460   24.0960  114.7990 C.3   100  LEU100      0.0311
     68  CG       196.3360   23.0170  115.8800 C.3   100  LEU100      0.0022
     69  CD1      194.9810   22.8010  116.5700 C.3   100  LEU100      0.0001
     70  CD2      196.8480   21.7230  115.2940 C.3   100  LEU100      0.0001
     71  N        196.7120   26.0710  117.4870 N.am  101  GLY101     -0.1940
     72  CA       197.6280   26.5710  118.4950 C.3   101  GLY101      0.2014
     73  C        197.8900   28.0640  118.4290 C.2   101  GLY101      0.2638
     74  O        198.8990   28.5390  118.9470 O.2   101  GLY101     -0.2714
     75  N        196.9920   28.8050  117.7850 N.am  102  ALA102     -0.1977
     76  CA       197.0860   30.2640  117.7360 C.3   102  ALA102      0.1597
     77  C        195.9590   30.8840  118.5530 C.2   102  ALA102      0.2287
     78  O        195.2690   30.1910  119.2730 O.2   102  ALA102     -0.2864
     79  CB       197.0410   30.7620  116.2910 C.3   102  ALA102      0.0319
     80  N        197.5890   36.8360  116.9070 N.3   106  LEU106     -0.1231
     81  CA       198.8000   36.4360  116.2010 C.3   106  LEU106      0.1693
     82  C        198.7870   36.6360  114.6800 C.2   106  LEU106      0.2592
     83  O        199.6320   36.0760  113.9680 O.2   106  LEU106     -0.2718
     84  CB       199.1070   34.9780  116.5030 C.3   106  LEU106      0.0284
     85  CG       199.3970   34.7070  117.9780 C.3   106  LEU106      0.0019
     86  CD1      200.0970   33.3510  118.1360 C.3   106  LEU106      0.0001
     87  CD2      200.2230   35.8410  118.5640 C.3   106  LEU106      0.0001
     88  N        197.8630   37.4450  114.1760 N.am  107  TYR107     -0.1976
     89  CA       197.8250   37.7000  112.7470 C.3   107  TYR107      0.1639
     90  C        197.6210   39.1880  112.4870 C.2   107  TYR107      0.2290
     91  O        197.0200   39.5900  111.4800 O.2   107  TYR107     -0.2864
     92  CB       196.7390   36.8540  112.0700 C.3   107  TYR107      0.0560
     93  CG       197.0420   35.3690  112.0950 C.ar  107  TYR107     -0.0198
     94  CD1      197.8430   34.7760  111.1160 C.ar  107  TYR107     -0.0009
     95  CD2      196.5580   34.5700  113.1030 C.ar  107  TYR107     -0.0009
     96  CE1      198.1420   33.4190  111.1530 C.ar  107  TYR107      0.0417
     97  CE2      196.8500   33.2210  113.1510 C.ar  107  TYR107      0.0417
     98  CZ       197.6370   32.6440  112.1850 C.ar  107  TYR107      0.1957
     99  OH       197.9050   31.2910  112.2780 O.3   107  TYR107     -0.2866
    100  N        194.1710   31.3740  108.2640 N.3   219  HIS219     -0.1226
    101  CA       195.4440   30.7120  107.9880 C.3   219  HIS219      0.1752
    102  C        195.4040   29.2580  108.4210 C.2   219  HIS219      0.2597
    103  O        194.9480   28.9600  109.5220 O.2   219  HIS219     -0.2718
    104  CB       196.5610   31.4310  108.7030 C.3   219  HIS219      0.0759
    105  CG       197.8490   30.6760  108.7290 C.ar  219  HIS219      0.0818
    106  ND1      198.3700   30.1400  109.8860 N.ar  219  HIS219     -0.2268
    107  CD2      198.7380   30.3930  107.7450 C.ar  219  HIS219      0.1154
    108  CE1      199.5190   29.5510  109.6110 C.ar  219  HIS219      0.1986
    109  NE2      199.7650   29.6910  108.3200 N.ar  219  HIS219     -0.2212
    110  N        195.8530   28.3560  107.5520 N.am  220  SER220     -0.1938
    111  CA       196.0810   26.9600  107.9360 C.3   220  SER220      0.2055
    112  C        194.7820   26.2730  108.3660 C.2   220  SER220      0.2643
    113  O        193.9190   26.0330  107.5360 O.2   220  SER220     -0.2714
    114  CB       197.1410   26.8930  109.0480 C.3   220  SER220      0.2130
    115  OG       197.6560   25.5930  109.1890 O.3   220  SER220     -0.2179
    116  N        194.6290   25.9540  109.6490 N.am  221  PHE221     -0.1973
    117  CA       193.3420   25.4520  110.1200 C.3   221  PHE221      0.1639
    118  C        192.2830   26.5110  109.7590 C.2   221  PHE221      0.2290
    119  O        191.1600   26.1780  109.3930 O.2   221  PHE221     -0.2864
    120  CB       193.3690   25.1610  111.6340 C.3   221  PHE221      0.0560
    121  CG       192.2490   24.2530  112.1170 C.ar  221  PHE221     -0.0200
    122  CD1      191.2250   23.8460  111.2630 C.ar  221  PHE221     -0.0042
    123  CD2      192.2580   23.7540  113.4080 C.ar  221  PHE221     -0.0042
    124  CE1      190.2090   23.0130  111.7080 C.ar  221  PHE221     -0.0003
    125  CE2      191.2390   22.9090  113.8560 C.ar  221  PHE221     -0.0003
    126  CZ       190.2200   22.5390  113.0040 C.ar  221  PHE221     -0.0000
    127  N        194.8510   24.1160  105.5320 N.3   245  TRP245     -0.1241
    128  CA       195.0680   22.7300  105.9090 C.3   245  TRP245      0.1605
    129  C        193.7440   21.9810  105.7530 C.2   245  TRP245      0.2264
    130  O        192.8370   22.1090  106.5860 O.2   245  TRP245     -0.2867
    131  CB       195.5830   22.6560  107.3360 C.3   245  TRP245      0.0550
    132  CG       195.6620   21.2770  107.9030 C.ar  245  TRP245      0.0003
    133  CD1      196.3810   20.2200  107.4030 C.ar  245  TRP245      0.0946
    134  CD2      195.0420   20.8030  109.1110 C.ar  245  TRP245      0.0152
    135  NE1      196.2360   19.1240  108.2210 N.ar  245  TRP245     -0.2442
    136  CE2      195.4260   19.4520  109.2760 C.ar  245  TRP245      0.0810
    137  CE3      194.2050   21.3900  110.0700 C.ar  245  TRP245      0.0012
    138  CZ2      194.9940   18.6790  110.3460 C.ar  245  TRP245      0.0191
    139  CZ3      193.7770   20.6160  111.1440 C.ar  245  TRP245      0.0001
    140  CH2      194.1700   19.2740  111.2660 C.ar  245  TRP245      0.0015
    141  N        205.3030   24.3540  102.8830 N.3   269  PHE269     -0.1241
    142  CA       204.3510   23.6680  103.7620 C.3   269  PHE269      0.1605
    143  C        203.5550   22.6110  103.0020 C.2   269  PHE269      0.2264
    144  O        203.2540   21.5410  103.5380 O.2   269  PHE269     -0.2867
    145  CB       203.3700   24.6760  104.4110 C.3   269  PHE269      0.0534
    146  CG       202.2200   24.0250  105.1470 C.ar  269  PHE269     -0.0203
    147  CD1      202.3490   23.6520  106.4800 C.ar  269  PHE269     -0.0042
    148  CD2      201.0120   23.7720  104.5010 C.ar  269  PHE269     -0.0042
    149  CE1      201.3060   23.0420  107.1570 C.ar  269  PHE269     -0.0003
    150  CE2      199.9540   23.1520  105.1730 C.ar  269  PHE269     -0.0003
    151  CZ       200.1020   22.7920  106.5060 C.ar  269  PHE269     -0.0000
    152  N        205.3600   27.8850  106.3540 N.3   298  HIS298     -0.1226
    153  CA       204.0190   27.9840  106.9200 C.3   298  HIS298      0.1752
    154  C        203.8170   29.2390  107.7830 C.2   298  HIS298      0.2595
    155  O        202.7790   29.8860  107.7230 O.2   298  HIS298     -0.2718
    156  CB       203.7440   26.7180  107.7290 C.3   298  HIS298      0.0759
    157  CG       202.2940   26.4570  108.0010 C.ar  298  HIS298      0.0818
    158  ND1      201.3060   26.6640  107.0620 N.ar  298  HIS298     -0.2268
    159  CD2      201.6720   25.9450  109.0900 C.ar  298  HIS298      0.1154
    160  CE1      200.1380   26.3050  107.5660 C.ar  298  HIS298      0.1986
    161  NE2      200.3320   25.8740  108.7980 N.ar  298  HIS298     -0.2212
    162  N        204.8500   29.5880  108.5420 N.am  299  GLN299     -0.1979
    163  CA       204.8130   30.6220  109.5730 C.3   299  GLN299      0.1601
    164  C        204.9250   32.0390  109.0420 C.2   299  GLN299      0.2287
    165  O        204.6970   33.0210  109.7650 O.2   299  GLN299     -0.2864
    166  CB       205.9420   30.3720  110.5580 C.3   299  GLN299      0.0394
    167  CG       205.6630   29.2220  111.4630 C.3   299  GLN299      0.0908
    168  CD       204.5760   29.5520  112.4160 C.2   299  GLN299      0.2608
    169  OE1      204.2950   30.7330  112.6730 O.2   299  GLN299     -0.2717
    170  NE2      203.9420   28.5210  112.9630 N.am  299  GLN299     -0.0878
    171  N        201.9600   34.2350  109.9500 N.3   302  ALA302     -0.1245
    172  CA       201.6670   34.7170  111.2970 C.3   302  ALA302      0.1562
    173  C        202.7490   35.6720  111.8140 C.2   302  ALA302      0.2260
    174  O        203.7940   35.8520  111.1820 O.2   302  ALA302     -0.2867
    175  CB       201.4850   33.5470  112.2520 C.3   302  ALA302      0.0290
    176  N        204.8240   35.7260  114.4630 N.3   304  PHE304     -0.1241
    177  CA       206.1270   35.2970  114.9880 C.3   304  PHE304      0.1605
    178  C        207.2200   35.3160  113.9250 C.2   304  PHE304      0.2264
    179  O        208.3940   35.2440  114.2700 O.2   304  PHE304     -0.2867
    180  CB       206.0600   33.9030  115.6110 C.3   304  PHE304      0.0534
    181  CG       205.7010   33.9150  117.0610 C.ar  304  PHE304     -0.0203
    182  CD1      206.6020   34.3630  118.0110 C.ar  304  PHE304     -0.0042
    183  CD2      204.4520   33.4890  117.4790 C.ar  304  PHE304     -0.0042
    184  CE1      206.2630   34.3780  119.3510 C.ar  304  PHE304     -0.0003
    185  CE2      204.1070   33.5030  118.8130 C.ar  304  PHE304     -0.0003
    186  CZ       205.0140   33.9400  119.7490 C.ar  304  PHE304     -0.0000
    187  N        211.6450   37.3210  115.7290 N.3   308  THR308     -0.1218
    188  CA       213.0100   36.8860  116.0160 C.3   308  THR308      0.1862
    189  C        213.9830   37.4800  115.0060 C.2   308  THR308      0.2287
    190  O        213.5910   38.2510  114.1260 O.2   308  THR308     -0.2866
    191  CB       213.1540   35.3520  115.9880 C.3   308  THR308      0.1770
    192  OG1      212.7960   34.8930  114.6930 O.3   308  THR308     -0.2211
    193  CG2      212.3020   34.6810  117.0480 C.3   308  THR308      0.0375
    194  N        213.9840   28.2530  114.1990 N.3   316  LEU316     -0.1231
    195  CA       212.6760   27.8930  114.7730 C.3   316  LEU316      0.1693
    196  C        211.5860   27.6670  113.7190 C.2   316  LEU316      0.2592
    197  O        210.4240   27.4700  114.0790 O.2   316  LEU316     -0.2718
    198  CB       212.1970   28.9590  115.7730 C.3   316  LEU316      0.0284
    199  CG       212.7930   28.9380  117.1840 C.3   316  LEU316      0.0019
    200  CD1      213.9390   29.9150  117.3250 C.3   316  LEU316      0.0001
    201  CD2      211.7380   29.2190  118.2420 C.3   316  LEU316      0.0001
    202  N        211.9640   27.6820  112.4400 N.am  317  LYS317     -0.1966
    203  CA       211.0280   27.4360  111.3410 C.3   317  LYS317      0.1728
    204  C        209.9860   28.5480  111.2880 C.2   317  LYS317      0.2616
    205  O        208.8450   28.3390  110.8730 O.2   317  LYS317     -0.2715
    206  CB       210.3520   26.0640  111.4810 C.3   317  LYS317      0.0311
    207  CG       211.2530   24.8900  111.1410 C.3   317  LYS317      0.0038
    208  CD       211.6790   24.9530  109.6880 C.3   317  LYS317      0.0206
    209  CE       212.5080   23.7510  109.2940 C.3   317  LYS317      0.1093
    210  NZ       213.8250   23.7670  109.9730 N.3   317  LYS317     -0.1314
    211  N        210.4040   29.7380  111.7100 N.am  318  LEU318     -0.1977
    212  CA       209.5210   30.8840  111.8110 C.3   318  LEU318      0.1596
    213  C        209.6670   31.7680  110.5940 C.2   318  LEU318      0.2287
    214  O        208.7150   32.4450  110.1810 O.2   318  LEU318     -0.2864
    215  CB       209.8270   31.6620  113.0840 C.3   318  LEU318      0.0297
    216  CG       209.4290   30.8940  114.3460 C.3   318  LEU318      0.0022
    217  CD1      209.8140   31.6390  115.6050 C.3   318  LEU318      0.0001
    218  CD2      207.9340   30.6050  114.3150 C.3   318  LEU318      0.0001
@<TRIPOS>BOND
     1   141   142    1
     2   143   144    2
     3   143   142    1
     4   142   145    1
     5   145   146    1
     6   148   146   ar
     7   148   150   ar
     8   146   147   ar
     9   150   151   ar
    10   127   128    1
    11   129   128    1
    12   129   130    2
    13   128   131    1
    14   152   153    1
    15   147   149   ar
    16   151   149   ar
    17   153   156    1
    18   153   154    1
    19   158   160   ar
    20   158   157   ar
    21   131   132    1
    22   133   132   ar
    23   133   135   ar
    24   113   112    2
    25   110   111    1
    26   110   102   am
    27   160   161   ar
    28   155   154    2
    29   156   157    1
    30   107   109   ar
    31   107   105   ar
    32   154   162   am
    33   132   134   ar
    34   111   112    1
    35   111   114    1
    36   101   100    1
    37   101   102    1
    38   101   104    1
    39   157   159   ar
    40   135   136   ar
    41   109   108   ar
    42   112   116   am
    43   102   103    2
    44   162   163    1
    45   104   105    1
    46   105   106   ar
    47   161   159   ar
    48   164   163    1
    49   164   165    2
    50   114   115    1
    51   134   136   ar
    52   134   137   ar
    53   136   138   ar
    54   209   208    1
    55   209   210    1
    56   119   118    2
    57   163   166    1
    58   108   106   ar
    59   116   117    1
    60   208   207    1
    61   118   117    1
    62   171   172    1
    63   137   139   ar
    64   117   120    1
    65   214   213    2
    66   138   140   ar
    67   166   167    1
    68   213   212    1
    69   205   204    2
    70    94    96   ar
    71    94    93   ar
    72   207   206    1
    73   139   140   ar
    74    96    98   ar
    75   174   173    2
    76   122   124   ar
    77   122   121   ar
    78   204   203    1
    79   204   211   am
    80   172   173    1
    81   172   175    1
    82   203   206    1
    83   203   202    1
    84   167   168    1
    85    91    90    2
    86   120   121    1
    87   124   126   ar
    88   211   212    1
    89   212   215    1
    90    92    93    1
    91    92    89    1
    92    93    95   ar
    93   121   123   ar
    94    98    99    1
    95    98    97   ar
    96   168   169    2
    97   168   170   am
    98   202   196   am
    99    90    89    1
   100    89    88    1
   101    60    59    1
   102    60    61    1
   103   126   125   ar
   104   215   216    1
   105    95    97   ar
   106   123   125   ar
   107   196   197    2
   108   196   195    1
   109   178   179    2
   110   178   177    1
   111    83    82    2
   112    63    61   am
   113    63    64    1
   114   190   189    2
   115    88    82   am
   116   194   195    1
   117    61    62    2
   118   218   216    1
   119   216   217    1
   120   176   177    1
   121    82    81    1
   122   192   191    1
   123   195   198    1
   124    67    64    1
   125    67    68    1
   126   177   180    1
   127   189   188    1
   128    64    65    1
   129    70    68    1
   130   180   181    1
   131   187   188    1
   132    66    65    2
   133   198   199    1
   134    68    69    1
   135   191   188    1
   136   191   193    1
   137    65    71   am
   138    81    84    1
   139    81    80    1
   140    79    76    1
   141    84    85    1
   142   181   183   ar
   143   181   182   ar
   144   199   200    1
   145   199   201    1
   146    19    18   ar
   147    19    17   ar
   148   183   185   ar
   149    71    72    1
   150    76    75    1
   151    76    77    1
   152    75    73   am
   153    18    16   ar
   154    85    86    1
   155    85    87    1
   156   182   184   ar
   157    17    15   ar
   158    73    72    1
   159    73    74    2
   160    77    78    2
   161   185   186   ar
   162    27    25    1
   163    16    14   ar
   164   184   186   ar
   165    15    14   ar
   166    14    13    1
   167    25    26    1
   168    25    24    1
   169    56    58   ar
   170    56    54   ar
   171    58    57   ar
   172    23    22    2
   173    12    11    2
   174     8     6    1
   175    21    24    1
   176    21    22    1
   177    21    20    1
   178    54    53   ar
   179    13    10    1
   180    22    28   am
   181    11    20   am
   182    11    10    1
   183    57    55   ar
   184    10     9    1
   185     7     6    1
   186     6     5    1
   187    53    55   ar
   188    53    52    1
   189    28    29    1
   190     4     3    2
   191     5     2    1
   192    29    30    1
   193    47    45    1
   194    52    49    1
   195     2     3    1
   196     2     1    1
   197    46    45    1
   198    49    50    1
   199    49    48    1
   200    51    50    2
   201    30    31    2
   202    45    44    1
   203    44    41    1
   204    39    38    1
   205    38    37    1
   206    43    42    2
   207    37    36    1
   208    41    42    1
   209    41    40    1
   210    36    33    1
   211    35    34    2
   212    34    33    1
   213    33    32    1
