@<TRIPOS>MOLECULE
tmp/5i9jA00.pdb
 74 70 0 0 0
SMALL
GASTEIGER

@<TRIPOS>ATOM
      1  N         27.1670   16.6930   27.9530 N.3   110  GLY110     -0.1210
      2  CA        26.0300   16.2940   28.7470 C.3   110  GLY110      0.1956
      3  C         26.1780   16.4820   30.2490 C.2   110  GLY110      0.2612
      4  O         25.1860   16.3010   30.9730 O.2   110  GLY110     -0.2717
      5  N         27.3600   16.8530   30.7470 N.am  111  VAL111     -0.1965
      6  CA        27.4720   17.0400   32.1830 C.3   111  VAL111      0.1727
      7  C         26.6250   18.2350   32.6210 C.2   111  VAL111      0.2616
      8  O         25.9070   18.1500   33.6230 O.2   111  VAL111     -0.2715
      9  CB        28.9410   17.1890   32.5950 C.3   111  VAL111      0.0290
     10  CG1       29.0720   17.5440   34.0700 C.3   111  VAL111      0.0023
     11  CG2       29.6580   15.8720   32.2920 C.3   111  VAL111      0.0023
     12  N         26.7000   19.3580   31.8940 N.am  112  VAL112     -0.1963
     13  CA        25.9270   20.5610   32.2470 C.3   112  VAL112      0.1727
     14  C         24.6510   20.6110   31.4210 C.2   112  VAL112      0.2616
     15  O         24.6950   20.7040   30.1780 O.2   112  VAL112     -0.2715
     16  CB        26.7300   21.8460   32.0250 C.3   112  VAL112      0.0290
     17  CG1       25.8760   23.0580   32.4540 C.3   112  VAL112      0.0023
     18  CG2       27.9730   21.8030   32.8070 C.3   112  VAL112      0.0023
     19  N         23.5100   20.5410   32.0960 N.am  113  SER113     -0.1950
     20  CA        22.2290   20.5180   31.4200 C.3   113  SER113      0.1924
     21  C         21.8710   21.8810   30.8430 C.2   113  SER113      0.2314
     22  O         22.4140   22.9020   31.2450 O.2   113  SER113     -0.2863
     23  CB        21.1350   20.0840   32.3750 C.3   113  SER113      0.2116
     24  OG        21.4880   18.8340   32.9410 O.3   113  SER113     -0.2180
     25  N         20.1820   25.4260   30.1990 N.3   115  ARG115     -0.1245
     26  CA        19.5670   26.4780   30.9840 C.3   115  ARG115      0.1563
     27  C         18.7140   27.3500   30.0900 C.2   115  ARG115      0.2260
     28  O         19.0200   27.5140   28.9100 O.2   115  ARG115     -0.2867
     29  CB        20.6210   27.3620   31.6170 C.3   115  ARG115      0.0307
     30  CG        20.9900   26.9440   33.0270 C.3   115  ARG115      0.0489
     31  CD        21.6840   25.5560   33.0890 C.3   115  ARG115      0.2205
     32  NE        22.0690   25.3140   34.4890 N.pl3 115  ARG115     -0.0865
     33  CZ        22.4970   24.1480   34.9470 C.cat 115  ARG115      0.5346
     34  NH1       22.6590   23.1380   34.0990 N.pl3 115  ARG115      0.1354
     35  NH2       22.8130   24.0150   36.2300 N.pl3 115  ARG115      0.1354
     36  N         16.6210   24.4460   34.1450 N.3   149  VAL149     -0.1245
     37  CA        17.1660   25.3240   35.1790 C.3   149  VAL149      0.1561
     38  C         17.1960   26.7520   34.6260 C.2   149  VAL149      0.2260
     39  O         17.6840   26.9890   33.5210 O.2   149  VAL149     -0.2867
     40  CB        18.5740   24.8710   35.5770 C.3   149  VAL149      0.0252
     41  CG1       19.1710   25.8370   36.5830 C.3   149  VAL149      0.0019
     42  CG2       18.5690   23.4120   36.1490 C.3   149  VAL149      0.0019
     43  N         23.4470   28.1380   38.3430 N.3   181  LYS181     -0.1231
     44  CA        22.7120   27.5790   39.4750 C.3   181  LYS181      0.1693
     45  C         22.9770   26.0700   39.5740 C.2   181  LYS181      0.2593
     46  O         23.9730   25.5560   39.0470 O.2   181  LYS181     -0.2718
     47  CB        21.2020   27.8480   39.3370 C.3   181  LYS181      0.0285
     48  CG        20.8210   29.2920   39.0130 C.3   181  LYS181      0.0035
     49  CD        21.1640   30.2930   40.0710 C.3   181  LYS181      0.0206
     50  CE        20.9330   31.7330   39.5930 C.3   181  LYS181      0.1093
     51  NZ        21.2860   32.7430   40.6060 N.3   181  LYS181     -0.1314
     52  N         22.0980   25.3400   40.2220 N.am  182  GLY182     -0.1942
     53  CA        22.3730   23.9390   40.4080 C.3   182  GLY182      0.2014
     54  C         23.4430   23.7140   41.4630 C.2   182  GLY182      0.2639
     55  O         23.8340   24.6040   42.2270 O.2   182  GLY182     -0.2714
     56  N         23.9720   22.4810   41.4680 N.am  183  ARG183     -0.1963
     57  CA        24.9160   22.0930   42.4960 C.3   183  ARG183      0.1729
     58  C         26.2400   21.5410   41.9970 C.2   183  ARG183      0.2616
     59  O         27.0530   21.1220   42.8250 O.2   183  ARG183     -0.2715
     60  CB        24.2830   21.0460   43.4210 C.3   183  ARG183      0.0348
     61  CG        23.9430   19.7610   42.7510 C.3   183  ARG183      0.0492
     62  CD        23.6150   18.7020   43.8100 C.3   183  ARG183      0.2205
     63  NE        22.5300   19.1520   44.6810 N.pl3 183  ARG183     -0.0865
     64  CZ        22.3170   18.7040   45.9160 C.cat 183  ARG183      0.5346
     65  NH1       23.1060   17.7780   46.4520 N.pl3 183  ARG183      0.1354
     66  NH2       21.3140   19.1920   46.6290 N.pl3 183  ARG183      0.1354
     67  N         26.4950   21.5430   40.6850 N.am  184  LEU184     -0.1977
     68  CA        27.8100   21.1490   40.2300 C.3   184  LEU184      0.1596
     69  C         28.8480   22.1160   40.7660 C.2   184  LEU184      0.2287
     70  O         28.5810   23.3300   40.9390 O.2   184  LEU184     -0.2864
     71  CB        27.8810   21.0960   38.7320 C.3   184  LEU184      0.0297
     72  CG        27.0190   20.0270   38.0850 C.3   184  LEU184      0.0022
     73  CD1       27.0280   20.1940   36.5770 C.3   184  LEU184      0.0001
     74  CD2       27.4750   18.6190   38.5390 C.3   184  LEU184      0.0001
@<TRIPOS>BOND
     1     1     2    1
     2     2     3    1
     3    28    27    2
     4    27    26    1
     5    15    14    2
     6    25    26    1
     7     3     5   am
     8     3     4    2
     9     5     6    1
    10    21    22    2
    11    21    20    1
    12    26    29    1
    13    20    19    1
    14    20    23    1
    15    14    19   am
    16    14    13    1
    17    29    30    1
    18    12    13    1
    19    12     7   am
    20    16    13    1
    21    16    17    1
    22    16    18    1
    23     6     9    1
    24     6     7    1
    25    11     9    1
    26    23    24    1
    27     9    10    1
    28     7     8    2
    29    30    31    1
    30    31    32    1
    31    39    38    2
    32    34    33    1
    33    36    37    1
    34    32    33    2
    35    38    37    1
    36    33    35    1
    37    37    40    1
    38    40    42    1
    39    40    41    1
    40    73    72    1
    41    72    74    1
    42    72    71    1
    43    43    44    1
    44    71    68    1
    45    48    47    1
    46    48    49    1
    47    46    45    2
    48    47    44    1
    49    44    45    1
    50    45    52   am
    51    50    49    1
    52    50    51    1
    53    52    53    1
    54    68    67    1
    55    68    69    1
    56    53    54    1
    57    67    58   am
    58    69    70    2
    59    54    56   am
    60    54    55    2
    61    56    57    1
    62    58    57    1
    63    58    59    2
    64    57    60    1
    65    61    60    1
    66    61    62    1
    67    62    63    1
    68    63    64    2
    69    64    65    1
    70    64    66    1
