@<TRIPOS>MOLECULE
tmp/5i9kA01.pdb
 82 81 0 0 0
SMALL
GASTEIGER

@<TRIPOS>ATOM
      1  N         30.8780   29.1700   17.8440 N.3    39  ARG39      -0.1197
      2  CA        29.9020   29.5110   16.7970 C.3    39  ARG39       0.1779
      3  C         30.6930   29.9280   15.5120 C.2    39  ARG39       0.2305
      4  O         30.5160   29.3550   14.4230 O.2    39  ARG39      -0.2863
      5  CB        28.9710   30.6970   17.2640 C.2    39  ARG39      -0.0007
      6  CG        28.0030   30.4270   18.4740 C.2    39  ARG39       0.0176
      7  CD        27.0560   31.6300   18.9680 C.3    39  ARG39       0.2464
      8  NE        25.9200   31.0750   19.7690 N.pl3  39  ARG39      -0.0815
      9  CZ        24.6770   31.5890   19.9670 C.cat  39  ARG39       0.5349
     10  NH1       24.3210   32.7550   19.4280 N.pl3  39  ARG39       0.1354
     11  NH2       23.7670   30.9140   20.7160 N.pl3  39  ARG39       0.1354
     12  N         21.3550   26.5180    4.5000 N.3    84  TYR84      -0.1241
     13  CA        20.2030   26.4720    5.4280 C.3    84  TYR84       0.1605
     14  C         20.4010   25.5290    6.5680 C.2    84  TYR84       0.2264
     15  O         19.8390   25.6860    7.6280 O.2    84  TYR84      -0.2867
     16  CB        18.9980   26.0350    4.6290 C.3    84  TYR84       0.0534
     17  CG        17.9690   25.1290    5.2720 C.ar   84  TYR84      -0.0201
     18  CD1       16.7490   25.6360    5.8190 C.ar   84  TYR84      -0.0009
     19  CD2       18.1300   23.7440    5.2140 C.ar   84  TYR84      -0.0009
     20  CE1       15.7150   24.7380    6.3520 C.ar   84  TYR84       0.0417
     21  CE2       17.1080   22.8250    5.7390 C.ar   84  TYR84       0.0417
     22  CZ        15.9200   23.3310    6.3050 C.ar   84  TYR84       0.1957
     23  OH        15.0150   22.3990    6.7960 O.3    84  TYR84      -0.2866
     24  N         22.8160   27.4540    8.5300 N.3    87  ILE87      -0.1231
     25  CA        21.9770   28.5940    8.9580 C.3    87  ILE87       0.1692
     26  C         20.9990   28.0620    9.9400 C.2    87  ILE87       0.2592
     27  O         20.7150   28.7010   10.9260 O.2    87  ILE87      -0.2718
     28  CB        21.2410   29.4030    7.8040 C.3    87  ILE87       0.0266
     29  CG1       22.1580   30.4710    7.1740 C.3    87  ILE87       0.0019
     30  CG2       20.0380   30.1700    8.3580 C.3    87  ILE87       0.0020
     31  CD1       21.8670   30.8290    5.6900 C.3    87  ILE87       0.0001
     32  N         20.5100   26.8590    9.6880 N.am   88  ALA88      -0.1966
     33  CA        19.6020   26.2630   10.6580 C.3    88  ALA88       0.1728
     34  C         20.3180   26.0940   12.0120 C.2    88  ALA88       0.2616
     35  O         19.7490   26.4010   13.0730 O.2    88  ALA88      -0.2715
     36  CB        19.0250   24.9340   10.1460 C.3    88  ALA88       0.0334
     37  N         21.5850   25.6800   11.9730 N.am   89  TYR89      -0.1960
     38  CA        22.2280   25.2560   13.2080 C.3    89  TYR89       0.1771
     39  C         21.9820   25.9680   14.5930 C.2    89  TYR89       0.2619
     40  O         21.8650   25.2850   15.6230 O.2    89  TYR89      -0.2715
     41  CB        23.7530   25.0890   13.0790 C.3    89  TYR89       0.0574
     42  CG        24.2920   24.5310   14.3650 C.ar   89  TYR89      -0.0198
     43  CD1       24.0660   23.1670   14.7020 C.ar   89  TYR89      -0.0009
     44  CD2       24.9400   25.3540   15.2940 C.ar   89  TYR89      -0.0009
     45  CE1       24.5230   22.6400   15.9140 C.ar   89  TYR89       0.0417
     46  CE2       25.4040   24.8400   16.5000 C.ar   89  TYR89       0.0417
     47  CZ        25.2000   23.4790   16.8110 C.ar   89  TYR89       0.1957
     48  OH        25.6590   22.9510   18.0030 O.3    89  TYR89      -0.2866
     49  N         21.9780   27.3070   14.6570 N.am   90  LEU90      -0.1963
     50  CA        23.0120   28.0920   13.9680 C.3    90  LEU90       0.1728
     51  C         23.7110   29.0300   14.9470 C.2    90  LEU90       0.2617
     52  O         24.3670   29.9700   14.5410 O.2    90  LEU90      -0.2715
     53  CB        22.3840   28.9270   12.8960 C.3    90  LEU90       0.0311
     54  CG        21.4950   29.8860   13.6540 C.3    90  LEU90       0.0022
     55  CD1       22.1020   31.3130   13.5960 C.3    90  LEU90       0.0001
     56  CD2       20.0820   29.8080   13.0830 C.3    90  LEU90       0.0001
     57  N         23.5090   28.7740   16.2370 N.am   91  THR91      -0.1937
     58  CA        24.0540   29.5510   17.3170 C.3    91  THR91       0.2013
     59  C         24.2490   28.6280   18.5090 C.2    91  THR91       0.2484
     60  O         25.0430   28.9160   19.3650 O.2    91  THR91      -0.2729
     61  CB        23.0980   30.6560   17.7700 C.3    91  THR91       0.1807
     62  OG1       21.9410   30.0580   18.3950 O.3    91  THR91      -0.2208
     63  CG2       22.6700   31.5790   16.6210 C.3    91  THR91       0.0379
     64  N         23.5040   27.5120   18.5950 N.am   92  PRO92      -0.2726
     65  CA        23.8160   26.5330   19.6690 C.3    92  PRO92       0.1402
     66  C         25.2750   26.0170   19.8000 C.2    92  PRO92       0.2269
     67  O         25.6770   25.0950   19.1010 O.2    92  PRO92      -0.2865
     68  CB        22.8790   25.3310   19.3580 C.3    92  PRO92       0.0296
     69  CG        22.4080   25.5490   17.9710 C.3    92  PRO92       0.0237
     70  CD        22.3010   27.0720   17.8660 C.3    92  PRO92       0.0939
     71  N         25.9880   24.3980   22.3830 N.3    94  PRO94      -0.2116
     72  CA        25.7910   23.0350   22.8090 C.3    94  PRO94       0.1372
     73  C         25.7310   22.2010   21.5850 C.2    94  PRO94       0.2244
     74  O         25.0900   22.5930   20.5900 O.2    94  PRO94      -0.2868
     75  CB        24.3910   23.0540   23.4280 C.3    94  PRO94       0.0268
     76  CG        23.7340   24.2520   22.7900 C.3    94  PRO94       0.0207
     77  CD        24.8350   25.2360   22.7680 C.3    94  PRO94       0.0892
     78  N         19.1580   19.0010    9.6960 N.3   101  ALA101     -0.1245
     79  CA        19.8660   20.0500    8.9820 C.3   101  ALA101      0.1562
     80  C         21.0170   19.4850    8.1200 C.2   101  ALA101      0.2260
     81  O         21.0620   19.7600    6.9080 O.2   101  ALA101     -0.2867
     82  CB        20.4070   21.0880    9.9580 C.3   101  ALA101      0.0290
@<TRIPOS>BOND
     1    12    13    1
     2    16    17    1
     3    16    13    1
     4    19    17   ar
     5    19    21   ar
     6    17    18   ar
     7    13    14    1
     8    31    29    1
     9    21    22   ar
    10    18    20   ar
    11    22    20   ar
    12    22    23    1
    13    14    15    2
    14    81    80    2
    15    29    28    1
    16    28    30    1
    17    28    25    1
    18    80    79    1
    19    24    25    1
    20    25    26    1
    21    79    78    1
    22    79    82    1
    23    32    26   am
    24    32    33    1
    25    26    27    2
    26    36    33    1
    27    33    34    1
    28    37    34   am
    29    37    38    1
    30    34    35    2
    31    53    54    1
    32    53    50    1
    33    41    38    1
    34    41    42    1
    35    56    54    1
    36    38    39    1
    37    55    54    1
    38    50    49    1
    39    50    51    1
    40    42    43   ar
    41    42    44   ar
    42     4     3    2
    43    52    51    2
    44    39    49   am
    45    39    40    2
    46    43    45   ar
    47    51    57   am
    48    44    46   ar
    49     3     2    1
    50    45    47   ar
    51    57    58    1
    52    46    47   ar
    53    63    61    1
    54     2     5    1
    55     2     1    1
    56    47    48    1
    57     5     6    2
    58    58    61    1
    59    58    59    1
    60    61    62    1
    61    70    69    1
    62    70    64    1
    63    69    68    1
    64     6     7    1
    65    59    64   am
    66    59    60    2
    67    64    65    1
    68     7     8    1
    69    67    66    2
    70    68    65    1
    71    10     9    1
    72    65    66    1
    73     8     9    2
    74     9    11    1
    75    74    73    2
    76    73    72    1
    77    71    77    1
    78    71    72    1
    79    77    76    1
    80    76    75    1
    81    72    75    1
