@<TRIPOS>MOLECULE
tmp/5i9kA03.pdb
 73 68 0 0 0
SMALL
GASTEIGER

@<TRIPOS>ATOM
      1  N         35.7190   22.7300    1.1340 N.3    52  VAL52      -0.1231
      2  CA        36.9010   22.0050    0.8130 C.3    52  VAL52       0.1678
      3  C         36.6290   20.8230   -0.1110 C.2    52  VAL52       0.2434
      4  O         37.1650   20.8330   -1.2130 O.2    52  VAL52      -0.2733
      5  CB        37.6550   21.5540    2.0450 C.3    52  VAL52       0.0265
      6  CG1       38.4080   20.1930    1.8130 C.3    52  VAL52       0.0020
      7  CG2       38.6040   22.6480    2.4180 C.3    52  VAL52       0.0020
      8  N         35.7680   19.8280    0.2940 N.am   53  PRO53      -0.2729
      9  CA        35.4360   18.8120   -0.7290 C.3    53  PRO53       0.1401
     10  C         34.5030   19.3190   -1.8390 C.2    53  PRO53       0.2269
     11  O         34.5610   18.7860   -2.9530 O.2    53  PRO53      -0.2865
     12  CB        34.7480   17.6760    0.0690 C.3    53  PRO53       0.0296
     13  CG        35.0680   17.9330    1.4870 C.3    53  PRO53       0.0237
     14  CD        35.2640   19.4230    1.6220 C.3    53  PRO53       0.0939
     15  N         37.2730   19.9770   -4.3710 N.3    56  GLY56      -0.1210
     16  CA        37.7060   18.6800   -4.9170 C.3    56  GLY56       0.1956
     17  C         36.7650   18.2950   -6.0450 C.2    56  GLY56       0.2611
     18  O         37.1130   18.3660   -7.2210 O.2    56  GLY56      -0.2717
     19  N         35.5180   18.0010   -5.6750 N.am   57  ILE57      -0.1979
     20  CA        34.4800   17.3830   -6.5640 C.3    57  ILE57       0.1595
     21  C         33.9130   18.2640   -7.6860 C.2    57  ILE57       0.2287
     22  O         33.7850   17.8460   -8.8500 O.2    57  ILE57      -0.2864
     23  CB        33.2400   17.0490   -5.7500 C.3    57  ILE57       0.0276
     24  CG1       33.4520   15.8420   -4.8680 C.3    57  ILE57       0.0022
     25  CG2       32.0140   16.9130   -6.6620 C.3    57  ILE57       0.0022
     26  CD1       32.4920   15.8900   -3.6860 C.3    57  ILE57       0.0001
     27  N         36.4460   19.3560  -10.1930 N.3    60  LEU60      -0.1231
     28  CA        37.0020   18.3700  -11.1590 C.3    60  LEU60       0.1693
     29  C         36.1820   17.7600  -12.3490 C.2    60  LEU60       0.2592
     30  O         36.7220   17.7280  -13.4730 O.2    60  LEU60      -0.2718
     31  CB        37.7010   17.2530  -10.4110 C.3    60  LEU60       0.0284
     32  CG        38.4560   17.8180   -9.1920 C.3    60  LEU60       0.0019
     33  CD1       38.5050   16.8240   -7.9610 C.3    60  LEU60       0.0001
     34  CD2       39.8790   18.3250   -9.5820 C.3    60  LEU60       0.0001
     35  N         34.9380   17.2450  -12.0970 N.am   61  TYR61      -0.1976
     36  CA        33.8410   16.9280  -13.1320 C.3    61  TYR61       0.1639
     37  C         33.5050   18.2090  -13.8600 C.2    61  TYR61       0.2290
     38  O         32.7510   18.2360  -14.8250 O.2    61  TYR61      -0.2864
     39  CB        32.5730   16.4220  -12.4210 C.3    61  TYR61       0.0560
     40  CG        32.9620   15.3560  -11.4700 C.ar   61  TYR61      -0.0198
     41  CD1       33.2300   14.0710  -11.9440 C.ar   61  TYR61      -0.0009
     42  CD2       33.1900   15.6350  -10.1130 C.ar   61  TYR61      -0.0009
     43  CE1       33.6700   13.0570  -11.0990 C.ar   61  TYR61       0.0417
     44  CE2       33.6380   14.6310   -9.2270 C.ar   61  TYR61       0.0417
     45  CZ        33.8770   13.3220   -9.7310 C.ar   61  TYR61       0.1957
     46  OH        34.3230   12.2510   -8.9160 O.3    61  TYR61      -0.2866
     47  N         36.1490   17.8710  -16.2400 N.3    64  SER64      -0.1217
     48  CA        35.8540   16.5400  -16.7700 C.3    64  SER64       0.1889
     49  C         34.3180   16.3000  -16.8170 C.2    64  SER64       0.2288
     50  O         33.8110   15.2600  -16.3540 O.2    64  SER64      -0.2866
     51  CB        36.5760   15.4720  -15.9500 C.3    64  SER64       0.2089
     52  OG        36.1050   15.5120  -14.6090 O.3    64  SER64      -0.2183
     53  N         27.5720   14.3030   -4.2770 N.3   113  ALA113     -0.1245
     54  CA        28.9480   13.8110   -4.3430 C.3   113  ALA113      0.1562
     55  C         28.8430   12.4650   -5.0920 C.2   113  ALA113      0.2260
     56  O         29.2420   12.3340   -6.2640 O.2   113  ALA113     -0.2867
     57  CB        29.6210   13.6320   -2.9180 C.3   113  ALA113      0.0290
     58  N         30.1710   12.2710   -8.9620 N.3   117  LEU117     -0.1245
     59  CA        31.5400   11.8430   -8.9540 C.3   117  LEU117      0.1561
     60  C         31.7690   10.7370   -9.9720 C.2   117  LEU117      0.2260
     61  O         32.5280   10.8890  -10.9680 O.2   117  LEU117     -0.2867
     62  CB        31.9870   11.3320   -7.5780 C.3   117  LEU117      0.0270
     63  CG        31.7320   12.4460   -6.5770 C.3   117  LEU117      0.0019
     64  CD1       32.7480   12.3880   -5.4890 C.3   117  LEU117      0.0001
     65  CD2       31.6640   13.8060   -7.3010 C.3   117  LEU117      0.0001
     66  N         33.5790   10.5590  -14.2030 N.3   121  LEU121     -0.1245
     67  CA        34.7330    9.6020  -14.1650 C.3   121  LEU121      0.1561
     68  C         34.6050    8.3820  -15.1190 C.2   121  LEU121      0.2260
     69  O         35.4390    8.2290  -16.0400 O.2   121  LEU121     -0.2867
     70  CB        35.0260    9.0300  -12.7470 C.3   121  LEU121      0.0270
     71  CG        34.3800    9.4890  -11.4350 C.3   121  LEU121      0.0019
     72  CD1       34.2010    8.3430  -10.4480 C.3   121  LEU121      0.0001
     73  CD2       35.1950   10.6010  -10.8490 C.3   121  LEU121      0.0001
@<TRIPOS>BOND
     1    49    48    1
     2    49    50    2
     3    48    47    1
     4    48    51    1
     5    69    68    2
     6    51    52    1
     7    68    67    1
     8    38    37    2
     9    66    67    1
    10    67    70    1
    11    37    36    1
    12    30    29    2
    13    36    39    1
    14    36    35    1
    15    70    71    1
    16    39    40    1
    17    29    35   am
    18    29    28    1
    19    41    40   ar
    20    41    43   ar
    21    40    42   ar
    22    71    73    1
    23    71    72    1
    24    28    31    1
    25    28    27    1
    26    43    45   ar
    27    61    60    2
    28    31    32    1
    29    42    44   ar
    30    60    59    1
    31    45    44   ar
    32    45    46    1
    33    34    32    1
    34    32    33    1
    35    58    59    1
    36    59    62    1
    37    22    21    2
    38    21    20    1
    39    62    63    1
    40    65    63    1
    41    18    17    2
    42    25    23    1
    43    63    64    1
    44    20    23    1
    45    20    19    1
    46    56    55    2
    47    17    19   am
    48    17    16    1
    49    23    24    1
    50    55    54    1
    51    16    15    1
    52    24    26    1
    53    54    53    1
    54    54    57    1
    55    11    10    2
    56    10     9    1
    57     4     3    2
    58     9    12    1
    59     9     8    1
    60     3     8   am
    61     3     2    1
    62    12    13    1
    63     8    14    1
    64     2     1    1
    65     2     5    1
    66    13    14    1
    67     6     5    1
    68     5     7    1
