@<TRIPOS>MOLECULE
tmp/5i9kA00.pdb
 136 125 0 0 0
SMALL
GASTEIGER

@<TRIPOS>ATOM
      1  N         28.2290   31.4170   -5.8300 N.3    13  ILE13      -0.1245
      2  CA        27.2820   31.2940   -4.7380 C.3    13  ILE13       0.1561
      3  C         28.2280   30.8270   -3.6880 C.2    13  ILE13       0.2260
      4  O         28.7080   31.5870   -2.8450 O.2    13  ILE13      -0.2867
      5  CB        26.2460   30.1650   -4.9440 C.3    13  ILE13       0.0252
      6  CG1       25.6620   30.2070   -6.3630 C.3    13  ILE13       0.0019
      7  CG2       25.1760   30.2710   -3.8420 C.3    13  ILE13       0.0019
      8  CD1       24.8890   28.9950   -6.7480 C.3    13  ILE13       0.0001
      9  N         26.0260   15.4290  -21.5800 N.3    68  LEU68      -0.1245
     10  CA        24.9780   16.4470  -21.5920 C.3    68  LEU68       0.1561
     11  C         24.0870   16.4730  -20.3470 C.2    68  LEU68       0.2260
     12  O         23.5340   17.5220  -19.9900 O.2    68  LEU68      -0.2867
     13  CB        24.1920   16.3060  -22.8980 C.3    68  LEU68       0.0270
     14  CG        22.6830   16.4360  -23.0000 C.3    68  LEU68       0.0019
     15  CD1       22.1770   17.8450  -22.6160 C.3    68  LEU68       0.0001
     16  CD2       22.3110   16.0740  -24.4310 C.3    68  LEU68       0.0001
     17  N         21.9640   16.6720  -17.0160 N.3    70  THR70      -0.1218
     18  CA        21.7380   17.7380  -16.0380 C.3    70  THR70       0.1862
     19  C         22.1190   17.3290  -14.6160 C.2    70  THR70       0.2287
     20  O         21.4150   16.5630  -13.9390 O.2    70  THR70      -0.2866
     21  CB        20.2320   18.1380  -15.9840 C.3    70  THR70       0.1770
     22  OG1       19.6880   18.1880  -17.3180 O.3    70  THR70      -0.2211
     23  CG2       20.0320   19.5020  -15.2420 C.3    70  THR70       0.0375
     24  N         22.0390   20.9600  -10.9310 N.3    73  ILE73      -0.1245
     25  CA        20.9140   21.0800   -9.9340 C.3    73  ILE73       0.1561
     26  C         21.3640   20.7740   -8.5130 C.2    73  ILE73       0.2260
     27  O         20.9730   21.4400   -7.5470 O.2    73  ILE73      -0.2867
     28  CB        19.7570   20.0530  -10.1460 C.3    73  ILE73       0.0252
     29  CG1       18.6530   20.5470  -11.0790 C.3    73  ILE73       0.0019
     30  CG2       19.0670   19.7310   -8.8150 C.3    73  ILE73       0.0019
     31  CD1       17.4890   19.4370  -11.2850 C.3    73  ILE73       0.0001
     32  N         23.9460   22.8890   -7.3950 N.3    76  ARG76      -0.1231
     33  CA        22.9560   23.8560   -6.8720 C.3    76  ARG76       0.1694
     34  C         22.2290   23.6110   -5.5210 C.2    76  ARG76       0.2591
     35  O         22.1140   24.5640   -4.7280 O.2    76  ARG76      -0.2718
     36  CB        21.9300   24.1630   -7.9670 C.3    76  ARG76       0.0321
     37  CG        22.5620   24.2340   -9.3600 C.3    76  ARG76       0.0489
     38  CD        21.9120   25.2740  -10.1520 C.3    76  ARG76       0.2205
     39  NE        22.2170   26.5470   -9.5490 N.pl3  76  ARG76      -0.0865
     40  CZ        22.6790   27.5640  -10.2370 C.cat  76  ARG76       0.5346
     41  NH1       22.8500   27.4500  -11.5420 N.pl3  76  ARG76       0.1354
     42  NH2       22.9380   28.6870   -9.6210 N.pl3  76  ARG76       0.1354
     43  N         21.7250   22.3860   -5.2680 N.am   77  ILE77      -0.1980
     44  CA        20.9580   22.1110   -4.0060 C.3    77  ILE77       0.1595
     45  C         21.8700   21.6810   -2.8930 C.2    77  ILE77       0.2287
     46  O         21.5430   21.7980   -1.6980 O.2    77  ILE77      -0.2864
     47  CB        19.8720   21.0140   -4.1160 C.3    77  ILE77       0.0276
     48  CG1       19.2090   21.0630   -5.4870 C.3    77  ILE77       0.0022
     49  CG2       18.8700   21.0960   -2.9210 C.3    77  ILE77       0.0022
     50  CD1       18.4680   19.8030   -5.8130 C.3    77  ILE77       0.0001
     51  N         24.6290   23.1200   -2.3660 N.3    79  VAL79      -0.1245
     52  CA        24.6700   24.4750   -1.8210 C.3    79  VAL79       0.1561
     53  C         23.4050   24.7110   -0.9970 C.2    79  VAL79       0.2260
     54  O         23.4790   25.2350    0.1110 O.2    79  VAL79      -0.2867
     55  CB        24.7100   25.5520   -2.9350 C.3    79  VAL79       0.0252
     56  CG1       23.2890   25.9830   -3.4100 C.3    79  VAL79       0.0019
     57  CG2       25.4310   26.7880   -2.3990 C.3    79  VAL79       0.0019
     58  N         21.0170   22.7460    0.2920 N.3    81  ALA81      -0.1245
     59  CA        21.1060   21.9530    1.4790 C.3    81  ALA81       0.1562
     60  C         22.0570   22.5280    2.5420 C.2    81  ALA81       0.2260
     61  O         21.6650   22.7150    3.7030 O.2    81  ALA81      -0.2867
     62  CB        21.6140   20.6180    1.1110 C.3    81  ALA81       0.0290
     63  N         21.3550   26.5180    4.5000 N.3    84  TYR84      -0.1241
     64  CA        20.2030   26.4720    5.4280 C.3    84  TYR84       0.1605
     65  C         20.4010   25.5290    6.5680 C.2    84  TYR84       0.2264
     66  O         19.8390   25.6860    7.6280 O.2    84  TYR84      -0.2867
     67  CB        18.9980   26.0350    4.6290 C.3    84  TYR84       0.0534
     68  CG        17.9690   25.1290    5.2720 C.ar   84  TYR84      -0.0201
     69  CD1       16.7490   25.6360    5.8190 C.ar   84  TYR84      -0.0009
     70  CD2       18.1300   23.7440    5.2140 C.ar   84  TYR84      -0.0009
     71  CE1       15.7150   24.7380    6.3520 C.ar   84  TYR84       0.0417
     72  CE2       17.1080   22.8250    5.7390 C.ar   84  TYR84       0.0417
     73  CZ        15.9200   23.3310    6.3050 C.ar   84  TYR84       0.1957
     74  OH        15.0150   22.3990    6.7960 O.3    84  TYR84      -0.2866
     75  N         18.7860   16.9380   11.3850 N.3   100  LEU100     -0.1245
     76  CA        18.2450   16.7780   10.0350 C.3   100  LEU100      0.1561
     77  C         18.8890   17.8300    9.1300 C.2   100  LEU100      0.2260
     78  O         19.1280   17.5850    7.9500 O.2   100  LEU100     -0.2867
     79  CB        16.7130   16.9220    9.9990 C.3   100  LEU100      0.0270
     80  CG        15.9290   16.5520    8.7130 C.3   100  LEU100      0.0019
     81  CD1       14.6400   15.8990    9.1480 C.3   100  LEU100      0.0001
     82  CD2       15.6330   17.6970    7.7470 C.3   100  LEU100      0.0001
     83  N         21.8310   16.2370    8.0420 N.3   103  PHE103     -0.1227
     84  CA        21.3840   15.0710    7.3000 C.3   103  PHE103      0.1736
     85  C         21.1640   15.6950    5.9110 C.2   103  PHE103      0.2595
     86  O         21.5070   15.1030    4.8910 O.2   103  PHE103     -0.2718
     87  CB        20.1900   14.2750    7.9320 C.3   103  PHE103      0.0547
     88  CG        20.6320   13.1740    8.9500 C.ar  103  PHE103     -0.0202
     89  CD1       20.4410   13.3480   10.3310 C.ar  103  PHE103     -0.0042
     90  CD2       21.2520   11.9530    8.5210 C.ar  103  PHE103     -0.0042
     91  CE1       20.8620   12.3180   11.2790 C.ar  103  PHE103     -0.0003
     92  CE2       21.6540   10.9150    9.4650 C.ar  103  PHE103     -0.0003
     93  CZ        21.4660   11.1120   10.8390 C.ar  103  PHE103     -0.0000
     94  N         20.7500   16.9530    5.8570 N.am  104  VAL104     -0.1980
     95  CA        20.7560   17.5520    4.5310 C.3   104  VAL104      0.1595
     96  C         22.1170   17.8610    3.8990 C.2   104  VAL104      0.2287
     97  O         22.4410   17.2870    2.8780 O.2   104  VAL104     -0.2864
     98  CB        19.5420   18.5120    4.1700 C.3   104  VAL104      0.0276
     99  CG1       18.3490   17.6640    3.9800 C.3   104  VAL104      0.0022
    100  CG2       19.1790   19.4760    5.2830 C.3   104  VAL104      0.0022
    101  N         24.9660   15.1350    3.6160 N.3   107  GLY107     -0.1210
    102  CA        24.3910   13.8600    3.0450 C.3   107  GLY107      0.1956
    103  C         24.0920   13.9850    1.5570 C.2   107  GLY107      0.2611
    104  O         24.0680   12.9650    0.8300 O.2   107  GLY107     -0.2717
    105  N         23.8580   15.2630    1.1620 N.am  108  VAL108     -0.1979
    106  CA        23.7020   15.7430   -0.2430 C.3   108  VAL108      0.1595
    107  C         25.0900   15.8920   -0.8270 C.2   108  VAL108      0.2287
    108  O         25.3640   15.3700   -1.9040 O.2   108  VAL108     -0.2864
    109  CB        22.8300   17.0680   -0.3960 C.3   108  VAL108      0.0276
    110  CG1       23.3750   18.1860    0.4140 C.3   108  VAL108      0.0022
    111  CG2       22.6970   17.4880   -1.8570 C.3   108  VAL108      0.0022
    112  N         25.1940   12.4240   -1.6090 N.3   111  SER111     -0.1202
    113  CA        24.4330   11.9140   -2.8400 C.3   111  SER111      0.2020
    114  C         24.8720   12.4330   -4.2250 C.2   111  SER111      0.2618
    115  O         25.2340   11.6450   -5.1320 O.2   111  SER111     -0.2717
    116  CB        22.9130   12.1470   -2.7460 C.3   111  SER111      0.2103
    117  OG        22.3580   12.1730   -4.0640 O.3   111  SER111     -0.2182
    118  N         24.7290   13.7570   -4.3660 N.am  112  MET112     -0.1979
    119  CA        25.3840   14.5860   -5.4160 C.3   112  MET112      0.1605
    120  C         26.9240   14.4430   -5.4320 C.2   112  MET112      0.2287
    121  O         27.5290   14.4670   -6.4970 O.2   112  MET112     -0.2864
    122  CB        24.9710   16.0950   -5.2980 C.3   112  MET112      0.0413
    123  CG        23.4370   16.3690   -5.0990 C.3   112  MET112      0.0598
    124  SD        22.2960   15.7060   -6.3800 S.3   112  MET112     -0.1393
    125  CE        21.5960   14.2010   -5.6570 C.3   112  MET112      0.0692
    126  N         26.9150   10.2760   -6.8580 N.3   115  ARG115     -0.1245
    127  CA        26.5820   10.0150   -8.2820 C.3   115  ARG115      0.1563
    128  C         27.5990   10.7860   -9.2410 C.2   115  ARG115      0.2260
    129  O         28.4710   10.1970   -9.9110 O.2   115  ARG115     -0.2867
    130  CB        25.0780   10.2960   -8.5740 C.3   115  ARG115      0.0307
    131  CG        24.1240   10.2240   -7.3420 C.3   115  ARG115      0.0489
    132  CD        23.1800    8.9730   -7.3320 C.3   115  ARG115      0.2205
    133  NE        22.7370    8.5310   -5.9850 N.pl3 115  ARG115     -0.0865
    134  CZ        21.4770    8.5560   -5.5290 C.cat 115  ARG115      0.5346
    135  NH1       20.4940    9.0010   -6.3080 N.pl3 115  ARG115      0.1354
    136  NH2       21.1940    8.1220   -4.2910 N.pl3 115  ARG115      0.1354
@<TRIPOS>BOND
     1    16    14    1
     2    14    13    1
     3    14    15    1
     4    13    10    1
     5    10     9    1
     6    10    11    1
     7    11    12    2
     8    22    21    1
     9    17    18    1
    10    18    21    1
    11    18    19    1
    12    21    23    1
    13    19    20    2
    14    41    40    1
    15    31    29    1
    16    29    28    1
    17    24    25    1
    18    40    42    1
    19    40    39    2
    20    38    39    1
    21    38    37    1
    22    28    25    1
    23    28    30    1
    24    25    26    1
    25   129   128    2
    26    37    36    1
    27   128   127    1
    28   130   127    1
    29   130   131    1
    30    26    27    2
    31   127   126    1
    32    36    33    1
    33    32    33    1
    34   131   132    1
    35   132   133    1
    36    33    34    1
    37     8     6    1
    38   121   120    2
    39   124   125    1
    40   124   123    1
    41     6     5    1
    42   135   134    1
    43   133   134    2
    44     1     2    1
    45    50    48    1
    46   134   136    1
    47    34    43   am
    48    34    35    2
    49    48    47    1
    50   120   119    1
    51   119   122    1
    52   119   118    1
    53   122   123    1
    54    43    44    1
    55   115   114    2
    56     5     2    1
    57     5     7    1
    58     2     3    1
    59   118   114   am
    60   114   113    1
    61    47    44    1
    62    47    49    1
    63   117   116    1
    64    44    45    1
    65     3     4    2
    66    56    55    1
    67    55    57    1
    68    55    52    1
    69    45    46    2
    70   113   116    1
    71   113   112    1
    72    51    52    1
    73   108   107    2
    74   111   109    1
    75    52    53    1
    76    53    54    2
    77   107   106    1
    78   109   106    1
    79   109   110    1
    80   106   105    1
    81    58    59    1
    82   104   103    2
    83    62    59    1
    84   105   103   am
    85    59    60    1
    86   103   102    1
    87    60    61    2
    88    97    96    2
    89   102   101    1
    90    96    95    1
    91    99    98    1
    92    98    95    1
    93    98   100    1
    94    63    64    1
    95    95    94    1
    96    67    68    1
    97    67    64    1
    98    86    85    2
    99    70    68   ar
   100    70    72   ar
   101    68    69   ar
   102    64    65    1
   103    72    73   ar
   104    69    71   ar
   105    94    85   am
   106    85    84    1
   107    73    71   ar
   108    73    74    1
   109    65    66    2
   110    84    87    1
   111    84    83    1
   112    82    80    1
   113    87    88    1
   114    78    77    2
   115    90    88   ar
   116    90    92   ar
   117    80    81    1
   118    80    79    1
   119    88    89   ar
   120    77    76    1
   121    92    93   ar
   122    79    76    1
   123    76    75    1
   124    89    91   ar
   125    93    91   ar
