@<TRIPOS>MOLECULE
tmp/5i9kA02.pdb
 94 88 0 0 0
SMALL
GASTEIGER

@<TRIPOS>ATOM
      1  N         29.0070   32.7360   -0.4750 N.3    17  LYS17      -0.1245
      2  CA        28.5790   32.0590    0.7160 C.3    17  LYS17       0.1561
      3  C         29.7440   32.1620    1.6420 C.2    17  LYS17       0.2260
      4  O         29.7340   32.9610    2.5980 O.2    17  LYS17      -0.2867
      5  CB        28.2420   30.5880    0.3950 C.3    17  LYS17       0.0271
      6  CG        27.7610   29.6810    1.5510 C.3    17  LYS17       0.0035
      7  CD        27.5040   28.2290    1.0810 C.3    17  LYS17       0.0206
      8  CE        26.9620   27.3730    2.2490 C.3    17  LYS17       0.1093
      9  NZ        26.6240   25.9340    1.9410 N.3    17  LYS17      -0.1314
     10  N         30.5340   34.8800    5.0540 N.3    21  LEU21      -0.1245
     11  CA        30.5800   34.0830    6.2720 C.3    21  LEU21       0.1561
     12  C         31.9620   34.0410    6.9890 C.2    21  LEU21       0.2260
     13  O         32.0100   33.9410    8.2180 O.2    21  LEU21      -0.2867
     14  CB        30.0030   32.6740    6.0090 C.3    21  LEU21       0.0270
     15  CG        28.9210   32.4530    4.9210 C.3    21  LEU21       0.0019
     16  CD1       28.5180   30.9570    4.8800 C.3    21  LEU21       0.0001
     17  CD2       27.6830   33.4050    4.9820 C.3    21  LEU21       0.0001
     18  N         30.8780   29.1700   17.8440 N.3    39  ARG39      -0.1197
     19  CA        29.9020   29.5110   16.7970 C.3    39  ARG39       0.1779
     20  C         30.6930   29.9280   15.5120 C.2    39  ARG39       0.2305
     21  O         30.5160   29.3550   14.4230 O.2    39  ARG39      -0.2863
     22  CB        28.9710   30.6970   17.2640 C.2    39  ARG39      -0.0007
     23  CG        28.0030   30.4270   18.4740 C.2    39  ARG39       0.0176
     24  CD        27.0560   31.6300   18.9680 C.3    39  ARG39       0.2464
     25  NE        25.9200   31.0750   19.7690 N.pl3  39  ARG39      -0.0815
     26  CZ        24.6770   31.5890   19.9670 C.cat  39  ARG39       0.5349
     27  NH1       24.3210   32.7550   19.4280 N.pl3  39  ARG39       0.1354
     28  NH2       23.7670   30.9140   20.7160 N.pl3  39  ARG39       0.1354
     29  N         33.1240   27.7350   14.3650 N.3    42  ARG42      -0.1231
     30  CA        32.2690   26.6300   13.9200 C.3    42  ARG42       0.1694
     31  C         31.7940   26.7820   12.4830 C.2    42  ARG42       0.2591
     32  O         31.8070   25.8250   11.6960 O.2    42  ARG42      -0.2718
     33  CB        31.0450   26.5100   14.8370 C.3    42  ARG42       0.0321
     34  CG        31.1320   25.4770   15.9650 C.3    42  ARG42       0.0489
     35  CD        30.0000   25.7670   16.9120 C.3    42  ARG42       0.2205
     36  NE        30.1420   25.1230   18.2180 N.pl3  42  ARG42      -0.0865
     37  CZ        29.1860   24.3800   18.7990 C.cat  42  ARG42       0.5346
     38  NH1       28.0210   24.1920   18.1860 N.pl3  42  ARG42       0.1354
     39  NH2       29.3850   23.8280   20.0020 N.pl3  42  ARG42       0.1354
     40  N         31.3650   27.9900   12.1450 N.am   43  ALA43      -0.1980
     41  CA        30.8090   28.2080   10.8370 C.3    43  ALA43       0.1597
     42  C         31.9290   27.9080    9.8750 C.2    43  ALA43       0.2287
     43  O         31.8200   26.9900    9.0680 O.2    43  ALA43      -0.2864
     44  CB        30.3200   29.6250   10.7050 C.3    43  ALA43       0.0319
     45  N         23.8670   25.6030    3.1060 N.3    83  ILE83      -0.1245
     46  CA        23.6080   26.9470    3.6220 C.3    83  ILE83       0.1561
     47  C         22.5860   26.9720    4.7910 C.2    83  ILE83       0.2260
     48  O         22.9140   27.3820    5.9100 O.2    83  ILE83      -0.2867
     49  CB        23.0710   27.8600    2.4940 C.3    83  ILE83       0.0252
     50  CG1       22.1040   27.0860    1.5890 C.3    83  ILE83       0.0019
     51  CG2       24.1860   28.4540    1.6660 C.3    83  ILE83       0.0019
     52  CD1       21.4400   27.9350    0.5540 C.3    83  ILE83       0.0001
     53  N         23.8550   24.9710    7.8290 N.3    86  THR86      -0.1203
     54  CA        24.5540   25.7980    8.7900 C.3    86  THR86       0.1994
     55  C         23.5140   26.6920    9.3990 C.2    86  THR86       0.2617
     56  O         23.3450   26.6640   10.6170 O.2    86  THR86      -0.2717
     57  CB        25.6120   26.7440    8.2100 C.3    86  THR86       0.1784
     58  OG1       25.1310   27.3930    7.0130 O.3    86  THR86      -0.2211
     59  CG2       26.9040   25.9870    7.9730 C.3    86  THR86       0.0376
     60  N         22.8160   27.4540    8.5300 N.am   87  ILE87      -0.1979
     61  CA        21.9770   28.5940    8.9580 C.3    87  ILE87       0.1595
     62  C         20.9990   28.0620    9.9400 C.2    87  ILE87       0.2287
     63  O         20.7150   28.7010   10.9260 O.2    87  ILE87      -0.2864
     64  CB        21.2410   29.4030    7.8040 C.3    87  ILE87       0.0276
     65  CG1       22.1580   30.4710    7.1740 C.3    87  ILE87       0.0022
     66  CG2       20.0380   30.1700    8.3580 C.3    87  ILE87       0.0022
     67  CD1       21.8670   30.8290    5.6900 C.3    87  ILE87       0.0001
     68  N         21.5850   25.6800   11.9730 N.3    89  TYR89      -0.1227
     69  CA        22.2280   25.2560   13.2080 C.3    89  TYR89       0.1736
     70  C         21.9820   25.9680   14.5930 C.2    89  TYR89       0.2595
     71  O         21.8650   25.2850   15.6230 O.2    89  TYR89      -0.2718
     72  CB        23.7530   25.0890   13.0790 C.3    89  TYR89       0.0548
     73  CG        24.2920   24.5310   14.3650 C.ar   89  TYR89      -0.0200
     74  CD1       24.0660   23.1670   14.7020 C.ar   89  TYR89      -0.0009
     75  CD2       24.9400   25.3540   15.2940 C.ar   89  TYR89      -0.0009
     76  CE1       24.5230   22.6400   15.9140 C.ar   89  TYR89       0.0417
     77  CE2       25.4040   24.8400   16.5000 C.ar   89  TYR89       0.0417
     78  CZ        25.2000   23.4790   16.8110 C.ar   89  TYR89       0.1957
     79  OH        25.6590   22.9510   18.0030 O.3    89  TYR89      -0.2866
     80  N         21.9780   27.3070   14.6570 N.am   90  LEU90      -0.1966
     81  CA        23.0120   28.0920   13.9680 C.3    90  LEU90       0.1728
     82  C         23.7110   29.0300   14.9470 C.2    90  LEU90       0.2616
     83  O         24.3670   29.9700   14.5410 O.2    90  LEU90      -0.2715
     84  CB        22.3840   28.9270   12.8960 C.3    90  LEU90       0.0311
     85  CG        21.4950   29.8860   13.6540 C.3    90  LEU90       0.0022
     86  CD1       22.1020   31.3130   13.5960 C.3    90  LEU90       0.0001
     87  CD2       20.0820   29.8080   13.0830 C.3    90  LEU90       0.0001
     88  N         23.5090   28.7740   16.2370 N.am   91  THR91      -0.1951
     89  CA        24.0540   29.5510   17.3170 C.3    91  THR91       0.1897
     90  C         24.2490   28.6280   18.5090 C.2    91  THR91       0.2313
     91  O         25.0430   28.9160   19.3650 O.2    91  THR91      -0.2863
     92  CB        23.0980   30.6560   17.7700 C.3    91  THR91       0.1794
     93  OG1       21.9410   30.0580   18.3950 O.3    91  THR91      -0.2208
     94  CG2       22.6700   31.5790   16.6210 C.3    91  THR91       0.0378
@<TRIPOS>BOND
     1     1     2    1
     2     5     2    1
     3     5     6    1
     4    52    50    1
     5     2     3    1
     6     7     6    1
     7     7     8    1
     8    50    49    1
     9     3     4    2
    10    51    49    1
    11     9     8    1
    12    49    46    1
    13    45    46    1
    14    46    47    1
    15    47    48    2
    16    16    15    1
    17    15    17    1
    18    15    14    1
    19    10    11    1
    20    67    65    1
    21    14    11    1
    22    11    12    1
    23    12    13    2
    24    58    57    1
    25    65    64    1
    26    64    66    1
    27    64    61    1
    28    53    54    1
    29    59    57    1
    30    57    54    1
    31    60    61    1
    32    60    55   am
    33    54    55    1
    34    61    62    1
    35    43    42    2
    36    55    56    2
    37    42    41    1
    38    62    63    2
    39    44    41    1
    40    41    40    1
    41    32    31    2
    42    68    69    1
    43    40    31   am
    44    31    30    1
    45    84    85    1
    46    84    81    1
    47    72    69    1
    48    72    73    1
    49    87    85    1
    50    69    70    1
    51    86    85    1
    52    30    29    1
    53    30    33    1
    54    81    80    1
    55    81    82    1
    56    73    74   ar
    57    73    75   ar
    58    21    20    2
    59    83    82    2
    60    70    80   am
    61    70    71    2
    62    74    76   ar
    63    33    34    1
    64    82    88   am
    65    75    77   ar
    66    20    19    1
    67    76    78   ar
    68    34    35    1
    69    88    89    1
    70    77    78   ar
    71    94    92    1
    72    19    22    1
    73    19    18    1
    74    78    79    1
    75    35    36    1
    76    22    23    2
    77    89    92    1
    78    89    90    1
    79    92    93    1
    80    38    37    1
    81    36    37    2
    82    23    24    1
    83    90    91    2
    84    37    39    1
    85    24    25    1
    86    27    26    1
    87    25    26    2
    88    26    28    1
