@<TRIPOS>MOLECULE
tmp/5i9lA01.pdb
 165 156 0 0 0
SMALL
GASTEIGER

@<TRIPOS>ATOM
      1  N         16.4730    3.6130  -17.4060 N.3    90  SER90      -0.1202
      2  CA        16.2080    4.9760  -16.9690 C.3    90  SER90       0.2020
      3  C         15.6800    5.7280  -18.1760 C.2    90  SER90       0.2619
      4  O         16.3070    6.6560  -18.6840 O.2    90  SER90      -0.2717
      5  CB        17.4830    5.6240  -16.4330 C.3    90  SER90       0.2103
      6  OG        17.2120    6.8840  -15.8490 O.3    90  SER90      -0.2182
      7  N         14.5120    5.2910  -18.6260 N.am   91  ILE91      -0.1965
      8  CA        13.9550    5.6760  -19.9070 C.3    91  ILE91       0.1727
      9  C         12.4750    5.9320  -19.7120 C.2    91  ILE91       0.2617
     10  O         11.7900    5.1590  -19.0410 O.2    91  ILE91      -0.2715
     11  CB        14.0870    4.5210  -20.9150 C.3    91  ILE91       0.0290
     12  CG1       15.5410    4.3440  -21.3540 C.3    91  ILE91       0.0022
     13  CG2       13.2060    4.7580  -22.1340 C.3    91  ILE91       0.0023
     14  CD1       15.7260    3.0910  -22.2120 C.3    91  ILE91       0.0001
     15  N         11.9850    7.0110  -20.3050 N.am   92  GLY92      -0.1940
     16  CA        10.5660    7.3190  -20.2580 C.3    92  GLY92       0.2014
     17  C         10.1830    8.3320  -21.3100 C.2    92  GLY92       0.2639
     18  O         10.9880    9.1850  -21.6950 O.2    92  GLY92      -0.2714
     19  N          8.9490    8.2360  -21.7850 N.am   93  PHE93      -0.1959
     20  CA         8.4250    9.2080  -22.7220 C.3    93  PHE93       0.1771
     21  C          6.9130    9.1500  -22.7970 C.2    93  PHE93       0.2619
     22  O          6.3360    8.0630  -22.7960 O.2    93  PHE93      -0.2715
     23  CB         8.9870    8.9660  -24.1170 C.3    93  PHE93       0.0574
     24  CG         8.4520    9.9170  -25.1360 C.ar   93  PHE93      -0.0200
     25  CD1        8.8700   11.2360  -25.1460 C.ar   93  PHE93      -0.0042
     26  CD2        7.5180    9.5080  -26.0630 C.ar   93  PHE93      -0.0042
     27  CE1        8.3670   12.1310  -26.0680 C.ar   93  PHE93      -0.0003
     28  CE2        7.0140   10.4000  -26.9920 C.ar   93  PHE93      -0.0003
     29  CZ         7.4410   11.7130  -26.9920 C.ar   93  PHE93      -0.0000
     30  N          6.2870   10.3260  -22.8530 N.am   94  ALA94      -0.1977
     31  CA         4.9030   10.4690  -23.3010 C.3    94  ALA94       0.1597
     32  C          4.8060   11.7380  -24.1420 C.2    94  ALA94       0.2287
     33  O          5.5190   12.7120  -23.8840 O.2    94  ALA94      -0.2864
     34  CB         3.9280   10.5370  -22.1120 C.3    94  ALA94       0.0319
     35  N          3.8310   15.3130  -25.2360 N.3    96  ARG96      -0.1245
     36  CA         3.6200   16.4520  -24.3420 C.3    96  ARG96       0.1563
     37  C          2.1580   16.6500  -23.9370 C.2    96  ARG96       0.2260
     38  O          1.8840   17.0350  -22.8030 O.2    96  ARG96      -0.2867
     39  CB         4.1580   17.7440  -24.9550 C.3    96  ARG96       0.0307
     40  CG         4.6150   18.7700  -23.9220 C.3    96  ARG96       0.0489
     41  CD         5.7110   18.2040  -23.0080 C.3    96  ARG96       0.2205
     42  NE         6.8050   17.5920  -23.7610 N.pl3  96  ARG96      -0.0865
     43  CZ         7.9480   18.2040  -24.0620 C.cat  96  ARG96       0.5346
     44  NH1        8.8810   17.5630  -24.7550 N.pl3  96  ARG96       0.1354
     45  NH2        8.1610   19.4540  -23.6710 N.pl3  96  ARG96       0.1354
     46  N          0.7740   14.6880  -20.8550 N.3    99  ILE99      -0.1245
     47  CA         1.3170   15.0280  -19.5450 C.3    99  ILE99       0.1561
     48  C          1.1400   16.5130  -19.2490 C.2    99  ILE99       0.2260
     49  O          1.7920   17.0680  -18.3670 O.2    99  ILE99      -0.2867
     50  CB         2.8150   14.7110  -19.4700 C.3    99  ILE99       0.0252
     51  CG1        3.5040   15.2000  -20.7440 C.3    99  ILE99       0.0019
     52  CG2        3.0380   13.2260  -19.2800 C.3    99  ILE99       0.0019
     53  CD1        4.9900   15.0000  -20.7500 C.3    99  ILE99       0.0001
     54  N          8.1830    6.8060  -10.2710 N.3   145  TYR145     -0.1241
     55  CA         7.8580    8.0470   -9.5810 C.3   145  TYR145      0.1605
     56  C          6.5400    7.8870   -8.8370 C.2   145  TYR145      0.2264
     57  O          5.7370    7.0170   -9.1590 O.2   145  TYR145     -0.2867
     58  CB         7.7920    9.2170  -10.5700 C.3   145  TYR145      0.0534
     59  CG         7.4070   10.5330   -9.9470 C.ar  145  TYR145     -0.0201
     60  CD1        8.1670   11.0890   -8.9340 C.ar  145  TYR145     -0.0009
     61  CD2        6.2740   11.2190  -10.3720 C.ar  145  TYR145     -0.0009
     62  CE1        7.8150   12.2950   -8.3470 C.ar  145  TYR145      0.0417
     63  CE2        5.9100   12.4310   -9.7930 C.ar  145  TYR145      0.0417
     64  CZ         6.6850   12.9630   -8.7800 C.ar  145  TYR145      0.1957
     65  OH         6.3270   14.1590   -8.1990 O.3   145  TYR145     -0.2866
     66  N         -0.8900   12.7440   -9.3350 N.3   152  ILE152     -0.1245
     67  CA        -0.1390   13.9870   -9.2410 C.3   152  ILE152      0.1561
     68  C         -0.4680   14.8670  -10.4450 C.2   152  ILE152      0.2260
     69  O         -0.5370   14.3870  -11.5690 O.2   152  ILE152     -0.2867
     70  CB         1.3810   13.6900   -9.2020 C.3   152  ILE152      0.0252
     71  CG1        1.7230   12.9300   -7.9150 C.3   152  ILE152      0.0019
     72  CG2        2.2040   14.9700   -9.3180 C.3   152  ILE152      0.0019
     73  CD1        3.1680   12.5480   -7.7800 C.3   152  ILE152      0.0001
     74  N          0.9690   14.7200  -14.3520 N.3   155  TYR155     -0.1241
     75  CA         1.6880   13.4810  -14.6250 C.3   155  TYR155      0.1605
     76  C          0.8490   12.5450  -15.4880 C.2   155  TYR155      0.2264
     77  O          1.3560   11.8630  -16.3780 O.2   155  TYR155     -0.2867
     78  CB         2.1160   12.8050  -13.3250 C.3   155  TYR155      0.0534
     79  CG         3.3250   11.9200  -13.4890 C.ar  155  TYR155     -0.0201
     80  CD1        4.5560   12.4460  -13.8860 C.ar  155  TYR155     -0.0009
     81  CD2        3.2450   10.5600  -13.2340 C.ar  155  TYR155     -0.0009
     82  CE1        5.6660   11.6230  -14.0410 C.ar  155  TYR155      0.0417
     83  CE2        4.3270    9.7440  -13.3680 C.ar  155  TYR155      0.0417
     84  CZ         5.5420   10.2730  -13.7700 C.ar  155  TYR155      0.1957
     85  OH         6.6210    9.4430  -13.8960 O.3   155  TYR155     -0.2866
     86  N          1.5610    9.3590  -17.7990 N.3   158  MET158     -0.1245
     87  CA         2.8120    8.7880  -17.3000 C.3   158  MET158      0.1570
     88  C          2.5690    8.0150  -15.9950 C.2   158  MET158      0.2261
     89  O          3.2710    7.0510  -15.6830 O.2   158  MET158     -0.2867
     90  CB         3.8950    9.8670  -17.1290 C.3   158  MET158      0.0387
     91  CG         5.2910    9.3050  -16.9540 C.3   158  MET158      0.0595
     92  SD         5.8290    8.3830  -18.4130 S.3   158  MET158     -0.1393
     93  CE         7.6080    8.5700  -18.3020 C.3   158  MET158      0.0692
     94  N          3.7910    4.3020  -15.3710 N.3   162  LYS162     -0.1245
     95  CA         4.6700    3.9470  -14.2570 C.3   162  LYS162      0.1561
     96  C          4.0110    2.8870  -13.3630 C.2   162  LYS162      0.2260
     97  O          4.6990    2.0840  -12.7290 O.2   162  LYS162     -0.2867
     98  CB         5.0190    5.1770  -13.4230 C.3   162  LYS162      0.0271
     99  CG         5.9300    6.1690  -14.1340 C.3   162  LYS162      0.0035
    100  CD         7.3300    5.5580  -14.3980 C.3   162  LYS162      0.0206
    101  CE         8.3110    6.6320  -14.8270 C.3   162  LYS162      0.1093
    102  NZ         9.6140    6.0590  -15.2850 N.3   162  LYS162     -0.1314
    103  N         11.5560   14.3400   -7.2420 N.3   190  PRO190     -0.2102
    104  CA        11.8550   15.2030   -8.3840 C.3   190  PRO190      0.1504
    105  C         13.2980   15.6840   -8.3560 C.2   190  PRO190      0.2575
    106  O         13.8440   15.9980   -7.2950 O.2   190  PRO190     -0.2718
    107  CB        10.8950   16.3810   -8.2000 C.3   190  PRO190      0.0282
    108  CG        10.6200   16.4250   -6.7220 C.3   190  PRO190      0.0208
    109  CD        10.6160   14.9650   -6.2970 C.3   190  PRO190      0.0893
    110  N         13.8890   15.7300   -9.5430 N.am  191  ILE191     -0.1980
    111  CA        15.2560   16.1670   -9.7640 C.3   191  ILE191      0.1595
    112  C         15.2450   16.9140  -11.0870 C.2   191  ILE191      0.2287
    113  O         14.6670   16.4390  -12.0690 O.2   191  ILE191     -0.2864
    114  CB        16.2200   14.9690   -9.8920 C.3   191  ILE191      0.0276
    115  CG1       16.2720   14.1830   -8.5790 C.3   191  ILE191      0.0022
    116  CG2       17.6080   15.4450  -10.2900 C.3   191  ILE191      0.0022
    117  CD1       17.0940   12.8990   -8.6570 C.3   191  ILE191      0.0001
    118  N         16.2200   17.3190  -14.0930 N.3   193  THR193     -0.1218
    119  CA        16.8470   16.6950  -15.2590 C.3   193  THR193      0.1862
    120  C         16.2370   17.2960  -16.5270 C.2   193  THR193      0.2287
    121  O         15.2830   18.0690  -16.4430 O.2   193  THR193     -0.2866
    122  CB        16.5870   15.1750  -15.2870 C.3   193  THR193      0.1770
    123  OG1       15.1740   14.9350  -15.3840 O.3   193  THR193     -0.2211
    124  CG2       17.1230   14.5030  -14.0310 C.3   193  THR193      0.0375
    125  N         14.4360   15.7120  -18.6410 N.3   195  ALA195     -0.1231
    126  CA        13.0790   15.1810  -18.6890 C.3   195  ALA195      0.1694
    127  C         12.1140   16.0420  -17.8740 C.2   195  ALA195      0.2591
    128  O         10.9370   16.1600  -18.2180 O.2   195  ALA195     -0.2718
    129  CB        13.0570   13.7360  -18.1980 C.3   195  ALA195      0.0304
    130  N         12.6160   16.6390  -16.7940 N.am  196  ALA196     -0.1980
    131  CA        11.7850   17.4560  -15.9070 C.3   196  ALA196      0.1597
    132  C         11.2740   18.7280  -16.5870 C.2   196  ALA196      0.2287
    133  O         10.2750   19.3110  -16.1590 O.2   196  ALA196     -0.2864
    134  CB        12.5380   17.7970  -14.6170 C.3   196  ALA196      0.0319
    135  N          9.8640   18.6540  -19.2310 N.3   198  GLY198     -0.1210
    136  CA         8.5970   18.2180  -19.7880 C.3   198  GLY198      0.1956
    137  C          7.4540   18.5630  -18.8560 C.2   198  GLY198      0.2611
    138  O          6.4800   19.1990  -19.2590 O.2   198  GLY198     -0.2717
    139  N          7.5900   18.1590  -17.5970 N.am  199  ILE199     -0.1979
    140  CA         6.5440   18.3480  -16.5920 C.3   199  ILE199      0.1595
    141  C          6.2510   19.8160  -16.2960 C.2   199  ILE199      0.2287
    142  O          7.0720   20.5060  -15.7000 O.2   199  ILE199     -0.2864
    143  CB         6.9280   17.6700  -15.2490 C.3   199  ILE199      0.0276
    144  CG1        7.2590   16.1840  -15.4530 C.3   199  ILE199      0.0022
    145  CG2        5.8250   17.8610  -14.2160 C.3   199  ILE199      0.0022
    146  CD1        6.1130   15.3570  -16.0110 C.3   199  ILE199      0.0001
    147  N          6.9380   21.6930  -12.6360 N.3   202  PHE202     -0.1241
    148  CA         7.9490   20.9030  -11.9510 C.3   202  PHE202      0.1605
    149  C          8.4900   21.7240  -10.7830 C.2   202  PHE202      0.2264
    150  O          8.7550   21.2000   -9.7000 O.2   202  PHE202     -0.2867
    151  CB         9.0730   20.5340  -12.9200 C.3   202  PHE202      0.0534
    152  CG        10.2300   19.8310  -12.2720 C.ar  202  PHE202     -0.0203
    153  CD1       10.1310   18.5050  -11.8990 C.ar  202  PHE202     -0.0042
    154  CD2       11.4210   20.4980  -12.0430 C.ar  202  PHE202     -0.0042
    155  CE1       11.2000   17.8510  -11.3030 C.ar  202  PHE202     -0.0003
    156  CE2       12.4950   19.8520  -11.4470 C.ar  202  PHE202     -0.0003
    157  CZ        12.3800   18.5230  -11.0730 C.ar  202  PHE202     -0.0000
    158  N          6.3490   21.3910   -7.6380 N.3   205  ILE205     -0.1245
    159  CA         6.5170   20.1070   -6.9730 C.3   205  ILE205      0.1561
    160  C          7.8060   20.1480   -6.1710 C.2   205  ILE205      0.2260
    161  O          7.8730   19.6850   -5.0290 O.2   205  ILE205     -0.2867
    162  CB         6.5990   18.9420   -7.9850 C.3   205  ILE205      0.0252
    163  CG1        5.3140   18.8570   -8.8100 C.3   205  ILE205      0.0019
    164  CG2        6.8680   17.6220   -7.2630 C.3   205  ILE205      0.0019
    165  CD1        5.2630   17.6670   -9.7580 C.3   205  ILE205      0.0001
@<TRIPOS>BOND
     1    29    28   ar
     2    29    27   ar
     3    28    26   ar
     4    27    25   ar
     5    26    24   ar
     6    35    36    1
     7    25    24   ar
     8    24    23    1
     9    39    36    1
    10    39    40    1
    11    44    43    1
    12    36    37    1
    13    32    33    2
    14    32    31    1
    15    23    20    1
    16    43    42    2
    17    43    45    1
    18    37    38    2
    19    40    41    1
    20    42    41    1
    21    31    30    1
    22    31    34    1
    23    30    21   am
    24    21    22    2
    25    21    20    1
    26    20    19    1
    27    14    12    1
    28    13    11    1
    29    19    17   am
    30    18    17    2
    31    12    11    1
    32    17    16    1
    33    11     8    1
    34    46    47    1
    35    53    51    1
    36    51    50    1
    37    15    16    1
    38    15     9   am
    39     8     9    1
    40     8     7    1
    41   136   135    1
    42   136   137    1
    43     9    10    2
    44    47    50    1
    45    47    48    1
    46    50    52    1
    47   138   137    2
    48    48    49    2
    49   137   139   am
    50   126   125    1
    51   126   129    1
    52   126   127    1
    53     4     3    2
    54     7     3   am
    55    92    93    1
    56    92    91    1
    57   128   127    2
    58     3     2    1
    59   127   130   am
    60    86    87    1
    61   139   140    1
    62     1     2    1
    63    87    90    1
    64    87    88    1
    65    90    91    1
    66     2     5    1
    67   130   131    1
    68   140   141    1
    69   140   143    1
    70   132   133    2
    71   132   131    1
    72   120   121    2
    73   120   119    1
    74     5     6    1
    75    77    76    2
    76   141   142    2
    77   146   144    1
    78    88    89    2
    79   131   134    1
    80    76    75    1
    81   144   143    1
    82   123   122    1
    83    94    95    1
    84   122   119    1
    85   122   124    1
    86   102   101    1
    87   119   118    1
    88   143   145    1
    89   101   100    1
    90    75    74    1
    91    75    78    1
    92   100    99    1
    93    95    98    1
    94    95    96    1
    95    99    98    1
    96    82    80   ar
    97    82    84   ar
    98    85    84    1
    99    80    79   ar
   100    84    83   ar
   101    79    78    1
   102    79    81   ar
   103    83    81   ar
   104    96    97    2
   105   151   152    1
   106   151   148    1
   107   147   148    1
   108   152   154   ar
   109   152   153   ar
   110   113   112    2
   111   154   156   ar
   112   148   149    1
   113   153   155   ar
   114    69    68    2
   115   156   157   ar
   116   155   157   ar
   117   112   111    1
   118   149   150    2
   119    58    59    1
   120    58    55    1
   121    68    67    1
   122    61    59   ar
   123    61    63   ar
   124   116   114    1
   125    54    55    1
   126    59    60   ar
   127   114   111    1
   128   114   115    1
   129    63    64   ar
   130   111   110    1
   131   165   163    1
   132    55    56    1
   133   110   105   am
   134    66    67    1
   135    72    70    1
   136    67    70    1
   137    70    71    1
   138    57    56    2
   139    60    62   ar
   140   163   162    1
   141    64    62   ar
   142    64    65    1
   143   117   115    1
   144   104   105    1
   145   104   107    1
   146   104   103    1
   147   105   106    2
   148   107   108    1
   149   162   164    1
   150   162   159    1
   151    71    73    1
   152   158   159    1
   153   103   109    1
   154   159   160    1
   155   108   109    1
   156   160   161    2
