@<TRIPOS>MOLECULE
tmp/5i9mA01.pdb
 148 141 0 0 0
SMALL
GASTEIGER

@<TRIPOS>ATOM
      1  N          3.8640   16.4280  -34.0790 N.3    90  SER90      -0.1202
      2  CA         5.2170   16.1970  -34.5670 C.3    90  SER90       0.2020
      3  C          5.9750   15.5560  -33.4340 C.2    90  SER90       0.2619
      4  O          7.0590   16.0100  -33.0520 O.2    90  SER90      -0.2717
      5  CB         5.8800   17.5150  -34.9690 C.3    90  SER90       0.2103
      6  OG         7.0810   17.2360  -35.6310 O.3    90  SER90      -0.2182
      7  N          5.3710   14.4960  -32.9010 N.am   91  ILE91      -0.1965
      8  CA         5.7830   13.9000  -31.6500 C.3    91  ILE91       0.1727
      9  C          6.0460   12.4130  -31.8370 C.2    91  ILE91       0.2617
     10  O          5.3420   11.7380  -32.5540 O.2    91  ILE91      -0.2715
     11  CB         4.6660   14.0690  -30.6230 C.3    91  ILE91       0.0290
     12  CG1        4.5340   15.5320  -30.2200 C.3    91  ILE91       0.0022
     13  CG2        4.8800   13.1950  -29.3940 C.3    91  ILE91       0.0023
     14  CD1        3.3240   15.7750  -29.3650 C.3    91  ILE91       0.0001
     15  N          7.0720   11.9070  -31.1790 N.am   92  GLY92      -0.1940
     16  CA         7.2690   10.4800  -31.1260 C.3    92  GLY92       0.2014
     17  C          8.2590   10.1560  -30.0380 C.2    92  GLY92       0.2639
     18  O          8.9850   11.0350  -29.5690 O.2    92  GLY92      -0.2714
     19  N          8.2720    8.8930  -29.6290 N.am   93  PHE93      -0.1959
     20  CA         9.2850    8.3740  -28.7330 C.3    93  PHE93       0.1771
     21  C          9.2740    6.8550  -28.7680 C.2    93  PHE93       0.2619
     22  O          8.2300    6.2290  -28.9160 O.2    93  PHE93      -0.2715
     23  CB         9.0770    8.8670  -27.2920 C.3    93  PHE93       0.0574
     24  CG        10.0380    8.2560  -26.2980 C.ar   93  PHE93      -0.0200
     25  CD1       11.3290    8.7580  -26.1580 C.ar   93  PHE93      -0.0042
     26  CD2        9.6590    7.1650  -25.5220 C.ar   93  PHE93      -0.0042
     27  CE1       12.2200    8.1950  -25.2650 C.ar   93  PHE93      -0.0003
     28  CE2       10.5500    6.5910  -24.6310 C.ar   93  PHE93      -0.0003
     29  CZ        11.8300    7.1120  -24.5000 C.ar   93  PHE93      -0.0000
     30  N         10.4510    6.2680  -28.6280 N.am   94  ALA94      -0.1977
     31  CA        10.5800    4.8490  -28.3830 C.3    94  ALA94       0.1597
     32  C         11.8320    4.6710  -27.5530 C.2    94  ALA94       0.2287
     33  O         12.8350    5.3350  -27.8080 O.2    94  ALA94      -0.2864
     34  CB        10.6920    4.0930  -29.6810 C.3    94  ALA94       0.0319
     35  N         14.7250    0.7350  -30.7880 N.3    99  ILE99      -0.1245
     36  CA        15.0130    1.3030  -32.0920 C.3    99  ILE99       0.1561
     37  C         16.5160    1.1570  -32.3480 C.2    99  ILE99       0.2260
     38  O         17.1610    2.0060  -32.9810 O.2    99  ILE99      -0.2867
     39  CB        14.6060    2.7930  -32.1620 C.3    99  ILE99       0.0252
     40  CG1       15.3260    3.6020  -31.0900 C.3    99  ILE99       0.0019
     41  CG2       13.1350    2.9510  -31.9580 C.3    99  ILE99       0.0019
     42  CD1       14.8170    4.9990  -30.9480 C.3    99  ILE99       0.0001
     43  N          4.9150   10.9370  -40.3840 N.3   144  SER144     -0.1202
     44  CA         5.2540    9.5180  -40.3800 C.3   144  SER144      0.2020
     45  C          6.6140    9.2560  -41.0010 C.2   144  SER144      0.2618
     46  O          7.3690   10.1840  -41.3080 O.2   144  SER144     -0.2717
     47  CB         4.2000    8.6700  -41.0930 C.3   144  SER144      0.2103
     48  OG         4.4930    7.3060  -40.9110 O.3   144  SER144     -0.2182
     49  N          6.9320    7.9810  -41.1710 N.am  145  TYR145     -0.1975
     50  CA         8.1690    7.6000  -41.8300 C.3   145  TYR145      0.1639
     51  C          7.9940    6.2940  -42.6150 C.2   145  TYR145      0.2290
     52  O          7.1780    5.4440  -42.2670 O.2   145  TYR145     -0.2864
     53  CB         9.2980    7.4920  -40.8070 C.3   145  TYR145      0.0560
     54  CG        10.6130    7.1110  -41.4160 C.ar  145  TYR145     -0.0198
     55  CD1       11.1920    7.9040  -42.3800 C.ar  145  TYR145     -0.0009
     56  CD2       11.2780    5.9480  -41.0270 C.ar  145  TYR145     -0.0009
     57  CE1       12.4030    7.5670  -42.9450 C.ar  145  TYR145      0.0417
     58  CE2       12.4860    5.5920  -41.5900 C.ar  145  TYR145      0.0417
     59  CZ        13.0460    6.4120  -42.5500 C.ar  145  TYR145      0.1957
     60  OH        14.2600    6.0820  -43.1100 O.3   145  TYR145     -0.2866
     61  N         14.7850    0.7230  -37.2940 N.3   155  TYR155     -0.1241
     62  CA        13.5470    1.4670  -37.0150 C.3   155  TYR155      0.1605
     63  C         12.5620    0.6230  -36.1760 C.2   155  TYR155      0.2264
     64  O         11.7930    1.1560  -35.3470 O.2   155  TYR155     -0.2867
     65  CB        12.8980    1.9930  -38.3010 C.3   155  TYR155      0.0534
     66  CG        11.9610    3.1830  -38.0850 C.ar  155  TYR155     -0.0201
     67  CD1       12.4590    4.4510  -37.7630 C.ar  155  TYR155     -0.0009
     68  CD2       10.5950    3.0330  -38.2040 C.ar  155  TYR155     -0.0009
     69  CE1       11.5950    5.5220  -37.5680 C.ar  155  TYR155      0.0417
     70  CE2        9.7210    4.0970  -38.0240 C.ar  155  TYR155      0.0417
     71  CZ        10.2200    5.3200  -37.7140 C.ar  155  TYR155      0.1957
     72  OH         9.3400    6.3290  -37.5490 O.3   155  TYR155     -0.2866
     73  N          9.4120    1.2250  -33.7710 N.3   158  MET158     -0.1245
     74  CA         8.8880    2.5150  -34.1970 C.3   158  MET158      0.1570
     75  C          8.1190    2.3680  -35.5080 C.2   158  MET158      0.2261
     76  O          7.1900    3.1370  -35.7730 O.2   158  MET158     -0.2867
     77  CB        10.0340    3.5160  -34.3540 C.3   158  MET158      0.0387
     78  CG         9.5780    4.9390  -34.4650 C.3   158  MET158      0.0595
     79  SD         8.6980    5.4670  -32.9750 S.3   158  MET158     -0.1393
     80  CE         8.3350    7.1540  -33.4530 C.3   158  MET158      0.0692
     81  N          4.2800    3.6190  -36.2800 N.3   162  LYS162     -0.1245
     82  CA         4.0380    4.5090  -37.4000 C.3   162  LYS162      0.1561
     83  C          2.9760    3.9340  -38.3200 C.2   162  LYS162      0.2260
     84  O          2.1800    4.6910  -38.8800 O.2   162  LYS162     -0.2867
     85  CB         5.3200    4.8090  -38.1840 C.3   162  LYS162      0.0271
     86  CG         6.3190    5.6830  -37.4260 C.3   162  LYS162      0.0035
     87  CD         5.8290    7.1110  -37.2550 C.3   162  LYS162      0.0206
     88  CE         6.9290    8.0140  -36.6600 C.3   162  LYS162      0.1093
     89  NZ         6.4700    9.3920  -36.4100 N.3   162  LYS162     -0.1314
     90  N         14.5950   11.0920  -44.1460 N.3   190  PRO190     -0.2102
     91  CA        15.4570   11.3050  -42.9740 C.3   190  PRO190      0.1504
     92  C         15.9930   12.7480  -42.8600 C.2   190  PRO190      0.2575
     93  O         16.4700   13.2940  -43.8480 O.2   190  PRO190     -0.2718
     94  CB        16.6270   10.3490  -43.2280 C.3   190  PRO190      0.0282
     95  CG        16.6130   10.1230  -44.7090 C.3   190  PRO190      0.0208
     96  CD        15.1670   10.1100  -45.0770 C.3   190  PRO190      0.0893
     97  N         15.8840   13.3410  -41.6700 N.am  191  ILE191     -0.1980
     98  CA        16.4750   14.6380  -41.3720 C.3   191  ILE191      0.1595
     99  C         17.1940   14.6170  -40.0230 C.2   191  ILE191      0.2287
    100  O         16.6210   14.2340  -39.0060 O.2   191  ILE191     -0.2864
    101  CB        15.4190   15.7440  -41.3110 C.3   191  ILE191      0.0276
    102  CG1       14.6110   15.8010  -42.5980 C.3   191  ILE191      0.0022
    103  CG2       16.0820   17.0630  -41.1020 C.3   191  ILE191      0.0022
    104  CD1       13.3580   16.6650  -42.4720 C.3   191  ILE191      0.0001
    105  N         17.8570   15.4230  -36.8320 N.3   193  THR193     -0.1218
    106  CA        17.2020   16.1450  -35.7600 C.3   193  THR193      0.1862
    107  C         17.6040   15.4460  -34.4770 C.2   193  THR193      0.2287
    108  O         18.2540   14.4230  -34.5240 O.2   193  THR193     -0.2866
    109  CB        15.6350   16.1060  -35.8990 C.3   193  THR193      0.1770
    110  OG1       15.1700   14.7780  -35.7070 O.3   193  THR193     -0.2211
    111  CG2       15.1720   16.5460  -37.2680 C.3   193  THR193      0.0375
    112  N         15.8380   13.6750  -32.3100 N.3   195  ALA195     -0.1231
    113  CA        15.2880   12.3330  -32.1750 C.3   195  ALA195      0.1694
    114  C         16.0630   11.3370  -33.0510 C.2   195  ALA195      0.2591
    115  O         16.1100   10.1400  -32.7640 O.2   195  ALA195     -0.2718
    116  CB        13.8200   12.3330  -32.5130 C.3   195  ALA195      0.0304
    117  N         16.6950   11.8510  -34.1030 N.am  196  ALA196     -0.1980
    118  CA        17.4350   11.0190  -35.0450 C.3   196  ALA196      0.1597
    119  C         18.6990   10.4190  -34.4140 C.2   196  ALA196      0.2287
    120  O         19.3040    9.4890  -34.9560 O.2   196  ALA196     -0.2864
    121  CB        17.7900   11.8160  -36.2930 C.3   196  ALA196      0.0319
    122  N         18.6240    6.6670  -33.5160 N.3   199  ILE199     -0.1245
    123  CA        18.6580    5.7420  -34.6310 C.3   199  ILE199      0.1561
    124  C         20.1190    5.3760  -34.8700 C.2   199  ILE199      0.2260
    125  O         20.9030    6.2300  -35.2790 O.2   199  ILE199     -0.2867
    126  CB        18.0700    6.3830  -35.9100 C.3   199  ILE199      0.0252
    127  CG1       16.7270    7.0440  -35.6200 C.3   199  ILE199      0.0019
    128  CG2       17.8200    5.3410  -36.9750 C.3   199  ILE199      0.0019
    129  CD1       15.5810    6.0600  -35.5330 C.3   199  ILE199      0.0001
    130  N         22.0870    6.3570  -38.5350 N.3   202  PHE202     -0.1241
    131  CA        21.2380    7.3290  -39.2230 C.3   202  PHE202      0.1605
    132  C         22.0180    7.8480  -40.3840 C.2   202  PHE202      0.2264
    133  O         21.4840    8.0370  -41.4780 O.2   202  PHE202     -0.2867
    134  CB        20.8630    8.4500  -38.2650 C.3   202  PHE202      0.0534
    135  CG        20.1140    9.5640  -38.9150 C.ar  202  PHE202     -0.0203
    136  CD1       18.7300    9.5160  -39.0340 C.ar  202  PHE202     -0.0042
    137  CD2       20.7890   10.6760  -39.3980 C.ar  202  PHE202     -0.0042
    138  CE1       18.0430   10.5540  -39.6380 C.ar  202  PHE202     -0.0003
    139  CE2       20.1120   11.7160  -40.0040 C.ar  202  PHE202     -0.0003
    140  CZ        18.7410   11.6560  -40.1270 C.ar  202  PHE202     -0.0000
    141  N         21.7070    5.7170  -43.4490 N.3   205  ILE205     -0.1245
    142  CA        20.4340    5.9920  -44.1220 C.3   205  ILE205      0.1561
    143  C         20.5100    7.3010  -44.9130 C.2   205  ILE205      0.2260
    144  O         20.1210    7.3770  -46.0870 O.2   205  ILE205     -0.2867
    145  CB        19.2690    6.0910  -43.1220 C.3   205  ILE205      0.0252
    146  CG1       18.9970    4.7290  -42.4860 C.3   205  ILE205      0.0019
    147  CG2       18.0200    6.5780  -43.8200 C.3   205  ILE205      0.0019
    148  CD1       18.0810    4.7840  -41.2820 C.3   205  ILE205      0.0001
@<TRIPOS>BOND
     1   144   143    2
     2    96    95    1
     3    96    90    1
     4   143   142    1
     5    95    94    1
     6    90    91    1
     7   142   141    1
     8   142   145    1
     9    93    92    2
    10   147   145    1
    11    94    91    1
    12   145   146    1
    13    60    59    1
    14    91    92    1
    15    57    59   ar
    16    57    55   ar
    17    92    97   am
    18    51    52    2
    19    51    50    1
    20   102   104    1
    21   102   101    1
    22    59    58   ar
    23   146   148    1
    24    55    54   ar
    25    50    49    1
    26    50    53    1
    27    97    98    1
    28    58    56   ar
    29   133   132    2
    30    54    56   ar
    31    54    53    1
    32    98   101    1
    33    98    99    1
    34   101   103    1
    35    46    45    2
    36    49    45   am
    37    47    48    1
    38    47    44    1
    39    45    44    1
    40    43    44    1
    41   132   131    1
    42   140   139   ar
    43   140   138   ar
    44    99   100    2
    45   139   137   ar
    46   138   136   ar
    47   137   135   ar
    48   131   130    1
    49   131   134    1
    50   136   135   ar
    51   135   134    1
    52    84    83    2
    53    83    82    1
    54    65    66    1
    55    65    62    1
    56    68    66   ar
    57    68    70   ar
    58    85    86    1
    59    85    82    1
    60    66    67   ar
    61    70    71   ar
    62    67    69   ar
    63    71    69   ar
    64    71    72    1
    65    86    87    1
    66    82    81    1
    67    61    62    1
    68   111   109    1
    69    87    88    1
    70    62    63    1
    71   128   126    1
    72   105   106    1
    73    88    89    1
    74   121   118    1
    75    63    64    2
    76   126   127    1
    77   126   123    1
    78   109   106    1
    79   109   110    1
    80    76    75    2
    81   106   107    1
    82     6     5    1
    83   127   129    1
    84    75    74    1
    85   125   124    2
    86   118   119    1
    87   118   117    1
    88     5     2    1
    89   120   119    2
    90   124   123    1
    91   123   122    1
    92     2     1    1
    93     2     3    1
    94   108   107    2
    95    78    77    1
    96    78    79    1
    97    77    74    1
    98    74    73    1
    99   117   114   am
   100    80    79    1
   101     3     4    2
   102     3     7   am
   103   114   115    2
   104   114   113    1
   105    38    37    2
   106     7     8    1
   107    10     9    2
   108   116   113    1
   109    37    36    1
   110   112   113    1
   111    39    36    1
   112    39    41    1
   113    39    40    1
   114    36    35    1
   115     9     8    1
   116     9    15   am
   117     8    11    1
   118    15    16    1
   119    16    17    1
   120    40    42    1
   121    11    12    1
   122    11    13    1
   123    12    14    1
   124    17    19   am
   125    17    18    2
   126    34    31    1
   127    19    20    1
   128    22    21    2
   129    21    20    1
   130    21    30   am
   131    20    23    1
   132    30    31    1
   133    31    32    1
   134    33    32    2
   135    23    24    1
   136    24    25   ar
   137    24    26   ar
   138    25    27   ar
   139    26    28   ar
   140    27    29   ar
   141    28    29   ar
