@<TRIPOS>MOLECULE
tmp/5i9nA01.pdb
 152 145 0 0 0
SMALL
GASTEIGER

@<TRIPOS>ATOM
      1  N          3.4890  -20.8920   17.3000 N.3    90  SER90      -0.1202
      2  CA         4.8670  -21.0380   16.8450 C.3    90  SER90       0.2020
      3  C          5.6940  -21.4810   18.0350 C.2    90  SER90       0.2619
      4  O          6.6470  -20.8140   18.4360 O.2    90  SER90      -0.2717
      5  CB         5.4030  -19.6950   16.3210 C.3    90  SER90       0.2103
      6  OG         6.6620  -19.8460   15.6790 O.3    90  SER90      -0.2182
      7  N          5.2920  -22.5970   18.6230 N.am   91  ILE91      -0.1965
      8  CA         5.8850  -23.0820   19.8560 C.3    91  ILE91       0.1727
      9  C          6.0280  -24.5890   19.7880 C.2    91  ILE91       0.2617
     10  O          5.3840  -25.2490   18.9780 O.2    91  ILE91      -0.2715
     11  CB         4.9900  -22.7420   21.0680 C.3    91  ILE91       0.0290
     12  CG1        3.6280  -23.4240   20.9470 C.3    91  ILE91       0.0022
     13  CG2        4.7880  -21.2300   21.2010 C.3    91  ILE91       0.0023
     14  CD1        2.6540  -23.0170   22.0710 C.3    91  ILE91       0.0001
     15  N          6.8730  -25.1450   20.6410 N.am   92  GLY92      -0.1940
     16  CA         6.9350  -26.5860   20.7800 C.3    92  GLY92       0.2014
     17  C          8.0360  -26.9920   21.7210 C.2    92  GLY92       0.2639
     18  O          8.7320  -26.1340   22.2780 O.2    92  GLY92      -0.2714
     19  N          8.1990  -28.3020   21.8860 N.am   93  PHE93      -0.1959
     20  CA         9.1670  -28.8560   22.8310 C.3    93  PHE93       0.1771
     21  C          9.1630  -30.3760   22.8270 C.2    93  PHE93       0.2619
     22  O          8.1170  -31.0170   22.6840 O.2    93  PHE93      -0.2715
     23  CB         8.8940  -28.3740   24.2640 C.3    93  PHE93       0.0574
     24  CG         9.8370  -28.9510   25.2840 C.ar   93  PHE93      -0.0200
     25  CD1       11.0810  -28.3780   25.5030 C.ar   93  PHE93      -0.0042
     26  CD2        9.4830  -30.0680   26.0260 C.ar   93  PHE93      -0.0042
     27  CE1       11.9580  -28.9130   26.4480 C.ar   93  PHE93      -0.0003
     28  CE2       10.3590  -30.6100   26.9680 C.ar   93  PHE93      -0.0003
     29  CZ        11.5940  -30.0290   27.1780 C.ar   93  PHE93      -0.0000
     30  N         10.3510  -30.9420   22.9900 N.am   94  ALA94      -0.1977
     31  CA        10.5010  -32.3580   23.2730 C.3    94  ALA94       0.1597
     32  C         11.7990  -32.5020   24.0460 C.2    94  ALA94       0.2287
     33  O         12.7650  -31.7850   23.7760 O.2    94  ALA94      -0.2864
     34  CB        10.5310  -33.1650   22.0070 C.3    94  ALA94       0.0319
     35  N         14.6730  -36.3210   20.7860 N.3    99  ILE99      -0.1245
     36  CA        15.0600  -35.7690   19.4870 C.3    99  ILE99       0.1561
     37  C         16.5580  -35.9410   19.2380 C.2    99  ILE99       0.2260
     38  O         17.2070  -35.1070   18.5950 O.2    99  ILE99      -0.2867
     39  CB        14.7120  -34.2690   19.3760 C.3    99  ILE99       0.0252
     40  CG1       15.2300  -33.5140   20.6100 C.3    99  ILE99       0.0019
     41  CG2       13.2190  -34.0800   19.2130 C.3    99  ILE99       0.0019
     42  CD1       14.6740  -32.1020   20.7750 C.3    99  ILE99       0.0001
     43  N          4.7480  -26.2360   11.2260 N.3   144  SER144     -0.1202
     44  CA         5.0910  -27.6470   11.2140 C.3   144  SER144      0.2020
     45  C          6.3880  -27.8310   10.4580 C.2   144  SER144      0.2618
     46  O          7.0110  -26.8560   10.0280 O.2   144  SER144     -0.2717
     47  CB         3.9880  -28.4550   10.5250 C.3   144  SER144      0.2103
     48  OG         4.1420  -29.8530   10.7330 O.3   144  SER144     -0.2182
     49  N          6.7820  -29.0850   10.2720 N.am  145  TYR145     -0.1975
     50  CA         8.0390  -29.4040    9.6000 C.3   145  TYR145      0.1639
     51  C          7.8860  -30.7120    8.8360 C.2   145  TYR145      0.2290
     52  O          7.0610  -31.5520    9.2000 O.2   145  TYR145     -0.2864
     53  CB         9.1940  -29.4700   10.6040 C.3   145  TYR145      0.0560
     54  CG        10.5220  -29.8790    9.9960 C.ar  145  TYR145     -0.0198
     55  CD1       11.0680  -29.1800    8.9340 C.ar  145  TYR145     -0.0009
     56  CD2       11.2380  -30.9540   10.4990 C.ar  145  TYR145     -0.0009
     57  CE1       12.2730  -29.5420    8.3860 C.ar  145  TYR145      0.0417
     58  CE2       12.4440  -31.3230    9.9570 C.ar  145  TYR145      0.0417
     59  CZ        12.9570  -30.6180    8.8960 C.ar  145  TYR145      0.1957
     60  OH        14.1630  -30.9820    8.3400 O.3   145  TYR145     -0.2866
     61  N         14.7890  -36.2870   14.2130 N.3   155  TYR155     -0.1241
     62  CA        13.5540  -35.5460   14.4580 C.3   155  TYR155      0.1605
     63  C         12.6280  -36.3570   15.3560 C.2   155  TYR155      0.2264
     64  O         12.0150  -35.8220   16.2820 O.2   155  TYR155     -0.2867
     65  CB        12.8570  -35.1210   13.1680 C.3   155  TYR155      0.0534
     66  CG        11.9020  -33.9730   13.4010 C.ar  155  TYR155     -0.0201
     67  CD1       12.3680  -32.7310   13.8030 C.ar  155  TYR155     -0.0009
     68  CD2       10.5370  -34.1360   13.2400 C.ar  155  TYR155     -0.0009
     69  CE1       11.5050  -31.6880   14.0220 C.ar  155  TYR155      0.0417
     70  CE2        9.6640  -33.0990   13.4560 C.ar  155  TYR155      0.0417
     71  CZ        10.1490  -31.8770   13.8470 C.ar  155  TYR155      0.1957
     72  OH         9.2720  -30.8420   14.0670 O.3   155  TYR155     -0.2866
     73  N          9.2710  -35.7180   17.6690 N.3   158  MET158     -0.1245
     74  CA         8.6370  -34.5070   17.1510 C.3   158  MET158      0.1570
     75  C          7.8410  -34.7740   15.8730 C.2   158  MET158      0.2261
     76  O          6.7900  -34.1640   15.6490 O.2   158  MET158     -0.2867
     77  CB         9.6540  -33.3870   16.9320 C.3   158  MET158      0.0387
     78  CG        10.0060  -32.6450   18.1880 C.3   158  MET158      0.0595
     79  SD         8.5920  -31.7940   18.9140 S.3   158  MET158     -0.1393
     80  CE         7.9990  -30.8550   17.5200 C.3   158  MET158      0.0692
     81  N          4.2900  -33.5770   15.2400 N.3   162  LYS162     -0.1245
     82  CA         3.9170  -32.6890   14.1310 C.3   162  LYS162      0.1561
     83  C          2.8160  -33.2700   13.2470 C.2   162  LYS162      0.2260
     84  O          1.9680  -32.5310   12.7230 O.2   162  LYS162     -0.2867
     85  CB         5.1190  -32.2890   13.2740 C.3   162  LYS162      0.0271
     86  CG         6.1090  -31.3840   13.9810 C.3   162  LYS162      0.0035
     87  CD         5.4770  -30.0910   14.4680 C.3   162  LYS162      0.0206
     88  CE         6.5590  -29.0230   14.7080 C.3   162  LYS162      0.1093
     89  NZ         6.0350  -27.7800   15.3440 N.3   162  LYS162     -0.1314
     90  N         11.0180  -24.8310    6.1570 N.3   189  GLY189     -0.1210
     91  CA        12.3280  -25.4380    6.0610 C.3   189  GLY189      0.1940
     92  C         13.2080  -25.1280    7.2670 C.2   189  GLY189      0.2454
     93  O         12.8390  -24.3140    8.1230 O.2   189  GLY189     -0.2732
     94  N         14.3870  -25.7740    7.3420 N.am  190  PRO190     -0.2717
     95  CA        15.3320  -25.5720    8.4520 C.3   190  PRO190      0.1535
     96  C         15.8040  -24.1130    8.5860 C.2   190  PRO190      0.2598
     97  O         16.2570  -23.5190    7.6200 O.2   190  PRO190     -0.2715
     98  CB        16.5050  -26.4930    8.0850 C.3   190  PRO190      0.0310
     99  CG        16.3940  -26.6870    6.6020 C.3   190  PRO190      0.0237
    100  CD        14.9260  -26.6750    6.3080 C.3   190  PRO190      0.0939
    101  N         15.6750  -23.5430    9.7770 N.am  191  ILE191     -0.1978
    102  CA        16.1090  -22.1730   10.0410 C.3   191  ILE191      0.1596
    103  C         16.8670  -22.1480   11.3620 C.2   191  ILE191      0.2287
    104  O         16.3800  -22.6770   12.3670 O.2   191  ILE191     -0.2864
    105  CB        14.9130  -21.1980   10.1450 C.3   191  ILE191      0.0276
    106  CG1       14.1330  -21.1460    8.8270 C.3   191  ILE191      0.0022
    107  CG2       15.3930  -19.7980   10.5280 C.3   191  ILE191      0.0022
    108  CD1       12.7650  -20.4650    8.9300 C.3   191  ILE191      0.0001
    109  N         17.5680  -21.4090   14.5980 N.3   193  THR193     -0.1218
    110  CA        16.8500  -20.7900   15.7010 C.3   193  THR193      0.1862
    111  C         17.2820  -21.4650   16.9830 C.2   193  THR193      0.2287
    112  O         18.0150  -22.4400   16.9380 O.2   193  THR193     -0.2866
    113  CB        15.3370  -20.9970   15.5800 C.3   193  THR193      0.1770
    114  OG1       15.0380  -22.3900   15.7320 O.3   193  THR193     -0.2211
    115  CG2       14.8270  -20.5040   14.2370 C.3   193  THR193      0.0375
    116  N         15.4430  -23.2320   19.0680 N.3   195  ALA195     -0.1231
    117  CA        14.9150  -24.5840   19.0720 C.3   195  ALA195      0.1694
    118  C         15.7620  -25.5140   18.2050 C.2   195  ALA195      0.2591
    119  O         15.9290  -26.6860   18.5370 O.2   195  ALA195     -0.2718
    120  CB        13.4830  -24.5910   18.6230 C.3   195  ALA195      0.0304
    121  N         16.3170  -24.9790   17.1180 N.am  196  ALA196     -0.1980
    122  CA        17.1340  -25.7720   16.1970 C.3   196  ALA196      0.1597
    123  C         18.3380  -26.3840   16.8830 C.2   196  ALA196      0.2287
    124  O         18.8740  -27.3820   16.4100 O.2   196  ALA196     -0.2864
    125  CB        17.5750  -24.9470   15.0060 C.3   196  ALA196      0.0319
    126  N         18.2600  -30.0940   17.7450 N.3   199  ILE199     -0.1245
    127  CA        18.4580  -31.0710   16.6860 C.3   199  ILE199      0.1561
    128  C         19.9360  -31.1640   16.3160 C.2   199  ILE199      0.2260
    129  O         20.4320  -30.3660   15.5230 O.2   199  ILE199     -0.2867
    130  CB        17.6420  -30.6990   15.4280 C.3   199  ILE199      0.0252
    131  CG1       16.1530  -30.5440   15.7770 C.3   199  ILE199      0.0019
    132  CG2       17.8700  -31.7100   14.3220 C.3   199  ILE199      0.0019
    133  CD1       15.5080  -31.7770   16.3140 C.3   199  ILE199      0.0001
    134  N         21.4280  -30.5850   12.6910 N.3   202  PHE202     -0.1241
    135  CA        20.6950  -29.5030   12.0620 C.3   202  PHE202      0.1605
    136  C         21.5530  -28.8520   10.9790 C.2   202  PHE202      0.2264
    137  O         21.0720  -28.5300    9.8990 O.2   202  PHE202     -0.2867
    138  CB        20.2670  -28.4520   13.0780 C.3   202  PHE202      0.0534
    139  CG        19.7830  -27.1810   12.4450 C.ar  202  PHE202     -0.0203
    140  CD1       18.4910  -27.0830   11.9650 C.ar  202  PHE202     -0.0042
    141  CD2       20.6280  -26.0950   12.3030 C.ar  202  PHE202     -0.0042
    142  CE1       18.0500  -25.9290   11.3660 C.ar  202  PHE202     -0.0003
    143  CE2       20.1920  -24.9360   11.6990 C.ar  202  PHE202     -0.0003
    144  CZ        18.9050  -24.8530   11.2310 C.ar  202  PHE202     -0.0000
    145  N         21.4860  -31.0170    8.0040 N.3   205  ILE205     -0.1245
    146  CA        20.2140  -30.8580    7.3140 C.3   205  ILE205      0.1561
    147  C         20.2000  -29.5400    6.5510 C.2   205  ILE205      0.2260
    148  O         19.8250  -29.4890    5.3830 O.2   205  ILE205     -0.2867
    149  CB        19.0240  -30.9030    8.2920 C.3   205  ILE205      0.0252
    150  CG1       18.8730  -32.3000    8.8870 C.3   205  ILE205      0.0019
    151  CG2       17.7310  -30.5180    7.5850 C.3   205  ILE205      0.0019
    152  CD1       17.7440  -32.4220    9.8860 C.3   205  ILE205      0.0001
@<TRIPOS>BOND
     1   148   147    2
     2    91    90    1
     3    91    92    1
     4   100    99    1
     5   100    94    1
     6   147   146    1
     7    99    98    1
     8    92    94   am
     9    92    93    2
    10   146   145    1
    11   146   149    1
    12    94    95    1
    13   151   149    1
    14    97    96    2
    15    98    95    1
    16   149   150    1
    17    60    59    1
    18    57    59   ar
    19    57    55   ar
    20    95    96    1
    21    96   101   am
    22   106   108    1
    23   106   105    1
    24    51    52    2
    25    51    50    1
    26   150   152    1
    27    59    58   ar
    28    55    54   ar
    29    50    49    1
    30    50    53    1
    31   101   102    1
    32   137   136    2
    33    58    56   ar
    34    54    56   ar
    35    54    53    1
    36    46    45    2
    37   102   105    1
    38   102   103    1
    39   105   107    1
    40    49    45   am
    41    45    44    1
    42    47    48    1
    43    47    44    1
    44   136   135    1
    45    44    43    1
    46   144   142   ar
    47   144   143   ar
    48   103   104    2
    49   142   140   ar
    50   143   141   ar
    51   140   139   ar
    52   135   134    1
    53   135   138    1
    54   141   139   ar
    55   139   138    1
    56    84    83    2
    57    65    66    1
    58    65    62    1
    59    68    66   ar
    60    68    70   ar
    61    83    82    1
    62    85    86    1
    63    85    82    1
    64    66    67   ar
    65    70    71   ar
    66    67    69   ar
    67    71    69   ar
    68    71    72    1
    69    86    87    1
    70    82    81    1
    71    61    62    1
    72   115   113    1
    73   132   130    1
    74    62    63    1
    75    87    88    1
    76   109   110    1
    77    88    89    1
    78   125   122    1
    79    63    64    2
    80   130   131    1
    81   130   127    1
    82   129   128    2
    83   113   110    1
    84   113   114    1
    85    76    75    2
    86     6     5    1
    87   110   111    1
    88   131   133    1
    89    75    74    1
    90   122   123    1
    91   122   121    1
    92   128   127    1
    93     5     2    1
    94   124   123    2
    95   127   126    1
    96     2     1    1
    97     2     3    1
    98    77    74    1
    99    77    78    1
   100   112   111    2
   101   121   118   am
   102    74    73    1
   103    80    79    1
   104     3     4    2
   105     3     7   am
   106    78    79    1
   107   118   119    2
   108   118   117    1
   109    38    37    2
   110     7     8    1
   111   120   117    1
   112    10     9    2
   113   116   117    1
   114    41    39    1
   115    37    36    1
   116    39    36    1
   117    39    40    1
   118    36    35    1
   119     9     8    1
   120     9    15   am
   121     8    11    1
   122    40    42    1
   123    15    16    1
   124    16    17    1
   125    12    11    1
   126    12    14    1
   127    11    13    1
   128    17    19   am
   129    17    18    2
   130    19    20    1
   131    34    31    1
   132    22    21    2
   133    21    20    1
   134    21    30   am
   135    20    23    1
   136    30    31    1
   137    31    32    1
   138    33    32    2
   139    23    24    1
   140    24    25   ar
   141    24    26   ar
   142    25    27   ar
   143    26    28   ar
   144    27    29   ar
   145    28    29   ar
