@<TRIPOS>MOLECULE
tmp/5i9qA05.pdb
 104 102 0 0 0
SMALL
GASTEIGER

@<TRIPOS>ATOM
      1  N         91.6580  -14.0740  -29.9220 N.3    93  PHE93      -0.1227
      2  CA        92.1600  -12.7520  -29.5690 C.3    93  PHE93       0.1736
      3  C         93.1700  -12.8610  -28.4340 C.2    93  PHE93       0.2595
      4  O         92.8720  -13.4490  -27.3890 O.2    93  PHE93      -0.2718
      5  CB        90.9980  -11.8430  -29.1560 C.3    93  PHE93       0.0547
      6  CG        91.3270  -10.3760  -29.1710 C.ar   93  PHE93      -0.0202
      7  CD1       91.2220   -9.6440  -30.3410 C.ar   93  PHE93      -0.0042
      8  CD2       91.7100   -9.7240  -28.0100 C.ar   93  PHE93      -0.0042
      9  CE1       91.5090   -8.2910  -30.3590 C.ar   93  PHE93      -0.0003
     10  CE2       91.9990   -8.3690  -28.0210 C.ar   93  PHE93      -0.0003
     11  CZ        91.8940   -7.6510  -29.1970 C.ar   93  PHE93      -0.0000
     12  N         94.3610  -12.2890  -28.6380 N.am   94  ASP94      -0.1960
     13  CA        95.3720  -12.2030  -27.5850 C.3    94  ASP94       0.1825
     14  C         96.3150  -11.0510  -27.9120 C.2    94  ASP94       0.2464
     15  O         96.8270  -10.9940  -29.0400 O.2    94  ASP94      -0.2730
     16  CB        96.1760  -13.4970  -27.4440 C.3    94  ASP94       0.1450
     17  CG        97.0770  -13.5000  -26.2160 C.2    94  ASP94       0.3671
     18  OD1       97.3380  -14.5960  -25.6760 O.co2  94  ASP94      -0.2456
     19  OD2       97.5230  -12.4140  -25.7880 O.co2  94  ASP94      -0.2456
     20  N         96.5650  -10.1330  -26.9760 N.am   95  PRO95      -0.2727
     21  CA        97.6020   -9.1150  -27.2070 C.3    95  PRO95       0.1402
     22  C         98.9880   -9.7440  -27.2380 C.2    95  PRO95       0.2269
     23  O         99.3310  -10.5610  -26.3800 O.2    95  PRO95      -0.2865
     24  CB        97.4440   -8.1650  -26.0120 C.3    95  PRO95       0.0296
     25  CG        96.0710   -8.4150  -25.4910 C.3    95  PRO95       0.0237
     26  CD        95.7980   -9.8610  -25.7480 C.3    95  PRO95       0.0939
     27  N        102.2210   -4.6500  -25.0470 N.3   135  LYS135     -0.1245
     28  CA       100.9360   -5.1920  -25.4530 C.3   135  LYS135      0.1561
     29  C         99.9560   -4.0370  -25.6310 C.2   135  LYS135      0.2260
     30  O         99.8480   -3.1850  -24.7400 O.2   135  LYS135     -0.2867
     31  CB       100.4030   -6.1700  -24.4090 C.3   135  LYS135      0.0271
     32  CG       101.4120   -7.1820  -23.8970 C.3   135  LYS135      0.0035
     33  CD       100.7600   -8.5420  -23.7010 C.3   135  LYS135      0.0206
     34  CE       101.4590   -9.3600  -22.6310 C.3   135  LYS135      0.1093
     35  NZ       100.7630  -10.6550  -22.4070 N.3   135  LYS135     -0.1314
     36  N         96.9760   -3.3750  -24.9620 N.3   137  VAL137     -0.1245
     37  CA        95.8030   -3.7570  -24.1860 C.3   137  VAL137      0.1561
     38  C         94.8690   -2.5600  -24.0850 C.2   137  VAL137      0.2260
     39  O         95.2490   -1.4970  -23.5800 O.2   137  VAL137     -0.2867
     40  CB        96.2000   -4.2700  -22.7970 C.3   137  VAL137      0.0252
     41  CG1       94.9750   -4.7940  -22.0610 C.3   137  VAL137      0.0019
     42  CG2       97.2480   -5.3550  -22.9160 C.3   137  VAL137      0.0019
     43  N         96.3290   -2.7780  -17.7270 N.3   144  LEU144     -0.1231
     44  CA        96.6010   -4.2050  -17.6780 C.3   144  LEU144      0.1693
     45  C         97.8070   -4.5500  -18.5380 C.2   144  LEU144      0.2592
     46  O         97.9820   -4.0070  -19.6330 O.2   144  LEU144     -0.2718
     47  CB        95.3800   -5.0020  -18.1500 C.3   144  LEU144      0.0284
     48  CG        94.0910   -4.7810  -17.3570 C.3   144  LEU144      0.0019
     49  CD1       92.9870   -5.6870  -17.8770 C.3   144  LEU144      0.0001
     50  CD2       94.3110   -5.0070  -15.8680 C.3   144  LEU144      0.0001
     51  N         98.6400   -5.4530  -18.0240 N.am  145  ASN145     -0.1974
     52  CA        99.6980   -6.0810  -18.8110 C.3   145  ASN145      0.1688
     53  C        100.6770   -5.0620  -19.3710 C.2   145  ASN145      0.2292
     54  O        101.0860   -5.1410  -20.5320 O.2   145  ASN145     -0.2864
     55  CB        99.1070   -6.9010  -19.9420 C.3   145  ASN145      0.1181
     56  CG        98.4840   -8.1450  -19.4640 C.2   145  ASN145      0.2629
     57  OD1       98.2850   -8.3540  -18.2660 O.2   145  ASN145     -0.2716
     58  ND2       98.1580   -8.9950  -20.3920 N.am  145  ASN145     -0.0877
     59  N         87.1500   -3.6900  -21.0900 N.3   242  PHE242     -0.1227
     60  CA        88.3160   -4.2680  -21.7440 C.3   242  PHE242      0.1736
     61  C         87.8110   -5.4360  -22.5770 C.2   242  PHE242      0.2595
     62  O         86.6410   -5.8210  -22.4850 O.2   242  PHE242     -0.2718
     63  CB        89.3630   -4.7280  -20.7260 C.3   242  PHE242      0.0547
     64  CG        88.8830   -5.8390  -19.8410 C.ar  242  PHE242     -0.0202
     65  CD1       89.3010   -7.1410  -20.0530 C.ar  242  PHE242     -0.0042
     66  CD2       87.9930   -5.5850  -18.8120 C.ar  242  PHE242     -0.0042
     67  CE1       88.8500   -8.1670  -19.2450 C.ar  242  PHE242     -0.0003
     68  CE2       87.5390   -6.6050  -18.0010 C.ar  242  PHE242     -0.0003
     69  CZ        87.9670   -7.8980  -18.2170 C.ar  242  PHE242     -0.0000
     70  N         88.7010   -6.0040  -23.3870 N.am  243  ASN243     -0.1960
     71  CA        88.3580   -7.1390  -24.2360 C.3   243  ASN243      0.1819
     72  C         89.2100   -8.3360  -23.8430 C.2   243  ASN243      0.2621
     73  O         90.4440   -8.2660  -23.8790 O.2   243  ASN243     -0.2715
     74  CB        88.5510   -6.8130  -25.7170 C.3   243  ASN243      0.1195
     75  CG        87.9750   -7.8840  -26.6230 C.2   243  ASN243      0.2630
     76  OD1       88.5910   -8.9280  -26.8390 O.2   243  ASN243     -0.2716
     77  ND2       86.7840   -7.6310  -27.1530 N.am  243  ASN243     -0.0877
     78  N         88.5470   -9.4290  -23.4730 N.am  244  CYS244     -0.1968
     79  CA        89.1970  -10.6870  -23.1210 C.3   244  CYS244      0.1712
     80  C         88.7360  -11.7550  -24.1030 C.2   244  CYS244      0.2296
     81  O         87.5660  -12.1530  -24.0900 O.2   244  CYS244     -0.2864
     82  CB        88.8640  -11.0930  -21.6860 C.3   244  CYS244      0.0983
     83  SG        89.3790  -12.7730  -21.2690 S.3   244  CYS244     -0.0798
     84  N         90.5970  -14.4720  -18.0580 N.3   297  CYS297     -0.1221
     85  CA        91.7700  -13.6320  -18.3020 C.3   297  CYS297      0.1808
     86  C         92.4230  -13.3000  -16.9640 C.2   297  CYS297      0.2601
     87  O         91.9540  -12.4160  -16.2400 O.2   297  CYS297     -0.2717
     88  CB        91.3950  -12.3620  -19.0560 C.3   297  CYS297      0.0970
     89  SG        91.3530  -12.5680  -20.8450 S.3   297  CYS297     -0.0800
     90  N         93.5000  -14.0120  -16.6390 N.am  298  LYS298     -0.1965
     91  CA        94.3770  -13.6150  -15.5440 C.3   298  LYS298      0.1728
     92  C         95.2470  -12.4660  -16.0380 C.2   298  LYS298      0.2616
     93  O         96.1240  -12.6640  -16.8840 O.2   298  LYS298     -0.2715
     94  CB        95.2380  -14.7860  -15.0780 C.3   298  LYS298      0.0311
     95  CG        94.4600  -16.0080  -14.6320 C.3   298  LYS298      0.0038
     96  CD        95.4020  -17.1020  -14.1600 C.3   298  LYS298      0.0206
     97  CE        94.6650  -18.4040  -13.9010 C.3   298  LYS298      0.1093
     98  NZ        95.5890  -19.4860  -13.4640 N.3   298  LYS298     -0.1314
     99  N         94.9980  -11.2650  -15.5260 N.am  299  SER299     -0.1950
    100  CA        95.7480  -10.0800  -15.9090 C.3   299  SER299      0.1924
    101  C         96.3650   -9.4410  -14.6720 C.2   299  SER299      0.2314
    102  O         95.9390   -9.6890  -13.5410 O.2   299  SER299     -0.2863
    103  CB        94.8500   -9.0680  -16.6360 C.3   299  SER299      0.2116
    104  OG        94.3830   -9.5950  -17.8670 O.3   299  SER299     -0.2180
@<TRIPOS>BOND
     1     9     7   ar
     2     9    11   ar
     3     7     6   ar
     4     1     2    1
     5     2     5    1
     6     2     3    1
     7    11    10   ar
     8     6     5    1
     9     6     8   ar
    10    15    14    2
    11    12     3   am
    12    12    13    1
    13     3     4    2
    14    10     8   ar
    15    14    13    1
    16    14    20   am
    17    13    16    1
    18    16    17    1
    19    22    21    1
    20    22    23    2
    21    21    20    1
    22    21    24    1
    23    77    75   am
    24    20    26    1
    25    76    75    2
    26    75    74    1
    27    17    19   ar
    28    17    18   ar
    29    24    25    1
    30    26    25    1
    31    74    71    1
    32    29    28    1
    33    29    30    2
    34    28    27    1
    35    28    31    1
    36    36    37    1
    37    31    32    1
    38    71    72    1
    39    71    70    1
    40    37    38    1
    41    37    40    1
    42    80    81    2
    43    80    79    1
    44    38    39    2
    45    32    33    1
    46    73    72    2
    47    72    78   am
    48    33    34    1
    49    78    79    1
    50    70    61   am
    51    79    82    1
    52    42    40    1
    53    40    41    1
    54    34    35    1
    55    61    62    2
    56    61    60    1
    57    60    59    1
    58    60    63    1
    59    82    83    1
    60    83    89    1
    61    89    88    1
    62    63    64    1
    63    54    53    2
    64    58    56   am
    65    65    64   ar
    66    65    67   ar
    67    55    56    1
    68    55    52    1
    69    64    66   ar
    70    46    45    2
    71    56    57    2
    72    53    52    1
    73    67    69   ar
    74    88    85    1
    75    66    68   ar
    76    52    51    1
    77    45    51   am
    78    45    44    1
    79    85    84    1
    80    85    86    1
    81    69    68   ar
    82    47    44    1
    83    47    48    1
    84    49    48    1
    85   104   103    1
    86    43    44    1
    87    48    50    1
    88    86    90   am
    89    86    87    2
    90    93    92    2
    91    90    91    1
    92   103   100    1
    93    92    91    1
    94    92    99   am
    95   100    99    1
    96   100   101    1
    97    91    94    1
    98    94    95    1
    99   101   102    2
   100    95    96    1
   101    96    97    1
   102    97    98    1
