@<TRIPOS>MOLECULE
tmp/5i9vA00.pdb
 165 156 0 0 0
SMALL
GASTEIGER

@<TRIPOS>ATOM
      1  N        149.4290   19.2810   84.7130 N.3    15  ILE15      -0.1231
      2  CA       149.5060   17.8320   84.5720 C.3    15  ILE15       0.1692
      3  C        149.4120   17.0990   85.9030 C.2    15  ILE15       0.2593
      4  O        149.5780   15.8800   85.9420 O.2    15  ILE15      -0.2718
      5  CB       150.7420   17.3670   83.7760 C.3    15  ILE15       0.0266
      6  CG1      152.0330   17.7550   84.5060 C.3    15  ILE15       0.0019
      7  CG2      150.6800   17.8760   82.3420 C.3    15  ILE15       0.0020
      8  CD1      153.2580   17.0560   83.9740 C.3    15  ILE15       0.0001
      9  N        149.1620   17.8050   86.9860 N.am   16  GLY16      -0.1942
     10  CA       149.0230   17.1700   88.2820 C.3    16  GLY16       0.2014
     11  C        149.4080   18.1260   89.3870 C.2    16  GLY16       0.2639
     12  O        150.0450   19.1520   89.1750 O.2    16  GLY16      -0.2714
     13  N        149.0060   17.7820   90.6060 N.am   17  ALA17      -0.1963
     14  CA       149.2910   18.6000   91.7730 C.3    17  ALA17       0.1728
     15  C        150.0950   17.7940   92.7830 C.2    17  ALA17       0.2617
     16  O        150.0100   16.5630   92.8310 O.2    17  ALA17      -0.2715
     17  CB       148.0020   19.1130   92.4240 C.3    17  ALA17       0.0334
     18  N        150.8810   18.4990   93.5880 N.am   18  GLY18      -0.1940
     19  CA       151.6980   17.8380   94.5840 C.3    18  GLY18       0.2014
     20  C        151.9020   18.6590   95.8380 C.2    18  GLY18       0.2639
     21  O        151.1440   19.5980   96.1060 O.2    18  GLY18      -0.2714
     22  N        152.9280   18.3020   96.6130 N.am   19  GLU19      -0.1963
     23  CA       153.2460   19.0180   97.8440 C.3    19  GLU19       0.1733
     24  C        153.4380   20.5040   97.5730 C.2    19  GLU19       0.2616
     25  O        152.6770   21.3480   98.0620 O.2    19  GLU19      -0.2715
     26  CB       154.5040   18.4060   98.4640 C.3    19  GLU19       0.0429
     27  CG       155.0560   19.1470   99.6650 C.3    19  GLU19       0.1163
     28  CD       156.4370   18.6510  100.0500 C.2    19  GLU19       0.3649
     29  OE1      157.0390   17.8970   99.2520 O.co2  19  GLU19      -0.2457
     30  OE2      156.9210   19.0110  101.1440 O.co2  19  GLU19      -0.2457
     31  N        154.4590   20.8410   96.7840 N.am   20  PHE20      -0.1974
     32  CA       154.6310   22.2030   96.2860 C.3    20  PHE20       0.1639
     33  C        153.7740   22.3310   95.0320 C.2    20  PHE20       0.2290
     34  O        154.2240   22.1110   93.9050 O.2    20  PHE20      -0.2864
     35  CB       156.0940   22.4900   95.9800 C.3    20  PHE20       0.0560
     36  CG       157.0520   21.9480   97.0050 C.ar   20  PHE20      -0.0200
     37  CD1      157.1510   22.5320   98.2590 C.ar   20  PHE20      -0.0042
     38  CD2      157.8700   20.8660   96.7000 C.ar   20  PHE20      -0.0042
     39  CE1      158.0390   22.0450   99.1950 C.ar   20  PHE20      -0.0003
     40  CE2      158.7620   20.3740   97.6270 C.ar   20  PHE20      -0.0003
     41  CZ       158.8500   20.9610   98.8790 C.ar   20  PHE20      -0.0000
     42  N        152.2800   21.2520   89.2890 N.3    23  VAL23      -0.1245
     43  CA       153.1510   20.6700   88.2640 C.3    23  VAL23       0.1561
     44  C        152.5760   20.9080   86.8690 C.2    23  VAL23       0.2260
     45  O        151.4510   20.4910   86.5770 O.2    23  VAL23      -0.2867
     46  CB       153.3510   19.1600   88.4870 C.3    23  VAL23       0.0252
     47  CG1      154.4130   18.6230   87.5380 C.3    23  VAL23       0.0019
     48  CG2      153.7100   18.8760   89.9380 C.3    23  VAL23       0.0019
     49  N        158.4870   18.4040   82.5720 N.3    40  ALA40      -0.1245
     50  CA       157.5910   18.6660   83.6830 C.3    40  ALA40       0.1562
     51  C        158.2330   19.7500   84.5290 C.2    40  ALA40       0.2260
     52  O        159.4610   19.8150   84.6410 O.2    40  ALA40      -0.2867
     53  CB       157.3820   17.4150   84.5370 C.3    40  ALA40       0.0290
     54  N        157.8880   21.6510   88.2450 N.3    42  LYS42      -0.1245
     55  CA       157.3700   21.7990   89.5980 C.3    42  LYS42       0.1561
     56  C        157.8060   23.1600   90.1120 C.2    42  LYS42       0.2260
     57  O        158.9590   23.5550   89.9250 O.2    42  LYS42      -0.2867
     58  CB       157.9230   20.7010   90.5080 C.3    42  LYS42       0.0271
     59  CG       157.5580   19.2890   90.0650 C.3    42  LYS42       0.0035
     60  CD       158.3100   18.2270   90.8570 C.3    42  LYS42       0.0206
     61  CE       157.9830   18.2970   92.3400 C.3    42  LYS42       0.1093
     62  NZ       158.6010   17.1660   93.0930 N.3    42  LYS42      -0.1314
     63  N        165.9150   18.0950   96.7160 N.3    59  GLU59      -0.1245
     64  CA       165.4420   17.0740   95.7880 C.3    59  GLU59       0.1567
     65  C        166.1470   17.1920   94.4430 C.2    59  GLU59       0.2260
     66  O        166.6000   16.1920   93.8700 O.2    59  GLU59      -0.2867
     67  CB       163.9360   17.2260   95.6120 C.3    59  GLU59       0.0388
     68  CG       163.2940   16.2040   94.7220 C.3    59  GLU59       0.1160
     69  CD       161.7850   16.3440   94.7170 C.2    59  GLU59       0.3649
     70  OE1      161.2180   16.6730   95.7840 O.co2  59  GLU59      -0.2457
     71  OE2      161.1700   16.1400   93.6490 O.co2  59  GLU59      -0.2457
     72  N        164.4480    9.4220   86.8520 N.3    72  ILE72      -0.1245
     73  CA       163.9890   10.6270   86.1710 C.3    72  ILE72       0.1561
     74  C        165.1530   11.6000   85.9940 C.2    72  ILE72       0.2260
     75  O        165.9130   11.8650   86.9350 O.2    72  ILE72      -0.2867
     76  CB       162.8270   11.2430   86.9730 C.3    72  ILE72       0.0252
     77  CG1      162.1430   12.3590   86.1940 C.3    72  ILE72       0.0019
     78  CG2      163.2660   11.6730   88.3460 C.3    72  ILE72       0.0019
     79  CD1      161.2500   11.8110   85.1070 C.3    72  ILE72       0.0001
     80  N        162.1580   18.6440   84.9200 N.3    88  THR88      -0.1203
     81  CA       162.5280   17.2510   84.6970 C.3    88  THR88       0.1994
     82  C        162.0050   16.7600   83.3550 C.2    88  THR88       0.2618
     83  O        161.1260   17.3680   82.7440 O.2    88  THR88      -0.2717
     84  CB       161.9890   16.3570   85.8190 C.3    88  THR88       0.1784
     85  OG1      160.5660   16.4920   85.8860 O.3    88  THR88      -0.2211
     86  CG2      162.5960   16.7680   87.1480 C.3    88  THR88       0.0376
     87  N        162.5260   15.6120   82.9090 N.am   89  GLU89      -0.1965
     88  CA       162.0080   15.0200   81.6780 C.3    89  GLU89       0.1733
     89  C        160.5220   14.6940   81.8290 C.2    89  GLU89       0.2616
     90  O        160.0660   14.2480   82.8860 O.2    89  GLU89      -0.2715
     91  CB       162.8000   13.7700   81.2690 C.3    89  GLU89       0.0429
     92  CG       162.5480   12.5690   82.1280 C.3    89  GLU89       0.1163
     93  CD       163.3570   11.3310   81.7500 C.2    89  GLU89       0.3649
     94  OE1      163.2330   10.8190   80.6170 O.co2  89  GLU89      -0.2457
     95  OE2      164.1210   10.8780   82.6180 O.co2  89  GLU89      -0.2457
     96  N        159.7600   14.9440   80.7660 N.am   90  TYR90      -0.1960
     97  CA       158.3190   14.7340   80.8020 C.3    90  TYR90       0.1771
     98  C        157.9950   13.2510   80.6370 C.2    90  TYR90       0.2619
     99  O        158.4860   12.5940   79.7160 O.2    90  TYR90      -0.2715
    100  CB       157.6370   15.5400   79.6960 C.3    90  TYR90       0.0574
    101  CG       156.1380   15.3780   79.6740 C.ar   90  TYR90      -0.0198
    102  CD1      155.3740   15.6880   80.7880 C.ar   90  TYR90      -0.0009
    103  CD2      155.4810   14.9340   78.5320 C.ar   90  TYR90      -0.0009
    104  CE1      153.9930   15.5410   80.7780 C.ar   90  TYR90       0.0417
    105  CE2      154.0940   14.7840   78.5180 C.ar   90  TYR90       0.0417
    106  CZ       153.3640   15.0960   79.6390 C.ar   90  TYR90       0.1957
    107  OH       151.9880   14.9590   79.6270 O.3    90  TYR90      -0.2866
    108  N        157.1430   12.7400   81.5150 N.am   91  MET91      -0.1977
    109  CA       156.7200   11.3390   81.4880 C.3    91  MET91       0.1605
    110  C        155.2300   11.3230   81.1660 C.2    91  MET91       0.2287
    111  O        154.3990   11.5910   82.0410 O.2    91  MET91      -0.2864
    112  CB       157.0420   10.6850   82.8250 C.3    91  MET91       0.0413
    113  CG       158.5330   10.7990   83.1600 C.3    91  MET91       0.0598
    114  SD       159.5890    9.7440   82.1280 S.3    91  MET91      -0.1393
    115  CE       159.2420    8.1280   82.8460 C.3    91  MET91       0.0692
    116  N        152.4910    9.6630   83.3940 N.3    94  GLY94      -0.1210
    117  CA       152.3730   10.0810   84.7790 C.3    94  GLY94       0.1956
    118  C        152.7170    8.9710   85.7560 C.2    94  GLY94       0.2611
    119  O        153.5210    8.0730   85.4710 O.2    94  GLY94      -0.2717
    120  N        152.0750    9.0200   86.9260 N.am   95  ALA95      -0.1979
    121  CA       152.3920    8.0910   87.9940 C.3    95  ALA95       0.1597
    122  C        151.9130    6.6890   87.6600 C.2    95  ALA95       0.2287
    123  O        150.8240    6.4900   87.1090 O.2    95  ALA95      -0.2864
    124  CB       151.7580    8.5650   89.3040 C.3    95  ALA95       0.0319
    125  N        153.2240    5.1040   93.3270 N.3   139  ARG139     -0.1231
    126  CA       152.8840    6.5090   93.1420 C.3   139  ARG139      0.1694
    127  C        154.1060    7.3890   92.9200 C.2   139  ARG139      0.2592
    128  O        153.9480    8.5310   92.4750 O.2   139  ARG139     -0.2718
    129  CB       152.1180    7.0350   94.3530 C.3   139  ARG139      0.0321
    130  CG       152.9820    7.2740   95.5700 C.3   139  ARG139      0.0489
    131  CD       152.2300    8.0460   96.6610 C.3   139  ARG139      0.2205
    132  NE       153.0710    8.2460   97.8380 N.pl3 139  ARG139     -0.0865
    133  CZ       153.8450    9.3090   98.0370 C.cat 139  ARG139      0.5346
    134  NH1      153.8840   10.2830   97.1400 N.pl3 139  ARG139      0.1354
    135  NH2      154.5800    9.3990   99.1360 N.pl3 139  ARG139      0.1354
    136  N        155.3080    6.8880   93.2080 N.am  140  ASN140     -0.1974
    137  CA       156.5470    7.6340   93.0040 C.3   140  ASN140      0.1688
    138  C        157.3770    7.0900   91.8460 C.2   140  ASN140      0.2292
    139  O        158.5750    7.3940   91.7410 O.2   140  ASN140     -0.2864
    140  CB       157.3570    7.7060   94.2980 C.3   140  ASN140      0.1181
    141  CG       156.7070    8.6100   95.3190 C.2   140  ASN140      0.2629
    142  OD1      156.0710    9.5900   94.9510 O.2   140  ASN140     -0.2716
    143  ND2      156.8560    8.2860   96.5960 N.am  140  ASN140     -0.0877
    144  N        157.3160    7.0420   87.6510 N.3   142  LEU142     -0.1245
    145  CA       156.6970    7.6600   86.4880 C.3   142  LEU142      0.1561
    146  C        156.8790    6.7950   85.2480 C.2   142  LEU142      0.2260
    147  O        157.8340    6.0170   85.1460 O.2   142  LEU142     -0.2867
    148  CB       157.2460    9.0640   86.2260 C.3   142  LEU142      0.0270
    149  CG       157.0000   10.0790   87.3480 C.3   142  LEU142      0.0019
    150  CD1      157.8420   11.3450   87.1470 C.3   142  LEU142      0.0001
    151  CD2      155.5250   10.4260   87.3970 C.3   142  LEU142      0.0001
    152  N        161.1930    8.3010   90.7710 N.3   152  SER152     -0.1202
    153  CA       161.1000    9.7430   90.9140 C.3   152  SER152      0.2020
    154  C        160.8150   10.0640   92.3760 C.2   152  SER152      0.2618
    155  O        160.8440    9.1860   93.2450 O.2   152  SER152     -0.2717
    156  CB       160.0240   10.2950   89.9740 C.3   152  SER152      0.2103
    157  OG       158.7390    9.9580   90.4600 O.3   152  SER152     -0.2182
    158  N        160.5300   11.3420   92.6340 N.am  153  ASP153     -0.1973
    159  CA       160.1450   11.8570   93.9530 C.3   153  ASP153      0.1709
    160  C        161.2000   11.5530   95.0210 C.2   153  ASP153      0.2293
    161  O        161.0280   10.7060   95.9040 O.2   153  ASP153     -0.2864
    162  CB       158.7390   11.4240   94.3850 C.3   153  ASP153      0.1436
    163  CG       158.1960   12.2970   95.5060 C.2   153  ASP153      0.3671
    164  OD1      158.9820   13.0920   96.0680 O.co2 153  ASP153     -0.2456
    165  OD2      157.0010   12.1760   95.8460 O.co2 153  ASP153     -0.2456
@<TRIPOS>BOND
     1   105   103   ar
     2   105   106   ar
     3   103   101   ar
     4   107   106    1
     5   106   104   ar
     6   101   100    1
     7   101   102   ar
     8   100    97    1
     9    99    98    2
    10    94    93   ar
    11    98    97    1
    12    98   108   am
    13    96    97    1
    14    96    89   am
    15   104   102   ar
    16   110   109    1
    17   110   111    2
    18    91    88    1
    19    91    92    1
    20   109   108    1
    21   109   112    1
    22    88    89    1
    23    88    87    1
    24    93    92    1
    25    93    95   ar
    26    89    90    2
    27   114   115    1
    28   114   113    1
    29     7     5    1
    30    49    50    1
    31    83    82    2
    32   112   113    1
    33    87    82   am
    34    82    81    1
    35   116   117    1
    36    50    51    1
    37    50    53    1
    38     5     6    1
    39     5     2    1
    40     8     6    1
    41    51    52    2
    42     2     1    1
    43     2     3    1
    44    81    80    1
    45    81    84    1
    46   117   118    1
    47    79    77    1
    48   147   146    2
    49   146   145    1
    50   119   118    2
    51   118   120   am
    52    84    85    1
    53    84    86    1
    54     3     4    2
    55     3     9   am
    56    74    73    1
    57    74    75    2
    58    73    72    1
    59    73    76    1
    60    77    76    1
    61   148   145    1
    62   148   149    1
    63   145   144    1
    64    45    44    2
    65    44    43    1
    66   120   121    1
    67    76    78    1
    68     9    10    1
    69   123   122    2
    70   150   149    1
    71   149   151    1
    72    47    46    1
    73   122   121    1
    74   121   124    1
    75    54    55    1
    76    43    46    1
    77    43    42    1
    78    10    11    1
    79    46    48    1
    80    12    11    2
    81    11    13   am
    82    55    56    1
    83    55    58    1
    84    57    56    2
    85   156   157    1
    86   156   153    1
    87    59    58    1
    88    59    60    1
    89    13    14    1
    90   152   153    1
    91    60    61    1
    92   153   154    1
    93   139   138    2
    94    14    17    1
    95    14    15    1
    96   138   137    1
    97    61    62    1
    98   154   158   am
    99   154   155    2
   100   128   127    2
   101   158   159    1
   102    15    16    2
   103    15    18   am
   104   127   126    1
   105   127   136   am
   106   137   136    1
   107   137   140    1
   108   126   125    1
   109   126   129    1
   110    18    19    1
   111    71    69   ar
   112    66    65    2
   113    34    33    2
   114   159   162    1
   115   159   160    1
   116   140   141    1
   117   129   130    1
   118   162   163    1
   119    65    64    1
   120    19    20    1
   121    69    68    1
   122    69    70   ar
   123    68    67    1
   124   142   141    2
   125   160   161    2
   126    33    32    1
   127   141   143   am
   128   163   165   ar
   129   163   164   ar
   130   130   131    1
   131    67    64    1
   132    64    63    1
   133    20    21    2
   134    20    22   am
   135    35    32    1
   136    35    36    1
   137    32    31    1
   138    22    23    1
   139   131   132    1
   140    38    36   ar
   141    38    40   ar
   142    31    24   am
   143    36    37   ar
   144   134   133    1
   145    24    23    1
   146    24    25    2
   147    40    41   ar
   148   132   133    2
   149    23    26    1
   150   133   135    1
   151    37    39   ar
   152    26    27    1
   153    41    39   ar
   154    29    28   ar
   155    27    28    1
   156    28    30   ar
