@<TRIPOS>MOLECULE
tmp/5i9xA00.pdb
 195 182 0 0 0
SMALL
GASTEIGER

@<TRIPOS>ATOM
      1  N        -82.6220  -23.5470    1.9260 N.3    14  LYS14      -0.1245
      2  CA       -81.4680  -22.9970    2.6240 C.3    14  LYS14       0.1561
      3  C        -81.8940  -22.5430    4.0090 C.2    14  LYS14       0.2260
      4  O        -82.9180  -21.8690    4.1490 O.2    14  LYS14      -0.2867
      5  CB       -80.9050  -21.8080    1.8380 C.3    14  LYS14       0.0271
      6  CG       -79.8460  -21.0020    2.5730 C.3    14  LYS14       0.0035
      7  CD       -79.4460  -19.7730    1.7670 C.3    14  LYS14       0.0206
      8  CE       -78.3650  -18.9700    2.4700 C.3    14  LYS14       0.1093
      9  NZ       -77.9490  -17.7910    1.6640 N.3    14  LYS14      -0.1314
     10  N        -81.9560  -20.1370    6.9370 N.3    16  ILE16      -0.1231
     11  CA       -81.7500  -18.7030    7.1140 C.3    16  ILE16       0.1692
     12  C        -81.8910  -18.2590    8.5600 C.2    16  ILE16       0.2592
     13  O        -81.5330  -17.1150    8.8830 O.2    16  ILE16      -0.2718
     14  CB       -82.6800  -17.8740    6.2030 C.3    16  ILE16       0.0266
     15  CG1      -84.1530  -18.1780    6.5080 C.3    16  ILE16       0.0019
     16  CG2      -82.3750  -18.1650    4.7430 C.3    16  ILE16       0.0020
     17  CD1      -85.1490  -17.4240    5.6270 C.3    16  ILE16       0.0001
     18  N        -82.4160  -19.1120    9.4260 N.am   17  GLY17      -0.1957
     19  CA       -82.5200  -18.8230   10.8420 C.3    17  GLY17       0.1869
     20  C        -82.6060  -20.1390   11.5660 C.2    17  GLY17       0.2309
     21  O        -83.0440  -21.1460   11.0000 O.2    17  GLY17      -0.2863
     22  N        -85.6480  -21.8950   10.4190 N.3    24  VAL24      -0.1245
     23  CA       -86.3390  -21.1440    9.3810 C.3    24  VAL24       0.1561
     24  C        -85.5520  -21.3140    8.0930 C.2    24  VAL24       0.2260
     25  O        -84.3190  -21.1920    8.0940 O.2    24  VAL24      -0.2867
     26  CB       -86.4750  -19.6580    9.7560 C.3    24  VAL24       0.0252
     27  CG1      -87.1860  -18.8970    8.6340 C.3    24  VAL24       0.0019
     28  CG2      -87.2240  -19.5190   11.0760 C.3    24  VAL24       0.0019
     29  N        -90.9170  -18.3450    3.1560 N.3    36  ALA36      -0.1231
     30  CA       -90.1820  -18.7230    4.3540 C.3    36  ALA36       0.1694
     31  C        -90.8810  -19.9130    4.9920 C.2    36  ALA36       0.2592
     32  O        -92.1130  -20.0130    4.9630 O.2    36  ALA36      -0.2718
     33  CB       -90.0850  -17.5610    5.3490 C.3    36  ALA36       0.0304
     34  N        -90.0880  -20.8190    5.5610 N.am   37  ILE37      -0.1966
     35  CA       -90.5800  -22.0770    6.1100 C.3    37  ILE37       0.1727
     36  C        -89.9770  -22.2430    7.4970 C.2    37  ILE37       0.2616
     37  O        -88.7520  -22.2990    7.6340 O.2    37  ILE37      -0.2715
     38  CB       -90.1660  -23.2620    5.2200 C.3    37  ILE37       0.0290
     39  CG1      -90.7330  -23.1020    3.8090 C.3    37  ILE37       0.0022
     40  CG2      -90.5930  -24.5870    5.8440 C.3    37  ILE37       0.0023
     41  CD1      -89.9240  -23.8260    2.7360 C.3    37  ILE37       0.0001
     42  N        -90.8250  -22.3510    8.5050 N.am   38  LYS38      -0.1977
     43  CA       -90.3730  -22.5440    9.8690 C.3    38  LYS38       0.1596
     44  C        -90.7830  -23.9370   10.3250 C.2    38  LYS38       0.2287
     45  O        -91.8970  -24.2610   10.2200 O.2    38  LYS38      -0.2864
     46  CB       -90.9540  -21.5120   10.8390 C.3    38  LYS38       0.0298
     47  CG       -90.4060  -21.6320   12.2380 C.3    38  LYS38       0.0038
     48  CD       -90.8770  -20.4810   13.1250 C.3    38  LYS38       0.0206
     49  CE       -90.4910  -20.7430   14.5400 C.3    38  LYS38       0.1093
     50  NZ       -91.3890  -20.0720   15.5320 N.3    38  LYS38      -0.1314
     51  N        -98.7450  -19.3370   16.6310 N.3    55  GLU55      -0.1245
     52  CA       -98.2130  -18.2680   15.7990 C.3    55  GLU55       0.1567
     53  C        -98.9260  -18.2360   14.4580 C.2    55  GLU55       0.2260
     54  O        -99.3310  -17.1690   13.9850 O.2    55  GLU55      -0.2867
     55  CB       -96.6960  -18.4010   15.6140 C.3    55  GLU55       0.0388
     56  CG       -96.1390  -17.3610   14.6430 C.3    55  GLU55       0.1160
     57  CD       -94.6560  -17.0860   14.8160 C.2    55  GLU55       0.3649
     58  OE1      -93.9340  -17.9910   15.2610 O.co2  55  GLU55      -0.2457
     59  OE2      -94.2210  -15.9490   14.5020 O.co2  55  GLU55      -0.2457
     60  N       -101.5020  -15.2950   12.9150 N.3    59  MET59      -0.1245
     61  CA      -101.2370  -14.6860   11.6130 C.3    59  MET59       0.1570
     62  C       -102.3740  -14.9360   10.6360 C.2    59  MET59       0.2261
     63  O       -102.6620  -14.0850    9.7840 O.2    59  MET59      -0.2867
     64  CB       -99.9400  -15.2410   11.0390 C.3    59  MET59       0.0387
     65  CG       -98.7750  -15.0420   11.9530 C.3    59  MET59       0.0595
     66  SD       -97.3410  -15.9390   11.3670 S.3    59  MET59      -0.1393
     67  CE       -97.0200  -15.0150    9.8920 C.3    59  MET59       0.0692
     68  N        -97.0810   -9.8370    7.9850 N.3    68  ILE68      -0.1245
     69  CA       -96.6720  -11.0170    7.2210 C.3    68  ILE68       0.1561
     70  C        -97.8710  -11.8920    6.8740 C.2    68  ILE68       0.2260
     71  O        -98.6740  -12.2470    7.7480 O.2    68  ILE68      -0.2867
     72  CB       -95.6300  -11.8370    8.0030 C.3    68  ILE68       0.0252
     73  CG1      -94.3330  -11.0580    8.2090 C.3    68  ILE68       0.0019
     74  CG2      -95.3580  -13.1490    7.2600 C.3    68  ILE68       0.0019
     75  CD1      -93.5310  -10.8450    6.9380 C.3    68  ILE68       0.0001
     76  N        -94.6690  -23.9940    9.2930 N.3    82  ILE82      -0.1245
     77  CA       -95.4320  -22.8010    8.9580 C.3    82  ILE82       0.1561
     78  C        -94.8080  -22.2200    7.7040 C.2    82  ILE82       0.2260
     79  O        -93.5760  -22.1510    7.5940 O.2    82  ILE82      -0.2867
     80  CB       -95.3820  -21.7800   10.1090 C.3    82  ILE82       0.0252
     81  CG1      -95.9700  -22.3860   11.3830 C.3    82  ILE82       0.0019
     82  CG2      -96.1430  -20.5230    9.7180 C.3    82  ILE82       0.0019
     83  CD1      -95.7370  -21.5450   12.6100 C.3    82  ILE82       0.0001
     84  N        -94.8760  -18.9260    5.1100 N.3    84  THR84      -0.1203
     85  CA       -95.2750  -17.5310    4.9820 C.3    84  THR84       0.1994
     86  C        -94.7010  -16.9580    3.7000 C.2    84  THR84       0.2618
     87  O        -93.8200  -17.5480    3.0680 O.2    84  THR84      -0.2717
     88  CB       -94.7610  -16.6720    6.1490 C.3    84  THR84       0.1784
     89  OG1      -93.3380  -16.5350    6.0520 O.3    84  THR84      -0.2211
     90  CG2      -95.1320  -17.2760    7.4860 C.3    84  THR84       0.0376
     91  N        -95.1690  -15.7640    3.3470 N.am   85  GLU85      -0.1965
     92  CA       -94.4880  -15.0160    2.3020 C.3    85  GLU85       0.1733
     93  C        -93.0270  -14.8070    2.6850 C.2    85  GLU85       0.2616
     94  O        -92.6670  -14.7600    3.8670 O.2    85  GLU85      -0.2715
     95  CB       -95.1670  -13.6680    2.0700 C.3    85  GLU85       0.0429
     96  CG       -94.9260  -12.6470    3.1530 C.3    85  GLU85       0.1163
     97  CD       -95.6360  -11.3320    2.8760 C.2    85  GLU85       0.3649
     98  OE1      -95.3690  -10.6940    1.8370 O.co2  85  GLU85      -0.2457
     99  OE2      -96.4790  -10.9380    3.6920 O.co2  85  GLU85      -0.2457
    100  N        -92.1760  -14.7110    1.6730 N.am   86  TYR86      -0.1960
    101  CA       -90.7400  -14.5880    1.8620 C.3    86  TYR86       0.1771
    102  C        -90.3490  -13.1220    1.7920 C.2    86  TYR86       0.2619
    103  O        -90.7130  -12.4210    0.8440 O.2    86  TYR86      -0.2715
    104  CB       -90.0030  -15.3570    0.7700 C.3    86  TYR86       0.0574
    105  CG       -88.5200  -15.3480    0.9630 C.ar   86  TYR86      -0.0198
    106  CD1      -87.9500  -15.9130    2.0900 C.ar   86  TYR86      -0.0009
    107  CD2      -87.6810  -14.7730    0.0180 C.ar   86  TYR86      -0.0009
    108  CE1      -86.5910  -15.9090    2.2730 C.ar   86  TYR86       0.0417
    109  CE2      -86.3210  -14.7640    0.1920 C.ar   86  TYR86       0.0417
    110  CZ       -85.7800  -15.3300    1.3220 C.ar   86  TYR86       0.1957
    111  OH       -84.4230  -15.3270    1.5020 O.3    86  TYR86      -0.2866
    112  N        -89.6150  -12.6580    2.7930 N.am   87  MET87      -0.1963
    113  CA       -89.1830  -11.2630    2.8410 C.3    87  MET87       0.1736
    114  C        -87.6990  -11.2230    2.4780 C.2    87  MET87       0.2616
    115  O        -86.8330  -11.5060    3.3110 O.2    87  MET87      -0.2715
    116  CB       -89.4720  -10.6810    4.2200 C.3    87  MET87       0.0427
    117  CG       -90.9530  -10.7960    4.5860 C.3    87  MET87       0.0599
    118  SD       -92.0190   -9.7470    3.5790 S.3    87  MET87      -0.1393
    119  CE       -91.6440   -8.1560    4.3020 C.3    87  MET87       0.0692
    120  N        -87.4160  -10.8460    1.2260 N.am   88  GLU88      -0.1963
    121  CA       -86.0980  -11.0860    0.6370 C.3    88  GLU88       0.1733
    122  C        -84.9710  -10.4080    1.4070 C.2    88  GLU88       0.2616
    123  O        -83.8470  -10.9330    1.4570 O.2    88  GLU88      -0.2715
    124  CB       -86.0960  -10.6070   -0.8180 C.3    88  GLU88       0.0429
    125  CG       -87.0550  -11.3770   -1.7390 C.3    88  GLU88       0.1163
    126  CD       -88.4110  -10.7030   -1.9320 C.2    88  GLU88       0.3649
    127  OE1      -88.9180  -10.0350   -1.0000 O.co2  88  GLU88      -0.2457
    128  OE2      -88.9820  -10.8570   -3.0340 O.co2  88  GLU88      -0.2457
    129  N        -85.2360   -9.2490    2.0020 N.am   89  ASN89      -0.1958
    130  CA       -84.2030   -8.4740    2.6700 C.3    89  ASN89       0.1819
    131  C        -84.1050   -8.7450    4.1660 C.2    89  ASN89       0.2622
    132  O        -83.2310   -8.1740    4.8240 O.2    89  ASN89      -0.2715
    133  CB       -84.3860   -6.9830    2.3790 C.3    89  ASN89       0.1195
    134  CG       -84.1120   -6.6530    0.9210 C.2    89  ASN89       0.2630
    135  OD1      -84.9810   -6.1430    0.1980 O.2    89  ASN89      -0.2716
    136  ND2      -82.9170   -6.9730    0.4760 N.am   89  ASN89      -0.0877
    137  N        -84.9530   -9.6210    4.7040 N.am   90  GLY90      -0.1940
    138  CA       -84.7920  -10.0740    6.0780 C.3    90  GLY90       0.2014
    139  C        -85.1180   -9.0100    7.1130 C.2    90  GLY90       0.2638
    140  O        -85.8910   -8.0820    6.8830 O.2    90  GLY90      -0.2714
    141  N        -84.4790   -9.1510    8.2700 N.am   91  ALA91      -0.1977
    142  CA       -84.8030   -8.3070    9.4120 C.3    91  ALA91       0.1597
    143  C        -84.2930   -6.8850    9.2180 C.2    91  ALA91       0.2287
    144  O        -83.1740   -6.6610    8.7400 O.2    91  ALA91      -0.2864
    145  CB       -84.1960   -8.9080   10.6790 C.3    91  ALA91       0.0319
    146  N        -76.3530   -3.0440    7.4650 N.3    98  GLU98      -0.1245
    147  CA       -75.6210   -3.4590    6.2810 C.3    98  GLU98       0.1567
    148  C        -75.7380   -2.4680    5.1400 C.2    98  GLU98       0.2260
    149  O        -74.9960   -2.5850    4.1590 O.2    98  GLU98      -0.2867
    150  CB       -76.0890   -4.8560    5.8540 C.3    98  GLU98       0.0388
    151  CG       -75.7890   -5.8570    6.9550 C.3    98  GLU98       0.1160
    152  CD       -76.1820   -7.2760    6.6580 C.2    98  GLU98       0.3649
    153  OE1      -76.8780   -7.5200    5.6550 O.co2  98  GLU98      -0.2457
    154  OE2      -75.7700   -8.1550    7.4460 O.co2  98  GLU98      -0.2457
    155  N        -87.7570   -7.4120   14.6200 N.3   136  ASN136     -0.1240
    156  CA       -88.9870   -8.1330   14.3080 C.3   136  ASN136      0.1653
    157  C        -89.7860   -7.5250   13.1550 C.2   136  ASN136      0.2266
    158  O        -90.9360   -7.9330   12.9170 O.2   136  ASN136     -0.2867
    159  CB       -89.8390   -8.2780   15.5640 C.3   136  ASN136      0.1155
    160  CG       -89.2780   -9.3130   16.5010 C.2   136  ASN136      0.2627
    161  OD1      -88.7000  -10.3160   16.0610 O.2   136  ASN136     -0.2716
    162  ND2      -89.4150   -9.0770   17.7990 N.am  136  ASN136     -0.0877
    163  N        -89.6900   -7.1850    9.0580 N.3   138  LEU138     -0.1245
    164  CA       -89.0560   -7.7940    7.9020 C.3   138  LEU138      0.1561
    165  C        -89.2810   -6.9130    6.6840 C.2   138  LEU138      0.2260
    166  O        -90.2570   -6.1560    6.6170 O.2   138  LEU138     -0.2867
    167  CB       -89.5930   -9.2090    7.6480 C.3   138  LEU138      0.0270
    168  CG       -89.3940  -10.1370    8.8510 C.3   138  LEU138      0.0019
    169  CD1      -90.0280  -11.4820    8.5980 C.3   138  LEU138      0.0001
    170  CD2      -87.9180  -10.2940    9.2000 C.3   138  LEU138      0.0001
    171  N        -93.6120   -8.9470   12.0490 N.3   148  SER148     -0.1202
    172  CA       -93.4900  -10.3950   12.1780 C.3   148  SER148      0.2020
    173  C        -93.4000  -10.7580   13.6550 C.2   148  SER148      0.2618
    174  O        -93.3810   -9.8900   14.5260 O.2   148  SER148     -0.2717
    175  CB       -92.2500  -10.9210   11.4460 C.3   148  SER148      0.2103
    176  OG       -91.0690  -10.4740   12.0870 O.3   148  SER148     -0.2182
    177  N        -93.3320  -12.0680   13.9180 N.am  149  ASP149     -0.1973
    178  CA       -93.0880  -12.6410   15.2430 C.3   149  ASP149      0.1709
    179  C        -94.3330  -12.5810   16.1160 C.2   149  ASP149      0.2293
    180  O        -94.4550  -11.7080   16.9850 O.2   149  ASP149     -0.2864
    181  CB       -91.8870  -11.9920   15.9420 C.3   149  ASP149      0.1436
    182  CG       -91.4470  -12.7570   17.1770 C.2   149  ASP149      0.3671
    183  OD1      -91.9470  -13.8790   17.3930 O.co2 149  ASP149     -0.2456
    184  OD2      -90.5850  -12.2420   17.9180 O.co2 149  ASP149     -0.2456
    185  N        -94.5350  -17.4320   23.6220 N.3   154  ARG154     -0.1245
    186  CA       -93.3550  -17.7690   22.8330 C.3   154  ARG154      0.1563
    187  C        -92.6130  -16.5380   22.3320 C.2   154  ARG154      0.2260
    188  O        -91.4090  -16.6230   22.0700 O.2   154  ARG154     -0.2867
    189  CB       -93.7240  -18.6740   21.6510 C.3   154  ARG154      0.0307
    190  CG       -94.6480  -18.0310   20.6180 C.3   154  ARG154      0.0489
    191  CD       -94.3420  -18.5520   19.2170 C.3   154  ARG154      0.2205
    192  NE       -92.9480  -18.2980   18.8690 N.pl3 154  ARG154     -0.0865
    193  CZ       -92.5060  -17.1580   18.3480 C.cat 154  ARG154      0.5346
    194  NH1      -93.3540  -16.1670   18.0930 N.pl3 154  ARG154      0.1354
    195  NH2      -91.2150  -17.0080   18.0820 N.pl3 154  ARG154      0.1354
@<TRIPOS>BOND
     1   128   126   ar
     2   126   125    1
     3   126   127   ar
     4   125   124    1
     5   124   121    1
     6   107   109   ar
     7   107   105   ar
     8   109   110   ar
     9   135   134    2
    10   136   134   am
    11   121   120    1
    12   121   122    1
    13   104   105    1
    14   104   101    1
    15   103   102    2
    16   134   133    1
    17   105   106   ar
    18   120   114   am
    19   110   111    1
    20   110   108   ar
    21   122   123    2
    22   122   129   am
    23     9     8    1
    24   100   101    1
    25   100    93   am
    26     7     8    1
    27     7     6    1
    28   102   101    1
    29   102   112   am
    30    98    97   ar
    31     5     6    1
    32     5     2    1
    33     1     2    1
    34   129   130    1
    35    95    92    1
    36    95    96    1
    37   106   108   ar
    38    92    93    1
    39    92    91    1
    40   133   130    1
    41   114   113    1
    42   114   115    2
    43     2     3    1
    44   130   131    1
    45    93    94    2
    46    41    39    1
    47   112   113    1
    48   113   116    1
    49    97    96    1
    50    97    99   ar
    51    87    86    2
    52    29    30    1
    53    91    86   am
    54   118   119    1
    55   118   117    1
    56    86    85    1
    57    39    38    1
    58     3     4    2
    59   149   148    2
    60   131   137   am
    61   131   132    2
    62   116   117    1
    63    30    31    1
    64    30    33    1
    65   137   138    1
    66    16    14    1
    67    32    31    2
    68    85    84    1
    69    85    88    1
    70    31    34   am
    71   148   147    1
    72    38    40    1
    73    38    35    1
    74    34    35    1
    75    17    15    1
    76   153   152   ar
    77   150   147    1
    78   150   151    1
    79    89    88    1
    80   138   139    1
    81    35    36    1
    82    88    90    1
    83    14    15    1
    84    14    11    1
    85   147   146    1
    86   166   165    2
    87   152   151    1
    88   152   154   ar
    89   165   164    1
    90    70    69    1
    91    70    71    2
    92   140   139    2
    93    10    11    1
    94    75    73    1
    95   139   141   am
    96    11    12    1
    97    69    68    1
    98    69    72    1
    99    74    72    1
   100    36    37    2
   101    36    42   am
   102    79    78    2
   103   167   164    1
   104   167   168    1
   105    78    77    1
   106   164   163    1
   107    72    73    1
   108    24    25    2
   109    24    23    1
   110   141   142    1
   111    42    43    1
   112    12    13    2
   113    12    18   am
   114   169   168    1
   115    27    26    1
   116   144   143    2
   117   168   170    1
   118    77    76    1
   119    77    80    1
   120   143   142    1
   121    23    26    1
   122    23    22    1
   123   142   145    1
   124    18    19    1
   125    82    80    1
   126    26    28    1
   127    63    62    2
   128    43    44    1
   129    43    46    1
   130    67    66    1
   131    80    81    1
   132    45    44    2
   133    62    61    1
   134    46    47    1
   135    19    20    1
   136    21    20    2
   137    64    61    1
   138    64    65    1
   139    66    65    1
   140    81    83    1
   141   175   176    1
   142   175   172    1
   143    61    60    1
   144   171   172    1
   145   172   173    1
   146    47    48    1
   147   158   157    2
   148    48    49    1
   149   157   156    1
   150   173   177   am
   151   173   174    2
   152   177   178    1
   153    54    53    2
   154   156   155    1
   155   156   159    1
   156    53    52    1
   157    59    57   ar
   158    49    50    1
   159    56    57    1
   160    56    55    1
   161    57    58   ar
   162   178   181    1
   163   178   179    1
   164   159   160    1
   165    55    52    1
   166    52    51    1
   167   181   182    1
   168   161   160    2
   169   179   180    2
   170   160   162   am
   171   182   183   ar
   172   182   184   ar
   173   195   193    1
   174   194   193    1
   175   193   192    2
   176   192   191    1
   177   191   190    1
   178   190   189    1
   179   189   186    1
   180   188   187    2
   181   187   186    1
   182   186   185    1
