@<TRIPOS>MOLECULE
tmp/5i9yA00.pdb
 196 185 0 0 0
SMALL
GASTEIGER

@<TRIPOS>ATOM
      1  N        -63.0230  -22.5850   40.1860 N.3    18  LYS18      -0.1245
      2  CA       -61.9170  -21.9380   40.8760 C.3    18  LYS18       0.1561
      3  C        -62.3750  -21.5080   42.2610 C.2    18  LYS18       0.2260
      4  O        -63.4750  -20.9770   42.4160 O.2    18  LYS18      -0.2867
      5  CB       -61.4380  -20.7240   40.0720 C.3    18  LYS18       0.0271
      6  CG       -60.3840  -19.8640   40.7470 C.3    18  LYS18       0.0035
      7  CD       -59.8500  -18.8260   39.7700 C.3    18  LYS18       0.0206
      8  CE       -59.3010  -17.6000   40.4820 C.3    18  LYS18       0.1093
      9  NZ       -58.1700  -17.9120   41.3940 N.3    18  LYS18      -0.1314
     10  N        -62.6130  -19.1350   45.2740 N.3    20  ILE20      -0.1231
     11  CA       -62.5080  -17.7020   45.5340 C.3    20  ILE20       0.1692
     12  C        -62.6970  -17.3460   47.0010 C.2    20  ILE20       0.2592
     13  O        -62.3940  -16.2080   47.3920 O.2    20  ILE20      -0.2718
     14  CB       -63.4640  -16.8780   44.6450 C.3    20  ILE20       0.0266
     15  CG1      -64.9040  -17.3670   44.8040 C.3    20  ILE20       0.0019
     16  CG2      -63.0470  -16.9670   43.1850 C.3    20  ILE20       0.0020
     17  CD1      -65.9000  -16.5870   43.9650 C.3    20  ILE20       0.0001
     18  N        -63.1940  -18.2710   47.8170 N.am   21  GLY21      -0.1957
     19  CA       -63.2900  -18.0860   49.2520 C.3    21  GLY21       0.1869
     20  C        -63.2290  -19.4540   49.8950 C.2    21  GLY21       0.2309
     21  O        -63.4990  -20.4730   49.2520 O.2    21  GLY21      -0.2863
     22  N        -66.1510  -21.2700   48.6750 N.3    28  VAL28      -0.1245
     23  CA       -66.8740  -20.5190   47.6590 C.3    28  VAL28       0.1561
     24  C        -66.0920  -20.6330   46.3610 C.2    28  VAL28       0.2260
     25  O        -64.8720  -20.4200   46.3440 O.2    28  VAL28      -0.2867
     26  CB       -67.0550  -19.0480   48.0680 C.3    28  VAL28       0.0252
     27  CG1      -67.8450  -18.2990   47.0050 C.3    28  VAL28       0.0019
     28  CG2      -67.7420  -18.9600   49.4210 C.3    28  VAL28       0.0019
     29  N        -71.4600  -17.9040   41.3780 N.3    42  ALA42      -0.1231
     30  CA       -70.7070  -18.2570   42.5670 C.3    42  ALA42       0.1694
     31  C        -71.4210  -19.3930   43.2820 C.2    42  ALA42       0.2592
     32  O        -72.6520  -19.4800   43.2710 O.2    42  ALA42      -0.2718
     33  CB       -70.5480  -17.0650   43.5060 C.3    42  ALA42       0.0304
     34  N        -70.6310  -20.2660   43.8960 N.am   43  ILE43      -0.1966
     35  CA       -71.1170  -21.5230   44.4500 C.3    43  ILE43       0.1727
     36  C        -70.5070  -21.6790   45.8300 C.2    43  ILE43       0.2616
     37  O        -69.2820  -21.7510   45.9600 O.2    43  ILE43      -0.2715
     38  CB       -70.7010  -22.7110   43.5670 C.3    43  ILE43       0.0290
     39  CG1      -71.2290  -22.5420   42.1430 C.3    43  ILE43       0.0022
     40  CG2      -71.1630  -24.0090   44.1870 C.3    43  ILE43       0.0023
     41  CD1      -70.3570  -23.2120   41.0950 C.3    43  ILE43       0.0001
     42  N        -71.3440  -21.7360   46.8560 N.am   44  LYS44      -0.1977
     43  CA       -70.8820  -21.9590   48.2180 C.3    44  LYS44       0.1596
     44  C        -71.3130  -23.3520   48.6470 C.2    44  LYS44       0.2287
     45  O        -72.4750  -23.7230   48.4620 O.2    44  LYS44      -0.2864
     46  CB       -71.4680  -20.9240   49.1790 C.3    44  LYS44       0.0298
     47  CG       -70.9580  -21.0710   50.6050 C.3    44  LYS44       0.0038
     48  CD       -71.7210  -20.1660   51.5720 C.3    44  LYS44       0.0206
     49  CE       -71.4050  -18.7090   51.3280 C.3    44  LYS44       0.1093
     50  NZ       -71.9890  -17.8090   52.3710 N.3    44  LYS44      -0.1314
     51  N        -79.3470  -18.8110   55.0100 N.3    61  GLU61      -0.1245
     52  CA       -78.8630  -17.7010   54.2010 C.3    61  GLU61       0.1567
     53  C        -79.5690  -17.6850   52.8560 C.2    61  GLU61       0.2260
     54  O        -80.0120  -16.6300   52.3920 O.2    61  GLU61      -0.2867
     55  CB       -77.3400  -17.7300   54.0260 C.3    61  GLU61       0.0388
     56  CG       -76.8560  -16.5580   53.1460 C.3    61  GLU61       0.1160
     57  CD       -75.3410  -16.3600   53.1080 C.2    61  GLU61       0.3649
     58  OE1      -74.5970  -17.3560   53.2010 O.co2  61  GLU61      -0.2457
     59  OE2      -74.8920  -15.1920   52.9790 O.co2  61  GLU61      -0.2457
     60  N        -82.1080  -14.7990   51.3290 N.3    65  MET65      -0.1245
     61  CA       -81.8210  -14.1620   50.0510 C.3    65  MET65       0.1570
     62  C        -82.9340  -14.3870   49.0410 C.2    65  MET65       0.2261
     63  O        -83.2070  -13.5140   48.2070 O.2    65  MET65      -0.2867
     64  CB       -80.5050  -14.6980   49.5130 C.3    65  MET65       0.0387
     65  CG       -79.3420  -14.3050   50.3780 C.3    65  MET65       0.0595
     66  SD       -77.8370  -15.0850   49.8400 S.3    65  MET65      -0.1393
     67  CE       -77.8510  -14.6620   48.1000 C.3    65  MET65       0.0692
     68  N        -77.4680   -9.2470   46.4580 N.3    74  ILE74      -0.1245
     69  CA       -77.0270  -10.4130   45.6930 C.3    74  ILE74       0.1561
     70  C        -78.2020  -11.3160   45.3560 C.2    74  ILE74       0.2260
     71  O        -78.9810  -11.7020   46.2330 O.2    74  ILE74      -0.2867
     72  CB       -75.9670  -11.2010   46.4780 C.3    74  ILE74       0.0252
     73  CG1      -74.6930  -10.3900   46.6130 C.3    74  ILE74       0.0019
     74  CG2      -75.6700  -12.5370   45.7830 C.3    74  ILE74       0.0019
     75  CD1      -73.9690  -10.2040   45.3050 C.3    74  ILE74       0.0001
     76  N        -75.2030  -23.4280   47.6510 N.3    88  ILE88      -0.1245
     77  CA       -75.9770  -22.2380   47.3280 C.3    88  ILE88       0.1561
     78  C        -75.3170  -21.6010   46.1160 C.2    88  ILE88       0.2260
     79  O        -74.0880  -21.4460   46.0880 O.2    88  ILE88      -0.2867
     80  CB       -76.0030  -21.2470   48.5060 C.3    88  ILE88       0.0252
     81  CG1      -76.6040  -21.9060   49.7470 C.3    88  ILE88       0.0019
     82  CG2      -76.7680  -19.9780   48.1200 C.3    88  ILE88       0.0019
     83  CD1      -76.4470  -21.0760   50.9890 C.3    88  ILE88       0.0001
     84  N        -75.3470  -18.3360   43.4170 N.3    90  THR90      -0.1203
     85  CA       -75.7680  -16.9560   43.2220 C.3    90  THR90       0.1994
     86  C        -75.1420  -16.4190   41.9500 C.2    90  THR90       0.2618
     87  O        -74.2710  -17.0520   41.3470 O.2    90  THR90      -0.2717
     88  CB       -75.3330  -16.0400   44.3810 C.3    90  THR90       0.1784
     89  OG1      -73.9160  -15.8520   44.3380 O.3    90  THR90      -0.2211
     90  CG2      -75.7470  -16.6140   45.7250 C.3    90  THR90       0.0376
     91  N        -75.5710  -15.2160   41.5690 N.am   91  GLU91      -0.1965
     92  CA       -74.8600  -14.4930   40.5250 C.3    91  GLU91       0.1733
     93  C        -73.3930  -14.3380   40.9120 C.2    91  GLU91       0.2616
     94  O        -73.0320  -14.3310   42.0970 O.2    91  GLU91      -0.2715
     95  CB       -75.4880  -13.1170   40.3050 C.3    91  GLU91       0.0429
     96  CG       -75.3950  -12.1850   41.5150 C.3    91  GLU91       0.1163
     97  CD       -76.0500  -10.8310   41.2720 C.2    91  GLU91       0.3649
     98  OE1      -75.8800  -10.2640   40.1710 O.co2  91  GLU91      -0.2457
     99  OE2      -76.7550  -10.3410   42.1650 O.co2  91  GLU91      -0.2457
    100  N        -72.5340  -14.2440   39.9030 N.am   92  TYR92      -0.1960
    101  CA       -71.1000  -14.1130   40.1120 C.3    92  TYR92       0.1771
    102  C        -70.7110  -12.6460   40.0030 C.2    92  TYR92       0.2619
    103  O        -70.9150  -12.0210   38.9600 O.2    92  TYR92      -0.2715
    104  CB       -70.3060  -14.9360   39.0980 C.3    92  TYR92       0.0574
    105  CG       -68.8250  -14.7450   39.2770 C.ar   92  TYR92      -0.0198
    106  CD1      -68.2060  -15.0990   40.4640 C.ar   92  TYR92      -0.0009
    107  CD2      -68.0460  -14.1840   38.2700 C.ar   92  TYR92      -0.0009
    108  CE1      -66.8580  -14.9090   40.6460 C.ar   92  TYR92       0.0417
    109  CE2      -66.6910  -13.9930   38.4410 C.ar   92  TYR92       0.0417
    110  CZ       -66.1000  -14.3600   39.6340 C.ar   92  TYR92       0.1957
    111  OH       -64.7520  -14.1750   39.8310 O.3    92  TYR92      -0.2866
    112  N        -70.1400  -12.1060   41.0730 N.am   93  MET93      -0.1963
    113  CA       -69.7020  -10.7130   41.0990 C.3    93  MET93       0.1736
    114  C        -68.2280  -10.6790   40.7140 C.2    93  MET93       0.2616
    115  O        -67.3690  -11.1380   41.4680 O.2    93  MET93      -0.2715
    116  CB       -69.9640  -10.1240   42.4790 C.3    93  MET93       0.0427
    117  CG       -71.4260  -10.2320   42.8750 C.3    93  MET93       0.0599
    118  SD       -72.5220   -9.1440   41.9210 S.3    93  MET93      -0.1393
    119  CE       -72.1160   -7.5840   42.7100 C.3    93  MET93       0.0692
    120  N        -67.9450  -10.1400   39.5260 N.am   94  GLU94      -0.1963
    121  CA       -66.6340  -10.3450   38.9180 C.3    94  GLU94       0.1733
    122  C        -65.4990   -9.6610   39.6750 C.2    94  GLU94       0.2616
    123  O        -64.3480  -10.1000   39.5780 O.2    94  GLU94      -0.2715
    124  CB       -66.6510   -9.8660   37.4670 C.3    94  GLU94       0.0429
    125  CG       -67.6610  -10.5990   36.5760 C.3    94  GLU94       0.1163
    126  CD       -69.0230   -9.9200   36.4910 C.2    94  GLU94       0.3649
    127  OE1      -69.3780   -9.1300   37.3830 O.co2  94  GLU94      -0.2457
    128  OE2      -69.7600  -10.1850   35.5140 O.co2  94  GLU94      -0.2457
    129  N        -65.7760   -8.5890   40.4130 N.am   95  ASN95      -0.1958
    130  CA       -64.7330   -7.8240   41.0790 C.3    95  ASN95       0.1819
    131  C        -64.6150   -8.1220   42.5680 C.2    95  ASN95       0.2622
    132  O        -63.7860   -7.5050   43.2460 O.2    95  ASN95      -0.2715
    133  CB       -64.9170   -6.3300   40.8150 C.3    95  ASN95       0.1195
    134  CG       -64.6010   -5.9630   39.3670 C.2    95  ASN95       0.2630
    135  OD1      -63.5320   -6.3070   38.8580 O.2    95  ASN95      -0.2716
    136  ND2      -65.5250   -5.3000   38.7000 N.am   95  ASN95      -0.0877
    137  N        -65.3920   -9.0750   43.0850 N.am   96  GLY96      -0.1940
    138  CA       -65.1910   -9.5180   44.4520 C.3    96  GLY96       0.2014
    139  C        -65.5860   -8.4980   45.5050 C.2    96  GLY96       0.2638
    140  O        -66.4190   -7.6100   45.2910 O.2    96  GLY96      -0.2714
    141  N        -64.9560   -8.6510   46.6670 N.am   97  ALA97      -0.1977
    142  CA       -65.2940   -7.8590   47.8370 C.3    97  ALA97       0.1597
    143  C        -64.8220   -6.4230   47.6750 C.2    97  ALA97       0.2287
    144  O        -63.6980   -6.1680   47.2320 O.2    97  ALA97      -0.2864
    145  CB       -64.6530   -8.4780   49.0750 C.3    97  ALA97       0.0319
    146  N        -61.2750   -5.1840   49.3840 N.3   100  LYS100     -0.1245
    147  CA       -60.0770   -5.6020   48.6700 C.3   100  LYS100      0.1561
    148  C        -59.9960   -4.9400   47.3050 C.2   100  LYS100      0.2260
    149  O        -58.9080   -4.5420   46.8690 O.2   100  LYS100     -0.2867
    150  CB       -60.0800   -7.1230   48.5420 C.3   100  LYS100      0.0271
    151  CG       -58.8030   -7.7210   47.9700 C.3   100  LYS100      0.0035
    152  CD       -58.8130   -9.2310   48.1900 C.3   100  LYS100      0.0206
    153  CE       -57.4870   -9.8840   47.8100 C.3   100  LYS100      0.1093
    154  NZ       -57.2310   -9.8600   46.3500 N.3   100  LYS100     -0.1314
    155  N        -56.9300   -2.5280   45.9050 N.3   104  GLU104     -0.1245
    156  CA       -56.2030   -2.9170   44.7050 C.3   104  GLU104      0.1567
    157  C        -56.3810   -1.9380   43.5560 C.2   104  GLU104      0.2260
    158  O        -55.6650   -2.0540   42.5520 O.2   104  GLU104     -0.2867
    159  CB       -56.5870   -4.3490   44.3230 C.3   104  GLU104      0.0388
    160  CG       -56.1400   -5.2810   45.4460 C.3   104  GLU104      0.1160
    161  CD       -56.4770   -6.7370   45.2610 C.2   104  GLU104      0.3649
    162  OE1      -57.0980   -7.0880   44.2410 O.co2 104  GLU104     -0.2457
    163  OE2      -56.1080   -7.5360   46.1540 O.co2 104  GLU104     -0.2457
    164  N        -70.2080   -6.7900   47.5400 N.3   144  LEU144     -0.1245
    165  CA       -69.5880   -7.3650   46.3570 C.3   144  LEU144      0.1561
    166  C        -69.7800   -6.4250   45.1730 C.2   144  LEU144      0.2260
    167  O        -70.7400   -5.6550   45.1190 O.2   144  LEU144     -0.2867
    168  CB       -70.1900   -8.7370   46.0490 C.3   144  LEU144      0.0270
    169  CG       -69.8100   -9.8350   47.0540 C.3   144  LEU144      0.0019
    170  CD1      -70.7200  -11.0490   46.8660 C.3   144  LEU144      0.0001
    171  CD2      -68.3330  -10.2230   46.9200 C.3   144  LEU144      0.0001
    172  N        -74.1200   -8.2910   50.5940 N.3   154  SER154     -0.1202
    173  CA       -73.8940   -9.7140   50.7290 C.3   154  SER154      0.2020
    174  C        -73.8850  -10.0570   52.2180 C.2   154  SER154      0.2619
    175  O        -74.0180   -9.1800   53.0730 O.2   154  SER154     -0.2717
    176  CB       -72.5550  -10.0640   50.0710 C.3   154  SER154      0.2103
    177  OG       -72.3000  -11.4460   50.1270 O.3   154  SER154     -0.2182
    178  N        -73.7310  -11.3490   52.5300 N.am  155  ASP155     -0.1959
    179  CA       -73.5820  -11.8380   53.9050 C.3   155  ASP155      0.1840
    180  C        -74.8620  -11.8060   54.7300 C.2   155  ASP155      0.2622
    181  O        -75.0220  -10.9480   55.6080 O.2   155  ASP155     -0.2715
    182  CB       -72.4300  -11.1330   54.6280 C.3   155  ASP155      0.1450
    183  CG       -72.0020  -11.8650   55.8860 C.2   155  ASP155      0.3671
    184  OD1      -72.4600  -13.0080   56.1030 O.co2 155  ASP155     -0.2456
    185  OD2      -71.1850  -11.3050   56.6390 O.co2 155  ASP155     -0.2456
    186  N        -75.7430  -12.7770   54.4980 N.am  156  PHE156     -0.1974
    187  CA       -77.0600  -12.8380   55.1170 C.3   156  PHE156      0.1639
    188  C        -77.1910  -14.0330   56.0540 C.2   156  PHE156      0.2290
    189  O        -76.5290  -15.0570   55.8870 O.2   156  PHE156     -0.2864
    190  CB       -78.1340  -12.9140   54.0300 C.3   156  PHE156      0.0560
    191  CG       -78.1790  -11.6880   53.1750 C.ar  156  PHE156     -0.0200
    192  CD1      -78.7860  -10.5530   53.6500 C.ar  156  PHE156     -0.0042
    193  CD2      -77.5600  -11.6480   51.9310 C.ar  156  PHE156     -0.0042
    194  CE1      -78.8080   -9.3920   52.8970 C.ar  156  PHE156     -0.0003
    195  CE2      -77.5830  -10.4860   51.1730 C.ar  156  PHE156     -0.0003
    196  CZ       -78.2050   -9.3610   51.6610 C.ar  156  PHE156     -0.0000
@<TRIPOS>BOND
     1   128   126   ar
     2   126   125    1
     3   126   127   ar
     4   125   124    1
     5   124   121    1
     6   107   109   ar
     7   107   105   ar
     8   109   110   ar
     9   136   134   am
    10   135   134    2
    11   121   120    1
    12   121   122    1
    13   103   102    2
    14   104   105    1
    15   104   101    1
    16   105   106   ar
    17   134   133    1
    18   120   114   am
    19   123   122    2
    20   110   111    1
    21   110   108   ar
    22   122   129   am
    23     7     8    1
    24     7     6    1
    25   100   101    1
    26   100    93   am
    27   102   101    1
    28   102   112   am
    29     5     6    1
    30     5     2    1
    31    98    97   ar
    32     1     2    1
    33    95    92    1
    34    95    96    1
    35   129   130    1
    36   106   108   ar
    37     8     9    1
    38    92    93    1
    39    92    91    1
    40   114   113    1
    41   114   115    2
    42   133   130    1
    43     2     3    1
    44    93    94    2
    45   112   113    1
    46   130   131    1
    47    41    39    1
    48   113   116    1
    49    97    96    1
    50    97    99   ar
    51    87    86    2
    52    29    30    1
    53    91    86   am
    54   118   119    1
    55   118   117    1
    56    86    85    1
    57    39    38    1
    58     3     4    2
    59   116   117    1
    60   158   157    2
    61    30    31    1
    62    30    33    1
    63   131   137   am
    64   131   132    2
    65   137   138    1
    66    16    14    1
    67    85    84    1
    68    85    88    1
    69    32    31    2
    70    31    34   am
    71   157   156    1
    72    38    40    1
    73    38    35    1
    74    34    35    1
    75    17    15    1
    76   162   161   ar
    77   159   156    1
    78   159   160    1
    79    89    88    1
    80    88    90    1
    81    35    36    1
    82   138   139    1
    83    14    15    1
    84    14    11    1
    85   156   155    1
    86   167   166    2
    87   166   165    1
    88   161   160    1
    89   161   163   ar
    90    10    11    1
    91   140   139    2
    92    75    73    1
    93    70    69    1
    94    70    71    2
    95   139   141   am
    96    11    12    1
    97    69    68    1
    98    69    72    1
    99    74    72    1
   100    36    37    2
   101    36    42   am
   102   168   165    1
   103   168   169    1
   104    79    78    2
   105    78    77    1
   106    25    24    2
   107   154   153    1
   108   165   164    1
   109    24    23    1
   110    72    73    1
   111   141   142    1
   112    42    43    1
   113   170   169    1
   114   149   148    2
   115   171   169    1
   116    12    13    2
   117    12    18   am
   118    27    26    1
   119   144   143    2
   120   148   147    1
   121    77    76    1
   122    77    80    1
   123    23    26    1
   124    23    22    1
   125   143   142    1
   126   153   152    1
   127    18    19    1
   128   142   145    1
   129   151   152    1
   130   151   150    1
   131    26    28    1
   132    67    66    1
   133    82    80    1
   134    63    62    2
   135    43    44    1
   136    43    46    1
   137    45    44    2
   138    80    81    1
   139   150   147    1
   140   147   146    1
   141    62    61    1
   142    46    47    1
   143    21    20    2
   144    19    20    1
   145    64    61    1
   146    64    65    1
   147    81    83    1
   148    66    65    1
   149    61    60    1
   150   176   177    1
   151   176   173    1
   152   172   173    1
   153    47    48    1
   154   173   174    1
   155   195   196   ar
   156   195   193   ar
   157    49    48    1
   158    49    50    1
   159   196   194   ar
   160   193   191   ar
   161   174   178   am
   162   174   175    2
   163    54    53    2
   164   178   179    1
   165    53    52    1
   166   194   192   ar
   167    59    57   ar
   168    57    56    1
   169    57    58   ar
   170    56    55    1
   171   191   192   ar
   172   191   190    1
   173   179   182    1
   174   179   180    1
   175    55    52    1
   176   190   187    1
   177    52    51    1
   178   186   180   am
   179   186   187    1
   180   182   183    1
   181   180   181    2
   182   187   188    1
   183   183   184   ar
   184   183   185   ar
   185   189   188    2
