@<TRIPOS>MOLECULE
tmp/5i9zA00.pdb
 185 172 0 0 0
SMALL
GASTEIGER

@<TRIPOS>ATOM
      1  N        -95.2740  -24.7930   40.0520 N.3    14  LYS14      -0.1245
      2  CA       -94.0970  -24.4110   40.8260 C.3    14  LYS14       0.1561
      3  C        -94.5300  -23.8080   42.1510 C.2    14  LYS14       0.2260
      4  O        -95.5480  -23.1160   42.2310 O.2    14  LYS14      -0.2867
      5  CB       -93.2050  -23.4150   40.0720 C.3    14  LYS14       0.0271
      6  CG       -93.8880  -22.1210   39.6650 C.3    14  LYS14       0.0035
      7  CD       -92.8790  -21.1440   39.0700 C.3    14  LYS14       0.0206
      8  CE       -93.5580  -19.9140   38.4790 C.3    14  LYS14       0.1093
      9  NZ       -94.2090  -19.0400   39.5000 N.3    14  LYS14      -0.1314
     10  N        -94.6740  -21.2490   44.9640 N.3    16  ILE16      -0.1245
     11  CA       -94.5110  -19.8040   45.0520 C.3    16  ILE16       0.1561
     12  C        -94.6530  -19.2820   46.4700 C.2    16  ILE16       0.2260
     13  O        -94.6310  -18.0630   46.6700 O.2    16  ILE16      -0.2867
     14  CB       -95.4840  -19.0580   44.1180 C.3    16  ILE16       0.0252
     15  CG1      -96.9370  -19.3440   44.5080 C.3    16  ILE16       0.0019
     16  CG2      -95.2050  -19.4110   42.6640 C.3    16  ILE16       0.0019
     17  CD1      -97.9480  -18.6800   43.6000 C.3    16  ILE16       0.0001
     18  N        -95.4080  -20.3330   51.0400 N.3    18  ALA18      -0.1231
     19  CA       -95.9700  -21.1390   52.1080 C.3    18  ALA18       0.1694
     20  C        -96.9490  -20.2790   52.8940 C.2    18  ALA18       0.2592
     21  O        -96.9110  -19.0460   52.8340 O.2    18  ALA18      -0.2718
     22  CB       -94.8790  -21.6990   53.0340 C.3    18  ALA18       0.0304
     23  N        -97.8370  -20.9420   53.6250 N.am   19  GLY19      -0.1957
     24  CA       -98.8060  -20.2440   54.4480 C.3    19  GLY19       0.1869
     25  C        -99.0680  -20.9630   55.7550 C.2    19  GLY19       0.2309
     26  O        -98.7210  -22.1350   55.8990 O.2    19  GLY19      -0.2863
     27  N        -98.1030  -23.0020   48.5330 N.3    22  VAL22      -0.1245
     28  CA       -98.8790  -22.2770   47.5370 C.3    22  VAL22       0.1561
     29  C        -98.1630  -22.4760   46.2170 C.2    22  VAL22       0.2260
     30  O        -96.9420  -22.2940   46.1370 O.2    22  VAL22      -0.2867
     31  CB       -99.0130  -20.7840   47.8860 C.3    22  VAL22       0.0252
     32  CG1      -99.8700  -20.0700   46.8730 C.3    22  VAL22       0.0019
     33  CG2      -99.5690  -20.6330   49.3130 C.3    22  VAL22       0.0019
     34  N       -103.4950  -19.4780   41.4930 N.3    35  ALA35      -0.1245
     35  CA      -102.7520  -19.8490   42.6860 C.3    35  ALA35       0.1562
     36  C       -103.4740  -21.0070   43.3600 C.2    35  ALA35       0.2260
     37  O       -104.7100  -21.0600   43.3730 O.2    35  ALA35      -0.2867
     38  CB      -102.6200  -18.6790   43.6560 C.3    35  ALA35       0.0290
     39  N       -103.5350  -23.3430   46.8600 N.3    37  LYS37      -0.1245
     40  CA      -103.1620  -23.5900   48.2510 C.3    37  LYS37       0.1561
     41  C       -103.6140  -24.9890   48.6550 C.2    37  LYS37       0.2260
     42  O       -104.7640  -25.3590   48.4180 O.2    37  LYS37      -0.2867
     43  CB      -103.8010  -22.5550   49.1820 C.3    37  LYS37       0.0271
     44  CG      -103.2480  -21.1430   49.0830 C.3    37  LYS37       0.0035
     45  CD      -103.0150  -20.5650   50.4920 C.3    37  LYS37       0.0206
     46  CE      -103.9920  -19.4480   50.8260 C.3    37  LYS37       0.1093
     47  NZ      -103.8510  -18.9050   52.2090 N.3    37  LYS37      -0.1314
     48  N       -111.7060  -20.1670   55.0810 N.3    54  GLU54      -0.1245
     49  CA      -111.1070  -19.1820   54.1860 C.3    54  GLU54       0.1567
     50  C       -111.7920  -19.2030   52.8280 C.2    54  GLU54       0.2260
     51  O       -112.1350  -18.1520   52.2760 O.2    54  GLU54      -0.2867
     52  CB      -109.6100  -19.4510   54.0340 C.3    54  GLU54       0.0388
     53  CG      -108.9270  -18.6000   52.9760 C.3    54  GLU54       0.1160
     54  CD      -107.4430  -18.8930   52.8740 C.2    54  GLU54       0.3649
     55  OE1     -106.9230  -19.6250   53.7430 O.co2  54  GLU54      -0.2457
     56  OE2     -106.7980  -18.4040   51.9200 O.co2  54  GLU54      -0.2457
     57  N       -109.3330  -10.6740   46.1590 N.3    67  ILE67      -0.1245
     58  CA      -108.8830  -11.8510   45.4160 C.3    67  ILE67       0.1561
     59  C       -110.0660  -12.7550   45.1150 C.2    67  ILE67       0.2260
     60  O       -110.8560  -13.0750   46.0080 O.2    67  ILE67      -0.2867
     61  CB      -107.8090  -12.6030   46.2190 C.3    67  ILE67       0.0252
     62  CG1     -106.5290  -11.7850   46.2630 C.3    67  ILE67       0.0019
     63  CG2     -107.5160  -13.9430   45.5670 C.3    67  ILE67       0.0019
     64  CD1     -105.8740  -11.6940   44.9150 C.3    67  ILE67       0.0001
     65  N       -107.3450  -19.8160   43.5680 N.3    83  THR83      -0.1203
     66  CA      -107.6740  -18.3990   43.4330 C.3    83  THR83       0.1994
     67  C       -107.0470  -17.8190   42.1750 C.2    83  THR83       0.2618
     68  O       -106.1580  -18.4170   41.5590 O.2    83  THR83      -0.2717
     69  CB      -107.2000  -17.5920   44.6490 C.3    83  THR83       0.1784
     70  OG1     -105.7710  -17.6400   44.7330 O.3    83  THR83      -0.2211
     71  CG2     -107.8040  -18.1370   45.9200 C.3    83  THR83       0.0376
     72  N       -107.4950  -16.6140   41.8210 N.am   84  GLU84      -0.1965
     73  CA      -106.9170  -15.9280   40.6750 C.3    84  GLU84       0.1733
     74  C       -105.4260  -15.6980   40.9150 C.2    84  GLU84       0.2616
     75  O       -104.9760  -15.5170   42.0530 O.2    84  GLU84      -0.2715
     76  CB      -107.6480  -14.6060   40.4020 C.3    84  GLU84       0.0429
     77  CG      -107.2000  -13.4150   41.2270 C.3    84  GLU84       0.1163
     78  CD      -108.0530  -12.1620   40.9940 C.2    84  GLU84       0.3649
     79  OE1     -108.9130  -11.8760   41.8410 O.co2  84  GLU84      -0.2457
     80  OE2     -107.8660  -11.4610   39.9710 O.co2  84  GLU84      -0.2457
     81  N       -104.6560  -15.7620   39.8310 N.am   85  TYR85      -0.1960
     82  CA      -103.2160  -15.5680   39.8950 C.3    85  TYR85       0.1771
     83  C       -102.8740  -14.0880   39.7840 C.2    85  TYR85       0.2619
     84  O       -103.3480  -13.3970   38.8760 O.2    85  TYR85      -0.2715
     85  CB      -102.5030  -16.3520   38.7950 C.3    85  TYR85       0.0574
     86  CG      -101.0070  -16.3090   38.9640 C.ar   85  TYR85      -0.0198
     87  CD1     -100.4120  -16.8270   40.1110 C.ar   85  TYR85      -0.0009
     88  CD2     -100.1950  -15.7280   38.0100 C.ar   85  TYR85      -0.0009
     89  CE1      -99.0610  -16.7740   40.2920 C.ar   85  TYR85       0.0417
     90  CE2      -98.8280  -15.6750   38.1800 C.ar   85  TYR85       0.0417
     91  CZ       -98.2690  -16.2070   39.3230 C.ar   85  TYR85       0.1957
     92  OH       -96.9120  -16.1670   39.5110 O.3    85  TYR85      -0.2866
     93  N       -102.0380  -13.6150   40.7050 N.am   86  MET86      -0.1963
     94  CA      -101.5800  -12.2350   40.7440 C.3    86  MET86       0.1736
     95  C       -100.0990  -12.2590   40.4010 C.2    86  MET86       0.2616
     96  O        -99.2840  -12.7180   41.2040 O.2    86  MET86      -0.2715
     97  CB      -101.8310  -11.6160   42.1180 C.3    86  MET86       0.0427
     98  CG      -103.2920  -11.7100   42.5380 C.3    86  MET86       0.0599
     99  SD      -104.3740  -10.6160   41.5900 S.3    86  MET86      -0.1393
    100  CE      -103.9790   -9.0170   42.2850 C.3    86  MET86       0.0692
    101  N        -99.7610  -11.7680   39.2040 N.am   87  GLU87      -0.1963
    102  CA       -98.4530  -12.0400   38.6230 C.3    87  GLU87       0.1733
    103  C        -97.3070  -11.3720   39.3750 C.2    87  GLU87       0.2616
    104  O        -96.1660  -11.8390   39.2670 O.2    87  GLU87      -0.2715
    105  CB       -98.4330  -11.5960   37.1580 C.3    87  GLU87       0.0429
    106  CG       -99.4470  -12.3100   36.2550 C.3    87  GLU87       0.1163
    107  CD      -100.8030  -11.6110   36.1370 C.2    87  GLU87       0.3649
    108  OE1     -101.1240  -10.7200   36.9560 O.co2  87  GLU87      -0.2457
    109  OE2     -101.5620  -11.9630   35.2030 O.co2  87  GLU87      -0.2457
    110  N        -97.5670  -10.2970   40.1200 N.am   88  ASN88      -0.1958
    111  CA       -96.4910   -9.5220   40.7280 C.3    88  ASN88       0.1819
    112  C        -96.3320   -9.7850   42.2230 C.2    88  ASN88       0.2622
    113  O        -95.4580   -9.1830   42.8550 O.2    88  ASN88      -0.2715
    114  CB       -96.6980   -8.0230   40.4530 C.3    88  ASN88       0.1195
    115  CG       -96.4230   -7.6520   38.9820 C.2    88  ASN88       0.2630
    116  OD1      -97.2820   -7.0930   38.2840 O.2    88  ASN88      -0.2716
    117  ND2      -95.2430   -8.0040   38.5030 N.am   88  ASN88      -0.0877
    118  N        -97.1190  -10.6950   42.7870 N.am   89  GLY89      -0.1940
    119  CA       -96.8870  -11.1450   44.1510 C.3    89  GLY89       0.2014
    120  C        -97.3250  -10.1200   45.1840 C.2    89  GLY89       0.2638
    121  O        -98.1410   -9.2360   44.9220 O.2    89  GLY89      -0.2714
    122  N        -96.7610  -10.2560   46.3850 N.am   90  ALA90      -0.1977
    123  CA       -97.1230   -9.3920   47.4970 C.3    90  ALA90       0.1597
    124  C        -96.6260   -7.9690   47.2840 C.2    90  ALA90       0.2287
    125  O        -95.5170   -7.7290   46.7910 O.2    90  ALA90      -0.2864
    126  CB       -96.5590   -9.9460   48.8140 C.3    90  ALA90       0.0319
    127  N        -93.0780   -6.6740   49.0360 N.3    93  LYS93      -0.1245
    128  CA       -91.9000   -7.0990   48.2880 C.3    93  LYS93       0.1561
    129  C        -91.8310   -6.4200   46.9300 C.2    93  LYS93       0.2260
    130  O        -90.7470   -6.0430   46.4650 O.2    93  LYS93      -0.2867
    131  CB       -91.9160   -8.6180   48.1240 C.3    93  LYS93       0.0271
    132  CG       -91.7380   -9.3630   49.4410 C.3    93  LYS93       0.0035
    133  CD       -91.7880  -10.8690   49.2140 C.3    93  LYS93       0.0206
    134  CE       -91.5870  -11.6290   50.5180 C.3    93  LYS93       0.1093
    135  NZ       -91.6560  -13.1140   50.3240 N.3    93  LYS93      -0.1314
    136  N        -88.7240   -4.0510   45.5480 N.3    97  GLU97      -0.1245
    137  CA       -87.9710   -4.4490   44.3680 C.3    97  GLU97       0.1567
    138  C        -88.0860   -3.4510   43.2310 C.2    97  GLU97       0.2260
    139  O        -87.3810   -3.6120   42.2310 O.2    97  GLU97      -0.2867
    140  CB       -88.4440   -5.8190   43.8620 C.3    97  GLU97       0.0388
    141  CG       -88.2410   -6.9770   44.8260 C.3    97  GLU97       0.1160
    142  CD       -88.9670   -8.2550   44.3740 C.2    97  GLU97       0.3649
    143  OE1      -89.3460   -8.3590   43.1860 O.co2  97  GLU97      -0.2457
    144  OE2      -89.1740   -9.1400   45.2220 O.co2  97  GLU97      -0.2457
    145  N        -97.8980   -6.6840   53.0010 N.3   134  ARG134     -0.1231
    146  CA       -97.5420   -8.0870   52.8190 C.3   134  ARG134      0.1694
    147  C        -98.7520   -8.9600   52.5060 C.2   134  ARG134      0.2592
    148  O        -98.5880  -10.0600   51.9650 O.2   134  ARG134     -0.2718
    149  CB       -96.8200   -8.6080   54.0740 C.3   134  ARG134      0.0321
    150  CG       -97.7070   -8.7810   55.2880 C.3   134  ARG134      0.0489
    151  CD       -96.9130   -9.3040   56.5010 C.3   134  ARG134      0.2205
    152  NE       -97.7140   -9.0750   57.6960 N.pl3 134  ARG134     -0.0865
    153  CZ       -97.7430   -7.9170   58.3370 C.cat 134  ARG134      0.5346
    154  NH1      -96.9710   -6.9140   57.9270 N.pl3 134  ARG134      0.1354
    155  NH2      -98.5170   -7.7740   59.3990 N.pl3 134  ARG134      0.1354
    156  N        -99.9610   -8.5020   52.8320 N.am  135  ASN135     -0.1974
    157  CA      -101.1720   -9.2720   52.6010 C.3   135  ASN135      0.1688
    158  C       -101.9900   -8.7280   51.4450 C.2   135  ASN135      0.2292
    159  O       -103.1570   -9.1010   51.2850 O.2   135  ASN135     -0.2864
    160  CB      -102.0120   -9.3250   53.8770 C.3   135  ASN135      0.1181
    161  CG      -101.3350  -10.1390   54.9390 C.2   135  ASN135      0.2629
    162  OD1     -100.7830  -11.1930   54.6360 O.2   135  ASN135     -0.2716
    163  ND2     -101.3290   -9.6480   56.1740 N.am  135  ASN135     -0.0877
    164  N       -101.9760   -8.3070   47.2030 N.3   137  LEU137     -0.1245
    165  CA      -101.3470   -8.8860   46.0200 C.3   137  LEU137      0.1561
    166  C       -101.5290   -7.9640   44.8180 C.2   137  LEU137      0.2260
    167  O       -102.4890   -7.1930   44.7500 O.2   137  LEU137     -0.2867
    168  CB      -101.9060  -10.2810   45.7080 C.3   137  LEU137      0.0270
    169  CG      -101.5750  -11.3970   46.7020 C.3   137  LEU137      0.0019
    170  CD1     -102.5290  -12.5840   46.5040 C.3   137  LEU137      0.0001
    171  CD2     -100.1040  -11.8250   46.5520 C.3   137  LEU137      0.0001
    172  N       -105.9690   -9.7780   50.2760 N.3   147  SER147     -0.1202
    173  CA      -105.9260  -11.2370   50.3510 C.3   147  SER147      0.2020
    174  C       -105.8420  -11.5910   51.8340 C.2   147  SER147      0.2618
    175  O       -106.1520  -10.7740   52.7070 O.2   147  SER147     -0.2717
    176  CB      -104.7560  -11.7860   49.5230 C.3   147  SER147      0.2103
    177  OG      -104.6810  -13.2030   49.6330 O.3   147  SER147     -0.2182
    178  N       -105.4280  -12.8230   52.1400 N.am  148  ASP148     -0.1973
    179  CA      -105.2120  -13.2770   53.5210 C.3   148  ASP148      0.1709
    180  C       -106.5210  -13.2660   54.3270 C.2   148  ASP148      0.2293
    181  O       -106.6730  -12.5690   55.3350 O.2   148  ASP148     -0.2864
    182  CB      -104.1210  -12.4370   54.2000 C.3   148  ASP148      0.1436
    183  CG      -103.6970  -12.9980   55.5500 C.2   148  ASP148      0.3671
    184  OD1     -103.3590  -12.1940   56.4440 O.co2 148  ASP148     -0.2456
    185  OD2     -103.7110  -14.2360   55.7120 O.co2 148  ASP148     -0.2456
@<TRIPOS>BOND
     1   109   107   ar
     2   107   106    1
     3   107   108   ar
     4   106   105    1
     5   105   102    1
     6    88    90   ar
     7    88    86   ar
     8    90    91   ar
     9   116   115    2
    10     8     7    1
    11     8     9    1
    12   117   115   am
    13   102   101    1
    14   102   103    1
    15    85    86    1
    16    85    82    1
    17    84    83    2
    18    86    87   ar
    19   115   114    1
    20     7     6    1
    21   101    95   am
    22   104   103    2
    23    91    92    1
    24    91    89   ar
    25   103   110   am
    26     6     5    1
    27    83    82    1
    28    83    93   am
    29    81    82    1
    30    81    74   am
    31    80    78   ar
    32     1     2    1
    33     5     2    1
    34    87    89   ar
    35   110   111    1
    36    95    94    1
    37    95    96    2
    38    76    73    1
    39    76    77    1
    40   114   111    1
    41    73    74    1
    42    73    72    1
    43    93    94    1
    44   111   112    1
    45    94    97    1
    46     2     3    1
    47    74    75    2
    48    78    77    1
    49    78    79   ar
    50    34    35    1
    51    68    67    2
    52    99   100    1
    53    99    98    1
    54    72    67   am
    55    97    98    1
    56     3     4    2
    57    67    66    1
    58   112   118   am
    59   112   113    2
    60   139   138    2
    61    16    14    1
    62    35    36    1
    63    35    38    1
    64   118   119    1
    65   143   142   ar
    66   138   137    1
    67    36    37    2
    68    66    65    1
    69    66    69    1
    70    17    15    1
    71   140   137    1
    72   140   141    1
    73    14    15    1
    74    14    11    1
    75   119   120    1
    76   137   136    1
    77   142   141    1
    78   142   144   ar
    79    69    70    1
    80    69    71    1
    81   167   166    2
    82   166   165    1
    83    64    62    1
    84   121   120    2
    85    10    11    1
    86    11    12    1
    87    59    58    1
    88    59    60    2
    89   120   122   am
    90    58    57    1
    91    58    61    1
    92    63    61    1
    93   168   165    1
    94   168   169    1
    95   165   164    1
    96    30    29    2
    97    29    28    1
    98    61    62    1
    99   122   123    1
   100   130   129    2
   101    12    13    2
   102   170   169    1
   103   171   169    1
   104   125   124    2
   105    39    40    1
   106    32    31    1
   107   129   128    1
   108   124   123    1
   109   123   126    1
   110    28    31    1
   111    28    27    1
   112    31    33    1
   113   131   128    1
   114   131   132    1
   115    40    41    1
   116    40    43    1
   117   128   127    1
   118    42    41    2
   119    44    43    1
   120    44    45    1
   121   133   132    1
   122   133   134    1
   123   176   177    1
   124   176   173    1
   125   172   173    1
   126   135   134    1
   127   173   174    1
   128    45    46    1
   129    46    47    1
   130    18    19    1
   131   159   158    2
   132   158   157    1
   133   174   178   am
   134   174   175    2
   135    56    54   ar
   136   148   147    2
   137    19    20    1
   138    19    22    1
   139   178   179    1
   140    51    50    2
   141   147   146    1
   142   147   156   am
   143   157   156    1
   144   157   160    1
   145   146   145    1
   146   146   149    1
   147    50    49    1
   148    21    20    2
   149    54    53    1
   150    54    55   ar
   151    20    23   am
   152    53    52    1
   153   179   182    1
   154   179   180    1
   155    23    24    1
   156   160   161    1
   157    52    49    1
   158   149   150    1
   159    49    48    1
   160   182   183    1
   161   180   181    2
   162    24    25    1
   163   162   161    2
   164   161   163   am
   165   150   151    1
   166   183   185   ar
   167   183   184   ar
   168    25    26    2
   169   151   152    1
   170   152   153    2
   171   154   153    1
   172   153   155    1
