@<TRIPOS>MOLECULE
tmp/5ia0C00.pdb
 190 180 0 0 0
SMALL
GASTEIGER

@<TRIPOS>ATOM
      1  N        -13.6100   34.7820  -29.6660 N.3    20  ILE20      -0.1231
      2  CA       -14.3910   34.7860  -28.4320 C.3    20  ILE20       0.1692
      3  C        -15.6520   35.6430  -28.5460 C.2    20  ILE20       0.2593
      4  O        -16.3420   35.8490  -27.5490 O.2    20  ILE20      -0.2718
      5  CB       -13.5380   35.2250  -27.2210 C.3    20  ILE20       0.0266
      6  CG1      -13.0680   36.6870  -27.3640 C.3    20  ILE20       0.0019
      7  CG2      -12.3390   34.3020  -27.0520 C.3    20  ILE20       0.0020
      8  CD1      -12.0990   37.1720  -26.2640 C.3    20  ILE20       0.0001
      9  N        -15.9660   36.1550  -29.7260 N.am   21  GLY21      -0.1942
     10  CA       -17.1910   36.9120  -29.8800 C.3    21  GLY21       0.2014
     11  C        -17.1370   37.8300  -31.0770 C.2    21  GLY21       0.2639
     12  O        -16.1210   37.9470  -31.7600 O.2    21  GLY21      -0.2714
     13  N        -18.2740   38.4410  -31.3280 N.am   22  ALA22      -0.1963
     14  CA       -18.4510   39.4340  -32.3490 C.3    22  ALA22       0.1728
     15  C        -18.8300   40.7270  -31.6650 C.2    22  ALA22       0.2616
     16  O        -19.6460   40.7360  -30.7850 O.2    22  ALA22      -0.2715
     17  CB       -19.5510   39.0090  -33.2820 C.3    22  ALA22       0.0334
     18  N        -18.2170   41.8160  -32.0750 N.am   23  GLY23      -0.1955
     19  CA       -18.4700   43.1120  -31.4860 C.3    23  GLY23       0.1869
     20  C        -19.1450   43.9000  -32.5530 C.2    23  GLY23       0.2309
     21  O        -19.5400   43.3050  -33.5270 O.2    23  GLY23      -0.2863
     22  N        -13.8060   39.4690  -32.0820 N.3    28  VAL28      -0.1245
     23  CA       -12.9790   39.6340  -30.8970 C.3    28  VAL28       0.1561
     24  C        -12.2540   38.3210  -30.6660 C.2    28  VAL28       0.2260
     25  O        -12.8800   37.2520  -30.6750 O.2    28  VAL28      -0.2867
     26  CB       -13.8240   40.0270  -29.6720 C.3    28  VAL28       0.0252
     27  CG1      -12.9190   40.3160  -28.4770 C.3    28  VAL28       0.0019
     28  CG2      -14.7100   41.2250  -30.0220 C.3    28  VAL28       0.0019
     29  N         -7.1920   40.1870  -25.0500 N.3    43  ALA43      -0.1245
     30  CA        -8.3200   40.2670  -25.9590 C.3    43  ALA43       0.1562
     31  C         -7.9550   41.2100  -27.0960 C.2    43  ALA43       0.2260
     32  O         -7.3470   42.2590  -26.8740 O.2    43  ALA43      -0.2867
     33  CB        -9.5800   40.7590  -25.2470 C.3    43  ALA43       0.0290
     34  N         -9.5500   43.1380  -30.4050 N.3    45  LYS45      -0.1245
     35  CA       -10.7160   43.5750  -31.1610 C.3    45  LYS45       0.1561
     36  C        -10.2440   44.0850  -32.5150 C.2    45  LYS45       0.2260
     37  O         -9.3400   44.9210  -32.5830 O.2    45  LYS45      -0.2867
     38  CB       -11.4900   44.6670  -30.4180 C.3    45  LYS45       0.0271
     39  CG       -11.8540   44.2900  -28.9860 C.3    45  LYS45       0.0035
     40  CD       -12.4290   45.4720  -28.1900 C.3    45  LYS45       0.0206
     41  CE       -13.9250   45.6220  -28.4340 C.3    45  LYS45       0.1093
     42  NZ       -14.4190   46.9950  -28.1420 N.3    45  LYS45      -0.1314
     43  N        -12.4870   55.0080  -29.1560 N.3    60  GLU60      -0.1245
     44  CA       -12.4230   54.0190  -28.0820 C.3    60  GLU60       0.1567
     45  C        -10.9980   53.8390  -27.5900 C.2    60  GLU60       0.2260
     46  O        -10.7280   53.9200  -26.3850 O.2    60  GLU60      -0.2867
     47  CB       -12.9820   52.6740  -28.5500 C.3    60  GLU60       0.0388
     48  CG       -12.8290   51.5450  -27.5100 C.3    60  GLU60       0.1160
     49  CD       -13.3710   50.1980  -27.9980 C.2    60  GLU60       0.3649
     50  OE1      -13.9170   50.1390  -29.1240 O.co2  60  GLU60      -0.2457
     51  OE2      -13.2530   49.1940  -27.2570 O.co2  60  GLU60      -0.2457
     52  N         -9.6370   54.7550  -23.8250 N.3    64  MET64      -0.1245
     53  CA        -9.0830   53.6990  -22.9770 C.3    64  MET64       0.1570
     54  C         -7.6160   53.9300  -22.6490 C.2    64  MET64       0.2261
     55  O         -7.1670   53.5970  -21.5460 O.2    64  MET64      -0.2867
     56  CB        -9.2540   52.3430  -23.6480 C.3    64  MET64       0.0387
     57  CG       -10.7030   51.9090  -23.7490 C.3    64  MET64       0.0595
     58  SD       -10.8110   50.1810  -24.2510 S.3    64  MET64      -0.1393
     59  CE        -9.7600   49.4370  -23.0050 C.3    64  MET64       0.0692
     60  N        -10.5210   48.2480  -17.2470 N.3    73  ILE73      -0.1245
     61  CA        -9.8180   47.4230  -18.2320 C.3    73  ILE73       0.1561
     62  C         -8.5900   48.1690  -18.7640 C.2    73  ILE73       0.2260
     63  O         -8.6570   49.3600  -19.0750 O.2    73  ILE73      -0.2867
     64  CB       -10.7760   47.0350  -19.3810 C.3    73  ILE73       0.0252
     65  CG1      -11.7660   45.9600  -18.9180 C.3    73  ILE73       0.0019
     66  CG2      -10.0200   46.4640  -20.5600 C.3    73  ILE73       0.0019
     67  CD1      -11.0820   44.6080  -18.6080 C.3    73  ILE73       0.0001
     68  N         -6.3790   44.6210  -25.4270 N.3    89  THR89      -0.1203
     69  CA        -6.6930   44.8430  -24.0180 C.3    89  THR89       0.1994
     70  C         -6.3470   43.6080  -23.2060 C.2    89  THR89       0.2618
     71  O         -6.1650   42.5130  -23.7460 O.2    89  THR89      -0.2717
     72  CB        -8.1830   45.1650  -23.7840 C.3    89  THR89       0.1784
     73  OG1       -8.9970   44.1030  -24.2960 O.3    89  THR89      -0.2211
     74  CG2       -8.5850   46.4590  -24.4460 C.3    89  THR89       0.0376
     75  N         -6.3000   43.7810  -21.8830 N.am   90  GLU90      -0.1965
     76  CA        -6.0320   42.6420  -21.0200 C.3    90  GLU90       0.1733
     77  C         -7.1640   41.6300  -21.1250 C.2    90  GLU90       0.2616
     78  O         -8.3450   41.9880  -21.2270 O.2    90  GLU90      -0.2715
     79  CB        -5.8520   43.0910  -19.5650 C.3    90  GLU90       0.0429
     80  CG        -7.1280   43.5630  -18.9020 C.3    90  GLU90       0.1163
     81  CD        -6.9210   43.9020  -17.4300 C.2    90  GLU90       0.3649
     82  OE1       -7.1180   45.0740  -17.0620 O.co2  90  GLU90      -0.2457
     83  OE2       -6.5730   42.9920  -16.6550 O.co2  90  GLU90      -0.2457
     84  N         -6.7900   40.3590  -21.1190 N.am   91  TYR91      -0.1960
     85  CA        -7.7560   39.2810  -21.1250 C.3    91  TYR91       0.1771
     86  C         -8.2910   39.0600  -19.7150 C.2    91  TYR91       0.2619
     87  O         -7.5570   39.1920  -18.7310 O.2    91  TYR91      -0.2715
     88  CB        -7.1120   38.0000  -21.6520 C.3    91  TYR91       0.0574
     89  CG        -8.0810   36.8510  -21.7640 C.ar   91  TYR91      -0.0198
     90  CD1       -9.1030   36.8790  -22.6900 C.ar   91  TYR91      -0.0009
     91  CD2       -7.9740   35.7360  -20.9350 C.ar   91  TYR91      -0.0009
     92  CE1       -9.9950   35.8310  -22.7980 C.ar   91  TYR91       0.0417
     93  CE2       -8.8560   34.6890  -21.0440 C.ar   91  TYR91       0.0417
     94  CZ        -9.8630   34.7400  -21.9700 C.ar   91  TYR91       0.1957
     95  OH       -10.7560   33.6960  -22.0780 O.3    91  TYR91      -0.2866
     96  N         -9.5760   38.7160  -19.6230 N.am   92  MET92      -0.1963
     97  CA       -10.2640   38.5420  -18.3460 C.3    92  MET92       0.1736
     98  C        -10.8290   37.1300  -18.3010 C.2    92  MET92       0.2616
     99  O        -11.8110   36.8260  -18.9820 O.2    92  MET92      -0.2715
    100  CB       -11.3530   39.6020  -18.1790 C.3    92  MET92       0.0427
    101  CG       -10.7950   41.0360  -18.2110 C.3    92  MET92       0.0599
    102  SD        -9.9060   41.4650  -16.6870 S.3    92  MET92      -0.1393
    103  CE       -11.3140   41.7740  -15.6190 C.3    92  MET92       0.0692
    104  N        -10.2320   36.2880  -17.4610 N.am   93  GLU93      -0.1963
    105  CA       -10.4910   34.8520  -17.5010 C.3    93  GLU93       0.1733
    106  C        -11.9660   34.5060  -17.3230 C.2    93  GLU93       0.2616
    107  O        -12.4360   33.5050  -17.8780 O.2    93  GLU93      -0.2715
    108  CB        -9.6530   34.1520  -16.4240 C.3    93  GLU93       0.0429
    109  CG        -8.1400   34.2410  -16.6290 C.3    93  GLU93       0.1163
    110  CD        -7.5180   35.5830  -16.2110 C.2    93  GLU93       0.3649
    111  OE1       -8.2480   36.5230  -15.8100 O.co2  93  GLU93      -0.2457
    112  OE2       -6.2730   35.6870  -16.2700 O.co2  93  GLU93      -0.2457
    113  N        -12.7160   35.2940  -16.5610 N.am   94  ASN94      -0.1958
    114  CA       -14.0760   34.9020  -16.2060 C.3    94  ASN94       0.1819
    115  C        -15.1480   35.6670  -16.9650 C.2    94  ASN94       0.2622
    116  O        -16.3350   35.4800  -16.6800 O.2    94  ASN94      -0.2715
    117  CB       -14.2860   35.0370  -14.6940 C.3    94  ASN94       0.1195
    118  CG       -13.7210   33.8580  -13.9500 C.2    94  ASN94       0.2630
    119  OD1      -13.9300   32.7200  -14.3560 O.2    94  ASN94      -0.2716
    120  ND2      -12.9680   34.1140  -12.8930 N.am   94  ASN94      -0.0877
    121  N        -14.7700   36.5110  -17.9280 N.am   95  GLY95      -0.1940
    122  CA       -15.7580   37.0670  -18.8410 C.3    95  GLY95       0.2014
    123  C        -16.6830   38.0990  -18.2090 C.2    95  GLY95       0.2638
    124  O        -16.3480   38.7670  -17.2300 O.2    95  GLY95      -0.2714
    125  N        -17.8750   38.2200  -18.7880 N.am   96  ALA96      -0.1977
    126  CA       -18.8160   39.2580  -18.3840 C.3    96  ALA96       0.1597
    127  C        -19.4330   38.9370  -17.0290 C.2    96  ALA96       0.2287
    128  O        -19.7720   37.7860  -16.7350 O.2    96  ALA96      -0.2864
    129  CB       -19.9200   39.4230  -19.4320 C.3    96  ALA96       0.0319
    130  N        -23.0980   37.1500  -16.8920 N.3    99  LYS99      -0.1245
    131  CA       -23.0750   35.7320  -17.2520 C.3    99  LYS99       0.1561
    132  C        -22.3520   34.9010  -16.1990 C.2    99  LYS99       0.2260
    133  O        -22.7890   33.7950  -15.8590 O.2    99  LYS99      -0.2867
    134  CB       -22.4220   35.5570  -18.6290 C.3    99  LYS99       0.0271
    135  CG       -22.2440   34.0890  -19.0650 C.3    99  LYS99       0.0035
    136  CD       -21.7650   34.0000  -20.5300 C.3    99  LYS99       0.0206
    137  CE       -21.2250   32.6160  -20.9020 C.3    99  LYS99       0.1093
    138  NZ       -22.2990   31.6020  -20.9670 N.3    99  LYS99      -0.1314
    139  N        -23.2610   43.4240  -17.8950 N.3   140  ARG140     -0.1231
    140  CA       -22.7310   42.8860  -19.1470 C.3   140  ARG140      0.1694
    141  C        -21.4860   43.6350  -19.6300 C.2   140  ARG140      0.2592
    142  O        -20.7140   43.0740  -20.4170 O.2   140  ARG140     -0.2718
    143  CB       -23.8070   42.9260  -20.2390 C.3   140  ARG140      0.0321
    144  CG       -24.1440   44.3380  -20.6660 C.3   140  ARG140      0.0489
    145  CD       -25.0710   44.4490  -21.8740 C.3   140  ARG140      0.2205
    146  NE       -25.4330   45.8570  -22.0330 N.pl3 140  ARG140     -0.0865
    147  CZ       -26.3550   46.4670  -21.2910 C.cat 140  ARG140      0.5346
    148  NH1      -27.0390   45.7810  -20.3690 N.pl3 140  ARG140      0.1354
    149  NH2      -26.6020   47.7570  -21.4640 N.pl3 140  ARG140      0.1354
    150  N        -21.2680   44.8770  -19.1770 N.am  141  ASN141     -0.1974
    151  CA       -20.1050   45.6780  -19.5550 C.3   141  ASN141      0.1688
    152  C        -19.0120   45.7030  -18.4850 C.2   141  ASN141      0.2292
    153  O        -18.1410   46.5830  -18.5250 O.2   141  ASN141     -0.2864
    154  CB       -20.5440   47.1040  -19.8910 C.3   141  ASN141      0.1181
    155  CG       -21.3000   47.1590  -21.1860 C.2   141  ASN141      0.2629
    156  OD1      -21.0220   46.3700  -22.0810 O.2   141  ASN141     -0.2716
    157  ND2      -22.2730   48.0570  -21.2910 N.am  141  ASN141     -0.0877
    158  N        -16.1130   43.1090  -16.6540 N.3   143  LEU143     -0.1245
    159  CA       -15.4090   41.8350  -16.7870 C.3   143  LEU143      0.1561
    160  C        -14.7740   41.4210  -15.4570 C.2   143  LEU143      0.2260
    161  O        -14.4240   42.2610  -14.6300 O.2   143  LEU143     -0.2867
    162  CB       -14.3320   41.9220  -17.8750 C.3   143  LEU143      0.0270
    163  CG       -14.8840   42.2190  -19.2990 C.3   143  LEU143      0.0019
    164  CD1      -13.8080   42.8050  -20.2070 C.3   143  LEU143      0.0001
    165  CD2      -15.4200   40.9520  -19.9250 C.3   143  LEU143      0.0001
    166  N        -15.5990   48.0930  -18.4910 N.3   153  SER153     -0.1202
    167  CA       -15.1590   48.1130  -19.8780 C.3   153  SER153      0.2020
    168  C        -16.1840   48.8980  -20.6890 C.2   153  SER153      0.2619
    169  O        -17.0050   49.6510  -20.1480 O.2   153  SER153     -0.2717
    170  CB       -14.9640   46.6940  -20.4120 C.3   153  SER153      0.2103
    171  OG       -14.4070   46.7650  -21.7110 O.3   153  SER153     -0.2182
    172  N        -16.1400   48.7200  -22.0120 N.am  154  ASP154     -0.1959
    173  CA       -17.1000   49.3040  -22.9490 C.3   154  ASP154      0.1840
    174  C        -17.0150   50.8310  -22.9320 C.2   154  ASP154      0.2622
    175  O        -17.9140   51.5460  -22.4680 O.2   154  ASP154     -0.2715
    176  CB       -18.5370   48.8460  -22.6670 C.3   154  ASP154      0.1450
    177  CG       -19.4760   49.1400  -23.8430 C.2   154  ASP154      0.3671
    178  OD1      -19.0570   48.8950  -24.9930 O.co2 154  ASP154     -0.2456
    179  OD2      -20.6090   49.6220  -23.6230 O.co2 154  ASP154     -0.2456
    180  N        -15.8980   51.3040  -23.4720 N.am  155  PHE155     -0.1974
    181  CA       -15.6270   52.7170  -23.6500 C.3   155  PHE155      0.1639
    182  C        -15.7710   53.1190  -25.1170 C.2   155  PHE155      0.2290
    183  O        -15.7000   52.2900  -26.0300 O.2   155  PHE155     -0.2864
    184  CB       -14.2260   53.0460  -23.1360 C.3   155  PHE155      0.0560
    185  CG       -14.0260   52.6560  -21.7040 C.ar  155  PHE155     -0.0200
    186  CD1      -14.5250   53.4600  -20.6880 C.ar  155  PHE155     -0.0042
    187  CD2      -13.3870   51.4800  -21.3780 C.ar  155  PHE155     -0.0042
    188  CE1      -14.3690   53.1040  -19.3630 C.ar  155  PHE155     -0.0003
    189  CE2      -13.2210   51.1100  -20.0400 C.ar  155  PHE155     -0.0003
    190  CZ       -13.7200   51.9260  -19.0350 C.ar  155  PHE155     -0.0000
@<TRIPOS>BOND
     1    21    20    2
     2    17    14    1
     3    37    36    2
     4    20    19    1
     5    36    35    1
     6    14    15    1
     7    14    13    1
     8    22    23    1
     9    18    15   am
    10    18    19    1
    11    12    11    2
    12    15    16    2
    13    13    11   am
    14    35    38    1
    15    35    34    1
    16    11    10    1
    17    23    24    1
    18    23    26    1
    19    25    24    2
    20    38    39    1
    21    28    26    1
    22    10     9    1
    23     9     3   am
    24    26    27    1
    25     1     2    1
    26    43    44    1
    27    50    49   ar
    28    39    40    1
    29    47    44    1
    30    47    48    1
    31     3     2    1
    32     3     4    2
    33    41    40    1
    34    41    42    1
    35     2     5    1
    36    44    45    1
    37    49    48    1
    38    49    51   ar
    39    45    46    2
    40     6     5    1
    41     6     8    1
    42     5     7    1
    43    31    32    2
    44    31    30    1
    45   183   182    2
    46    30    33    1
    47    30    29    1
    48    68    69    1
    49   182   181    1
    50   178   177   ar
    51    74    72    1
    52    73    72    1
    53    58    57    1
    54    58    59    1
    55    69    72    1
    56    69    70    1
    57   177   179   ar
    58   177   176    1
    59    52    53    1
    60    57    56    1
    61    71    70    2
    62   181   180    1
    63   181   184    1
    64    56    53    1
    65   180   174   am
    66    70    75   am
    67   184   185    1
    68    53    54    1
    69   173   174    1
    70   173   176    1
    71   173   172    1
    72   174   175    2
    73    92    90   ar
    74    92    94   ar
    75    90    89   ar
    76    54    55    2
    77   156   155    2
    78    95    94    1
    79   146   145    1
    80   146   147    2
    81   172   168   am
    82    94    93   ar
    83    75    76    1
    84   145   144    1
    85    89    88    1
    86    89    91   ar
    87   171   170    1
    88   185   187   ar
    89   185   186   ar
    90    88    85    1
    91   149   147    1
    92   187   189   ar
    93   147   148    1
    94   157   155   am
    95    78    77    2
    96   155   154    1
    97    85    84    1
    98    85    86    1
    99    77    84   am
   100    77    76    1
   101    93    91   ar
   102    76    79    1
   103   138   137    1
   104   137   136    1
   105   168   169    2
   106   168   167    1
   107   186   188   ar
   108   144   143    1
   109    66    64    1
   110   136   135    1
   111   142   141    2
   112   170   167    1
   113   143   140    1
   114   164   163    1
   115   189   190   ar
   116   165   163    1
   117   154   151    1
   118   167   166    1
   119    86    96   am
   120    86    87    2
   121   141   150   am
   122   141   140    1
   123    96    97    1
   124    79    80    1
   125   151   150    1
   126   151   152    1
   127   129   126    1
   128    64    65    1
   129    64    61    1
   130   188   190   ar
   131   163   162    1
   132   140   139    1
   133    63    62    2
   134   135   134    1
   135    99    98    2
   136    65    67    1
   137    80    81    1
   138   122   123    1
   139   122   121    1
   140   125   126    1
   141   125   123   am
   142    62    61    1
   143   134   131    1
   144   153   152    2
   145   126   127    1
   146    97    98    1
   147    97   100    1
   148    98   104   am
   149    61    60    1
   150   101   100    1
   151   101   102    1
   152   123   124    2
   153   121   115   am
   154   107   106    2
   155   162   159    1
   156   105   104    1
   157   105   106    1
   158   105   108    1
   159    81    82   ar
   160    81    83   ar
   161   106   113   am
   162   131   130    1
   163   131   132    1
   164   127   128    2
   165   115   116    2
   166   115   114    1
   167   159   158    1
   168   159   160    1
   169   102   103    1
   170   109   108    1
   171   109   110    1
   172   113   114    1
   173   112   110   ar
   174   110   111   ar
   175   114   117    1
   176   132   133    2
   177   160   161    2
   178   117   118    1
   179   119   118    2
   180   118   120   am
