@<TRIPOS>MOLECULE
tmp/5ia1A00.pdb
 171 161 0 0 0
SMALL
GASTEIGER

@<TRIPOS>ATOM
      1  N        -81.4090  -22.6380    7.3780 N.3    15  ILE15      -0.1231
      2  CA       -81.0950  -21.2260    7.5440 C.3    15  ILE15       0.1692
      3  C        -81.2590  -20.7470    8.9750 C.2    15  ILE15       0.2593
      4  O        -81.1360  -19.5440    9.2230 O.2    15  ILE15      -0.2718
      5  CB       -81.9240  -20.3420    6.5870 C.3    15  ILE15       0.0266
      6  CG1      -83.4230  -20.4500    6.8890 C.3    15  ILE15       0.0019
      7  CG2      -81.6220  -20.7020    5.1310 C.3    15  ILE15       0.0020
      8  CD1      -84.3060  -19.5300    6.0170 C.3    15  ILE15       0.0001
      9  N        -81.5360  -21.6320    9.9260 N.am   16  GLY16      -0.1942
     10  CA       -81.8070  -21.1760   11.2790 C.3    16  GLY16       0.2014
     11  C        -82.0880  -22.3280   12.2220 C.2    16  GLY16       0.2639
     12  O        -82.4120  -23.4440   11.8010 O.2    16  GLY16      -0.2714
     13  N        -81.9740  -22.0210   13.5190 N.am   17  ALA17      -0.1963
     14  CA       -82.1760  -22.9820   14.6010 C.3    17  ALA17       0.1728
     15  C        -83.5970  -22.9490   15.1490 C.2    17  ALA17       0.2616
     16  O        -84.1700  -24.0060   15.4340 O.2    17  ALA17      -0.2715
     17  CB       -81.1800  -22.7220   15.7330 C.3    17  ALA17       0.0334
     18  N        -84.1610  -21.7570   15.3400 N.am   18  GLY18      -0.1955
     19  CA       -85.5890  -21.6050   15.5610 C.3    18  GLY18       0.1869
     20  C        -86.1580  -22.0890   16.8800 C.2    18  GLY18       0.2309
     21  O        -85.5370  -22.8750   17.6020 O.2    18  GLY18      -0.2863
     22  N        -85.0130  -24.3950   10.7340 N.3    23  VAL23      -0.1245
     23  CA       -85.7160  -23.5640    9.7670 C.3    23  VAL23       0.1561
     24  C        -84.9470  -23.6390    8.4600 C.2    23  VAL23       0.2260
     25  O        -83.7180  -23.5160    8.4550 O.2    23  VAL23      -0.2867
     26  CB       -85.8370  -22.1040   10.2410 C.3    23  VAL23       0.0252
     27  CG1      -86.5090  -21.2470    9.1700 C.3    23  VAL23       0.0019
     28  CG2      -86.5970  -22.0420   11.5530 C.3    23  VAL23       0.0019
     29  N        -89.8140  -20.1490    3.3830 N.3    34  ALA34      -0.1245
     30  CA       -89.1660  -20.5840    4.6070 C.3    34  ALA34       0.1562
     31  C        -90.0190  -21.6840    5.2290 C.2    34  ALA34       0.2260
     32  O        -91.2510  -21.6540    5.1420 O.2    34  ALA34      -0.2867
     33  CB       -88.9830  -19.4230    5.5860 C.3    34  ALA34       0.0290
     34  N        -90.4890  -23.8910    8.7290 N.3    36  LYS36      -0.1245
     35  CA       -90.2220  -24.1240   10.1440 C.3    36  LYS36       0.1561
     36  C        -90.7890  -25.4790   10.5450 C.2    36  LYS36       0.2260
     37  O        -91.9610  -25.7710   10.2760 O.2    36  LYS36      -0.2867
     38  CB       -90.8330  -23.0220   11.0160 C.3    36  LYS36       0.0271
     39  CG       -90.6000  -21.6000   10.5000 C.3    36  LYS36       0.0035
     40  CD       -91.1830  -20.5660   11.4660 C.3    36  LYS36       0.0206
     41  CE       -92.0220  -19.5230   10.7350 C.3    36  LYS36       0.1093
     42  NZ       -92.6850  -18.5530   11.6680 N.3    36  LYS36      -0.1314
     43  N        -99.4750  -20.6840   16.7250 N.3    53  GLU53      -0.1245
     44  CA       -98.8350  -19.6240   15.9600 C.3    53  GLU53       0.1567
     45  C        -99.2970  -19.6390   14.5100 C.2    53  GLU53       0.2260
     46  O        -99.7350  -18.6140   13.9740 O.2    53  GLU53      -0.2867
     47  CB       -97.3210  -19.7720   16.0390 C.3    53  GLU53       0.0388
     48  CG       -96.5850  -18.6330   15.3980 C.3    53  GLU53       0.1160
     49  CD       -95.1530  -18.9800   15.1340 C.2    53  GLU53       0.3649
     50  OE1      -94.8280  -19.2940   13.9690 O.co2  53  GLU53      -0.2457
     51  OE2      -94.3590  -18.9580   16.1010 O.co2  53  GLU53      -0.2457
     52  N        -95.9620  -11.2370    8.0660 N.3    66  ILE66      -0.1245
     53  CA       -95.4460  -12.3270    7.2390 C.3    66  ILE66       0.1561
     54  C        -96.6000  -13.1760    6.7210 C.2    66  ILE66       0.2260
     55  O        -97.5110  -13.5500    7.4690 O.2    66  ILE66      -0.2867
     56  CB       -94.4290  -13.1660    8.0410 C.3    66  ILE66       0.0252
     57  CG1      -93.8160  -14.2890    7.2000 C.3    66  ILE66       0.0019
     58  CG2      -95.0550  -13.7590    9.2880 C.3    66  ILE66       0.0019
     59  CD1      -92.6440  -13.8600    6.3790 C.3    66  ILE66       0.0001
     60  N        -93.9100  -20.3570    5.2540 N.3    82  THR82      -0.1203
     61  CA       -94.1540  -18.9300    5.0910 C.3    82  THR82       0.1994
     62  C        -93.4670  -18.4210    3.8320 C.2    82  THR82       0.2618
     63  O        -92.5920  -19.0870    3.2680 O.2    82  THR82      -0.2717
     64  CB       -93.6520  -18.1330    6.3060 C.3    82  THR82       0.1784
     65  OG1      -92.2180  -18.1330    6.3120 O.3    82  THR82      -0.2211
     66  CG2      -94.1820  -18.7390    7.6090 C.3    82  THR82       0.0376
     67  N        -93.8690  -17.2250    3.3960 N.am   83  GLU83      -0.1965
     68  CA       -93.1730  -16.5650    2.2950 C.3    83  GLU83       0.1733
     69  C        -91.7120  -16.3730    2.6660 C.2    83  GLU83       0.2616
     70  O        -91.3740  -16.1210    3.8290 O.2    83  GLU83      -0.2715
     71  CB       -93.8050  -15.2010    1.9590 C.3    83  GLU83       0.0429
     72  CG       -93.7060  -14.1640    3.0800 C.3    83  GLU83       0.1163
     73  CD       -94.3270  -12.8090    2.7330 C.2    83  GLU83       0.3649
     74  OE1      -94.1600  -12.3260    1.5960 O.co2  83  GLU83      -0.2457
     75  OE2      -94.9890  -12.2190    3.6090 O.co2  83  GLU83      -0.2457
     76  N        -90.8410  -16.5340    1.6810 N.am   84  TYR84      -0.1960
     77  CA       -89.4270  -16.3250    1.9110 C.3    84  TYR84       0.1771
     78  C        -89.1340  -14.8390    1.7990 C.2    84  TYR84       0.2619
     79  O        -89.6440  -14.1600    0.9090 O.2    84  TYR84      -0.2715
     80  CB       -88.6020  -17.1380    0.9090 C.3    84  TYR84       0.0574
     81  CG       -87.1160  -16.9800    1.0650 C.ar   84  TYR84      -0.0198
     82  CD1      -86.4350  -17.5730    2.1150 C.ar   84  TYR84      -0.0009
     83  CD2      -86.3890  -16.2240    0.1550 C.ar   84  TYR84      -0.0009
     84  CE1      -85.0620  -17.4180    2.2580 C.ar   84  TYR84       0.0417
     85  CE2      -85.0260  -16.0640    0.2870 C.ar   84  TYR84       0.0417
     86  CZ       -84.3640  -16.6590    1.3370 C.ar   84  TYR84       0.1957
     87  OH       -82.9930  -16.4930    1.4480 O.3    84  TYR84      -0.2866
     88  N        -88.3380  -14.3290    2.7230 N.am   85  MET85      -0.1963
     89  CA       -88.0400  -12.9040    2.7880 C.3    85  MET85       0.1736
     90  C        -86.5740  -12.7160    2.3960 C.2    85  MET85       0.2616
     91  O        -85.6650  -13.0890    3.1450 O.2    85  MET85      -0.2715
     92  CB       -88.3690  -12.3490    4.1760 C.3    85  MET85       0.0427
     93  CG       -89.9010  -12.3090    4.4810 C.3    85  MET85       0.0599
     94  SD       -90.9020  -11.1010    3.5310 S.3    85  MET85      -0.1393
     95  CE       -90.4530   -9.5580    4.3550 C.3    85  MET85       0.0692
     96  N        -86.3570  -12.1280    1.2150 N.am   86  GLU86      -0.1963
     97  CA       -85.0790  -12.2680    0.5280 C.3    86  GLU86       0.1733
     98  C        -83.9440  -11.5910    1.2820 C.2    86  GLU86       0.2616
     99  O        -82.7990  -12.0570    1.2230 O.2    86  GLU86      -0.2715
    100  CB       -85.1970  -11.7190   -0.8980 C.3    86  GLU86       0.0429
    101  CG       -86.3620  -12.3500   -1.6880 C.3    86  GLU86       0.1163
    102  CD       -87.7320  -11.7160   -1.3840 C.2    86  GLU86       0.3649
    103  OE1      -88.7390  -12.4500   -1.3160 O.co2  86  GLU86      -0.2457
    104  OE2      -87.8220  -10.4840   -1.2320 O.co2  86  GLU86      -0.2457
    105  N        -84.2300  -10.5240    2.0190 N.am   87  ASN87      -0.1958
    106  CA       -83.1670   -9.7720    2.6680 C.3    87  ASN87       0.1819
    107  C        -83.0030  -10.0880    4.1590 C.2    87  ASN87       0.2622
    108  O        -82.1220   -9.5100    4.8090 O.2    87  ASN87      -0.2715
    109  CB       -83.4060   -8.2860    2.4280 C.3    87  ASN87       0.1195
    110  CG       -83.1270   -7.9000    0.9810 C.2    87  ASN87       0.2630
    111  OD1      -82.1020   -8.2840    0.4260 O.2    87  ASN87      -0.2716
    112  ND2      -84.0390   -7.1680    0.3620 N.am   87  ASN87      -0.0877
    113  N        -83.7800  -11.0250    4.7030 N.am   88  GLY88      -0.1940
    114  CA       -83.5190  -11.5150    6.0500 C.3    88  GLY88       0.2014
    115  C        -83.9780  -10.5580    7.1390 C.2    88  GLY88       0.2638
    116  O        -84.8530   -9.7060    6.9460 O.2    88  GLY88      -0.2714
    117  N        -83.3590  -10.7030    8.3070 N.am   89  ALA89      -0.1977
    118  CA       -83.7340   -9.9100    9.4730 C.3    89  ALA89       0.1597
    119  C        -83.2950   -8.4560    9.3200 C.2    89  ALA89       0.2287
    120  O        -82.1860   -8.1740    8.8640 O.2    89  ALA89      -0.2864
    121  CB       -83.1130  -10.5110   10.7400 C.3    89  ALA89       0.0319
    122  N        -79.8240   -7.1960   11.0460 N.3    92  LYS92      -0.1245
    123  CA       -78.6410   -7.6350   10.3060 C.3    92  LYS92       0.1561
    124  C        -78.5480   -6.9380    8.9560 C.2    92  LYS92       0.2260
    125  O        -77.4600   -6.5190    8.5310 O.2    92  LYS92      -0.2867
    126  CB       -78.6900   -9.1540   10.1170 C.3    92  LYS92       0.0271
    127  CG       -77.3410   -9.8110    9.7910 C.3    92  LYS92       0.0035
    128  CD       -77.5050  -11.3340    9.6530 C.3    92  LYS92       0.0206
    129  CE       -76.1710  -12.0720    9.6300 C.3    92  LYS92       0.1093
    130  NZ       -75.3850  -11.8060    8.3900 N.3    92  LYS92      -0.1314
    131  N        -84.6070   -7.3270   15.1030 N.3   133  ARG133     -0.1231
    132  CA       -84.2740   -8.7270   14.8320 C.3   133  ARG133      0.1694
    133  C        -85.5100   -9.5790   14.5670 C.2   133  ARG133      0.2592
    134  O        -85.3860  -10.7040   14.0630 O.2   133  ARG133     -0.2718
    135  CB       -83.4900   -9.3250   16.0000 C.3   133  ARG133      0.0321
    136  CG       -84.3190   -9.4240   17.2670 C.3   133  ARG133      0.0489
    137  CD       -83.5170   -9.9570   18.4460 C.3   133  ARG133      0.2205
    138  NE       -84.2890   -9.7230   19.6670 N.pl3 133  ARG133     -0.0865
    139  CZ       -84.1610   -8.6530   20.4480 C.cat 133  ARG133      0.5346
    140  NH1      -83.2650   -7.7080   20.1850 N.pl3 133  ARG133      0.1354
    141  NH2      -84.9390   -8.5330   21.5060 N.pl3 133  ARG133      0.1354
    142  N        -86.6980   -9.0860   14.9100 N.am  134  ASN134     -0.1974
    143  CA       -87.9290   -9.8200   14.6580 C.3   134  ASN134      0.1688
    144  C        -88.7190   -9.2610   13.4670 C.2   134  ASN134      0.2292
    145  O        -89.8550   -9.6830   13.2380 O.2   134  ASN134     -0.2864
    146  CB       -88.7750   -9.8510   15.9480 C.3   134  ASN134      0.1181
    147  CG       -88.1800  -10.7720   17.0070 C.2   134  ASN134      0.2629
    148  OD1      -87.6750  -11.8410   16.6790 O.2   134  ASN134     -0.2716
    149  ND2      -88.2190  -10.3540   18.2820 N.am  134  ASN134     -0.0877
    150  N        -88.6420   -8.8700    9.2380 N.3   136  LEU136     -0.1245
    151  CA       -87.9710   -9.3500    8.0330 C.3   136  LEU136      0.1561
    152  C        -88.1770   -8.3740    6.8750 C.2   136  LEU136      0.2260
    153  O        -89.1230   -7.5830    6.8610 O.2   136  LEU136     -0.2867
    154  CB       -88.4730  -10.7490    7.6350 C.3   136  LEU136      0.0270
    155  CG       -88.1700  -11.9090    8.5950 C.3   136  LEU136      0.0019
    156  CD1      -89.0800  -13.1090    8.3080 C.3   136  LEU136      0.0001
    157  CD2      -86.7430  -12.3200    8.4830 C.3   136  LEU136      0.0001
    158  N        -92.6800  -10.5080   12.1630 N.3   146  SER146     -0.1202
    159  CA       -92.7400  -11.9510   12.4020 C.3   146  SER146      0.2020
    160  C        -92.5510  -12.2080   13.8950 C.2   146  SER146      0.2618
    161  O        -92.8140  -11.3490   14.7500 O.2   146  SER146     -0.2717
    162  CB       -91.7500  -12.6580   11.4610 C.3   146  SER146      0.2103
    163  OG       -91.6860  -14.0380   11.7830 O.3   146  SER146     -0.2182
    164  N        -92.1610  -13.4260   14.2240 N.am  147  ASP147     -0.1973
    165  CA       -91.7850  -13.8920   15.5520 C.3   147  ASP147      0.1709
    166  C        -93.0430  -14.0720   16.3120 C.2   147  ASP147      0.2293
    167  O        -93.4050  -15.1310   16.6900 O.2   147  ASP147     -0.2864
    168  CB       -90.9440  -12.9100   16.3850 C.3   147  ASP147      0.1436
    169  CG       -90.4530  -13.5290   17.7300 C.2   147  ASP147      0.3671
    170  OD1      -90.2400  -14.7510   17.7790 O.co2 147  ASP147     -0.2456
    171  OD2      -90.2810  -12.8240   18.7300 O.co2 147  ASP147     -0.2456
@<TRIPOS>BOND
     1   101   102    1
     2   101   100    1
     3   102   103   ar
     4   102   104   ar
     5   100    97    1
     6    83    85   ar
     7    83    81   ar
     8    85    86   ar
     9   112   110   am
    10   111   110    2
    11    97    96    1
    12    97    98    1
    13    79    78    2
    14    80    81    1
    15    80    77    1
    16   110   109    1
    17    81    82   ar
    18    96    90   am
    19    99    98    2
    20    98   105   am
    21    86    87    1
    22    86    84   ar
    23    74    73   ar
    24    76    77    1
    25    76    69   am
    26    78    77    1
    27    78    88   am
    28    71    68    1
    29    71    72    1
    30   105   106    1
    31    82    84   ar
    32    68    69    1
    33    68    67    1
    34    90    89    1
    35    90    91    2
    36   109   106    1
    37    69    70    2
    38   106   107    1
    39    88    89    1
    40    73    72    1
    41    73    75   ar
    42    89    92    1
    43    63    62    2
    44    29    30    1
    45    67    62   am
    46    94    95    1
    47    94    93    1
    48    62    61    1
    49   107   113   am
    50   107   108    2
    51    92    93    1
    52    30    31    1
    53    30    33    1
    54   113   114    1
    55    61    60    1
    56    61    64    1
    57     7     5    1
    58    32    31    2
    59     8     6    1
    60   114   115    1
    61    64    65    1
    62    64    66    1
    63    59    57    1
    64     5     6    1
    65     5     2    1
    66    54    53    1
    67    54    55    2
    68   153   152    2
    69   152   151    1
    70   116   115    2
    71   115   117   am
    72    57    56    1
    73    53    56    1
    74    53    52    1
    75     1     2    1
    76     2     3    1
    77   154   151    1
    78   154   155    1
    79   151   150    1
    80    56    58    1
    81   117   118    1
    82   156   155    1
    83   130   129    1
    84    25    24    2
    85    24    23    1
    86   157   155    1
    87   125   124    2
    88    34    35    1
    89   120   119    2
    90   124   123    1
    91     3     4    2
    92     3     9   am
    93    27    26    1
    94   119   118    1
    95   118   121    1
    96   129   128    1
    97   128   127    1
    98    23    26    1
    99    23    22    1
   100   127   126    1
   101     9    10    1
   102   126   123    1
   103    35    36    1
   104    35    38    1
   105    26    28    1
   106    37    36    2
   107   123   122    1
   108    39    38    1
   109    39    40    1
   110    41    40    1
   111    41    42    1
   112    10    11    1
   113   162   163    1
   114   162   159    1
   115    12    11    2
   116   158   159    1
   117    11    13   am
   118   159   160    1
   119   145   144    2
   120   144   143    1
   121    13    14    1
   122   160   164   am
   123   160   161    2
   124    50    49   ar
   125    46    45    2
   126   134   133    2
   127   164   165    1
   128    45    44    1
   129   133   132    1
   130   133   142   am
   131    14    15    1
   132    14    17    1
   133   143   142    1
   134   143   146    1
   135   132   131    1
   136   132   135    1
   137    49    48    1
   138    49    51   ar
   139    15    18   am
   140    15    16    2
   141    18    19    1
   142    48    47    1
   143   165   166    1
   144   165   168    1
   145    19    20    1
   146   146   147    1
   147    44    47    1
   148    44    43    1
   149   135   136    1
   150   166   167    2
   151   168   169    1
   152   148   147    2
   153    20    21    2
   154   147   149   am
   155   136   137    1
   156   169   170   ar
   157   169   171   ar
   158   137   138    1
   159   138   139    2
   160   140   139    1
   161   139   141    1
