@<TRIPOS>MOLECULE
tmp/5ia2A00.pdb
 176 164 0 0 0
SMALL
GASTEIGER

@<TRIPOS>ATOM
      1  N        -82.5000  -17.1400    6.8000 N.3    22  ILE22      -0.1245
      2  CA       -82.4350  -15.7010    7.0140 C.3    22  ILE22       0.1561
      3  C        -82.6230  -15.3300    8.4730 C.2    22  ILE22       0.2260
      4  O        -82.5830  -14.1430    8.8090 O.2    22  ILE22      -0.2867
      5  CB       -83.4510  -14.9460    6.1320 C.3    22  ILE22       0.0252
      6  CG1      -84.8920  -15.3840    6.4390 C.3    22  ILE22       0.0019
      7  CG2      -83.1240  -15.1490    4.6610 C.3    22  ILE22       0.0019
      8  CD1      -85.9230  -14.6720    5.5830 C.3    22  ILE22       0.0001
      9  N        -85.8070  -19.2420   10.3740 N.3    30  VAL30      -0.1245
     10  CA       -86.5440  -18.4350    9.4110 C.3    30  VAL30       0.1561
     11  C        -85.8660  -18.5850    8.0580 C.2    30  VAL30       0.2260
     12  O        -84.6390  -18.4390    7.9490 O.2    30  VAL30      -0.2867
     13  CB       -86.5940  -16.9560    9.8310 C.3    30  VAL30       0.0252
     14  CG1      -87.5810  -16.1840    8.9600 C.3    30  VAL30       0.0019
     15  CG2      -86.9310  -16.8440   11.3060 C.3    30  VAL30       0.0019
     16  N        -91.6050  -15.8080    3.2510 N.3    43  ALA43      -0.1231
     17  CA       -90.8000  -16.0510    4.4360 C.3    43  ALA43       0.1694
     18  C        -91.4380  -17.1710    5.2500 C.2    43  ALA43       0.2592
     19  O        -92.6670  -17.2960    5.3220 O.2    43  ALA43      -0.2718
     20  CB       -90.6670  -14.7820    5.2770 C.3    43  ALA43       0.0304
     21  N        -90.5950  -17.9930    5.8630 N.am   44  ILE44      -0.1966
     22  CA       -91.0350  -19.2120    6.5240 C.3    44  ILE44       0.1727
     23  C        -90.3860  -19.2860    7.8950 C.2    44  ILE44       0.2616
     24  O        -89.1530  -19.2520    8.0040 O.2    44  ILE44      -0.2715
     25  CB       -90.6910  -20.4620    5.6990 C.3    44  ILE44       0.0290
     26  CG1      -91.3520  -20.3750    4.3230 C.3    44  ILE44       0.0022
     27  CG2      -91.1060  -21.7090    6.4630 C.3    44  ILE44       0.0023
     28  CD1      -90.5920  -21.0950    3.2250 C.3    44  ILE44       0.0001
     29  N        -91.2110  -19.3820    8.9360 N.am   45  LYS45      -0.1977
     30  CA       -90.7530  -19.5880   10.3060 C.3    45  LYS45       0.1596
     31  C        -91.1300  -20.9980   10.7410 C.2    45  LYS45       0.2287
     32  O        -92.2910  -21.3940   10.6020 O.2    45  LYS45      -0.2864
     33  CB       -91.3860  -18.5640   11.2550 C.3    45  LYS45       0.0298
     34  CG       -90.9730  -18.7530   12.7050 C.3    45  LYS45       0.0038
     35  CD       -91.7100  -17.8280   13.6680 C.3    45  LYS45       0.0206
     36  CE       -91.1810  -18.0490   15.0850 C.3    45  LYS45       0.1093
     37  NZ       -92.0310  -17.4140   16.1310 N.3    45  LYS45      -0.1314
     38  N        -99.6970  -17.1790   17.0850 N.3    62  GLU62      -0.1245
     39  CA       -99.2740  -16.0380   16.2750 C.3    62  GLU62       0.1567
     40  C        -99.9580  -16.0460   14.9150 C.2    62  GLU62       0.2260
     41  O       -100.4210  -15.0020   14.4360 O.2    62  GLU62      -0.2867
     42  CB       -97.7510  -16.0110   16.1060 C.3    62  GLU62       0.0388
     43  CG       -97.3430  -15.0280   14.9910 C.3    62  GLU62       0.1160
     44  CD       -95.9000  -14.5780   15.0350 C.2    62  GLU62       0.3649
     45  OE1      -95.0200  -15.3960   15.3450 O.co2  62  GLU62      -0.2457
     46  OE2      -95.6480  -13.3800   14.7380 O.co2  62  GLU62      -0.2457
     47  N       -102.3150  -13.2310   13.2840 N.3    66  MET66      -0.1245
     48  CA      -101.9510  -12.6280   12.0050 C.3    66  MET66       0.1570
     49  C       -103.0470  -12.8170   10.9600 C.2    66  MET66       0.2261
     50  O       -103.2870  -11.9300   10.1320 O.2    66  MET66      -0.2867
     51  CB      -100.6300  -13.2270   11.5090 C.3    66  MET66       0.0387
     52  CG      -100.0050  -12.4570   10.3410 C.3    66  MET66       0.0595
     53  SD       -98.4810  -13.2040    9.7360 S.3    66  MET66      -0.1393
     54  CE       -97.6830  -13.4860   11.3090 C.3    66  MET66       0.0692
     55  N        -97.7180   -7.5020    8.2020 N.3    75  ILE75      -0.1245
     56  CA       -97.2430   -8.6520    7.4320 C.3    75  ILE75       0.1561
     57  C        -98.3990   -9.6130    7.1590 C.2    75  ILE75       0.2260
     58  O        -99.1910   -9.9370    8.0540 O.2    75  ILE75      -0.2867
     59  CB       -96.0710   -9.3270    8.1670 C.3    75  ILE75       0.0252
     60  CG1      -95.3970  -10.3340    7.2480 C.3    75  ILE75       0.0019
     61  CG2      -96.5040   -9.9610    9.4960 C.3    75  ILE75       0.0019
     62  CD1      -94.3870   -9.6920    6.3370 C.3    75  ILE75       0.0001
     63  N        -95.0090  -21.2530    9.8270 N.3    89  ILE89      -0.1245
     64  CA       -95.8060  -20.0730    9.5140 C.3    89  ILE89       0.1561
     65  C        -95.2070  -19.4500    8.2630 C.2    89  ILE89       0.2260
     66  O        -94.0100  -19.1460    8.2280 O.2    89  ILE89      -0.2867
     67  CB       -95.8230  -19.0610   10.6720 C.3    89  ILE89       0.0252
     68  CG1      -96.4080  -19.6870   11.9360 C.3    89  ILE89       0.0019
     69  CG2      -96.5970  -17.7950   10.2640 C.3    89  ILE89       0.0019
     70  CD1      -96.3100  -18.7930   13.1640 C.3    89  ILE89       0.0001
     71  N        -95.3660  -16.4310    5.4360 N.3    91  THR91      -0.1203
     72  CA       -95.8190  -15.0650    5.2050 C.3    91  THR91       0.1994
     73  C        -95.3280  -14.5560    3.8580 C.2    91  THR91       0.2618
     74  O        -94.4650  -15.1570    3.2080 O.2    91  THR91      -0.2717
     75  CB       -95.3250  -14.1030    6.3050 C.3    91  THR91       0.1784
     76  OG1      -93.9150  -13.8910    6.1530 O.3    91  THR91      -0.2211
     77  CG2      -95.5970  -14.6510    7.7010 C.3    91  THR91       0.0376
     78  N        -95.8500  -13.3990    3.4560 N.am   92  GLU92      -0.1965
     79  CA       -95.2420  -12.6850    2.3400 C.3    92  GLU92       0.1733
     80  C        -93.7630  -12.4420    2.6270 C.2    92  GLU92       0.2616
     81  O        -93.3300  -12.3960    3.7830 O.2    92  GLU92      -0.2715
     82  CB       -95.9580  -11.3550    2.0810 C.3    92  GLU92       0.0429
     83  CG       -95.8450  -10.3550    3.2050 C.3    92  GLU92       0.1163
     84  CD       -96.5190   -9.0270    2.8930 C.2    92  GLU92       0.3649
     85  OE1      -96.3570   -8.5060    1.7690 O.co2  92  GLU92      -0.2457
     86  OE2      -97.2180   -8.5120    3.7800 O.co2  92  GLU92      -0.2457
     87  N        -92.9780  -12.3320    1.5600 N.am   93  TYR93      -0.1960
     88  CA       -91.5380  -12.1480    1.6730 C.3    93  TYR93       0.1771
     89  C        -91.1930  -10.6720    1.5730 C.2    93  TYR93       0.2619
     90  O        -91.6340   -9.9800    0.6480 O.2    93  TYR93      -0.2715
     91  CB       -90.7850  -12.9260    0.5970 C.3    93  TYR93       0.0574
     92  CG       -89.2890  -12.7530    0.6810 C.ar   93  TYR93      -0.0198
     93  CD1      -88.5910  -13.1280    1.8180 C.ar   93  TYR93      -0.0009
     94  CD2      -88.5730  -12.2090   -0.3800 C.ar   93  TYR93      -0.0009
     95  CE1      -87.2110  -12.9600    1.8950 C.ar   93  TYR93       0.0417
     96  CE2      -87.1970  -12.0450   -0.3110 C.ar   93  TYR93       0.0417
     97  CZ       -86.5280  -12.4260    0.8240 C.ar   93  TYR93       0.1957
     98  OH       -85.1600  -12.2580    0.8810 O.3    93  TYR93      -0.2866
     99  N        -90.3800  -10.2070    2.5100 N.am   94  MET94      -0.1963
    100  CA       -89.9530   -8.8210    2.5690 C.3    94  MET94       0.1736
    101  C        -88.4770   -8.7790    2.1870 C.2    94  MET94       0.2616
    102  O        -87.6090   -9.1630    2.9780 O.2    94  MET94      -0.2715
    103  CB       -90.2270   -8.2600    3.9620 C.3    94  MET94       0.0427
    104  CG       -91.6860   -8.4930    4.3860 C.3    94  MET94       0.0599
    105  SD       -92.8740   -7.5200    3.4440 S.3    94  MET94      -0.1393
    106  CE       -92.6070   -5.8810    4.1440 C.3    94  MET94       0.0692
    107  N        -88.2040   -8.2950    0.9700 N.am   95  GLU95      -0.1977
    108  CA       -86.8980   -8.4900    0.3400 C.3    95  GLU95       0.1602
    109  C        -85.7610   -7.8270    1.1090 C.2    95  GLU95       0.2287
    110  O        -84.6050   -8.2520    0.9950 O.2    95  GLU95      -0.2864
    111  CB       -86.9320   -7.9370   -1.0900 C.3    95  GLU95       0.0415
    112  CG       -87.8360   -8.6780   -2.0830 C.3    95  GLU95       0.1163
    113  CD       -89.2760   -8.1710   -2.1200 C.2    95  GLU95       0.3649
    114  OE1      -89.7110   -7.4670   -1.1840 O.co2  95  GLU95      -0.2457
    115  OE2      -89.9790   -8.4720   -3.1110 O.co2  95  GLU95      -0.2457
    116  N        -85.6270   -7.2160    4.5500 N.3    97  GLY97      -0.1210
    117  CA       -85.3730   -7.6630    5.9090 C.3    97  GLY97       0.1956
    118  C        -85.8390   -6.6840    6.9720 C.2    97  GLY97       0.2611
    119  O        -86.7000   -5.8190    6.7600 O.2    97  GLY97      -0.2717
    120  N        -85.2270   -6.8360    8.1430 N.am   98  ALA98      -0.1979
    121  CA       -85.6110   -6.0520    9.3060 C.3    98  ALA98       0.1597
    122  C        -85.1150   -4.6170    9.1770 C.2    98  ALA98       0.2287
    123  O        -83.9850   -4.3610    8.7420 O.2    98  ALA98      -0.2864
    124  CB       -85.0540   -6.6910   10.5700 C.3    98  ALA98       0.0319
    125  N        -86.5050   -3.5800   14.8710 N.3   142  ARG142     -0.1231
    126  CA       -86.1780   -4.9820   14.6240 C.3   142  ARG142      0.1694
    127  C        -87.4090   -5.8140   14.2870 C.2   142  ARG142      0.2592
    128  O        -87.2680   -6.9040   13.7210 O.2   142  ARG142     -0.2718
    129  CB       -85.4530   -5.5780   15.8330 C.3   142  ARG142      0.0321
    130  CG       -86.2790   -5.5890   17.1050 C.3   142  ARG142      0.0489
    131  CD       -85.5020   -6.1370   18.3030 C.3   142  ARG142      0.2205
    132  NE       -86.2960   -5.9310   19.5170 N.pl3 142  ARG142     -0.0865
    133  CZ       -86.3170   -4.8030   20.2180 C.cat 142  ARG142      0.5346
    134  NH1      -85.5500   -3.7690   19.8650 N.pl3 142  ARG142      0.1354
    135  NH2      -87.1110   -4.7140   21.2860 N.pl3 142  ARG142      0.1354
    136  N        -88.6080   -5.3310   14.6210 N.am  143  ASN143     -0.1974
    137  CA       -89.8380   -6.0440   14.3120 C.3   143  ASN143      0.1688
    138  C        -90.6030   -5.4450   13.1440 C.2   143  ASN143      0.2292
    139  O        -91.7470   -5.8420   12.8960 O.2   143  ASN143     -0.2864
    140  CB       -90.7270   -6.1130   15.5550 C.3   143  ASN143      0.1181
    141  CG       -90.2730   -7.2000   16.5040 C.2   143  ASN143      0.2629
    142  OD1      -89.7400   -8.2190   16.0660 O.2   143  ASN143     -0.2716
    143  ND2      -90.4480   -6.9840   17.8040 N.am  143  ASN143     -0.0877
    144  N        -90.5360   -5.0830    9.0000 N.3   145  LEU145     -0.1245
    145  CA       -89.9010   -5.6440    7.8130 C.3   145  LEU145      0.1561
    146  C        -90.1270   -4.7270    6.6150 C.2   145  LEU145      0.2260
    147  O        -91.1290   -4.0170    6.5460 O.2   145  LEU145     -0.2867
    148  CB       -90.4460   -7.0500    7.5230 C.3   145  LEU145      0.0270
    149  CG       -90.0710   -8.0810    8.5940 C.3   145  LEU145      0.0019
    150  CD1      -91.0140   -9.2930    8.5590 C.3   145  LEU145      0.0001
    151  CD2      -88.6120   -8.5110    8.4320 C.3   145  LEU145      0.0001
    152  N        -94.5150   -6.7460   12.2260 N.3   155  SER155     -0.1202
    153  CA       -94.5210   -8.1950   12.4270 C.3   155  SER155      0.2020
    154  C        -94.3610   -8.4930   13.9120 C.2   155  SER155      0.2618
    155  O        -94.3010   -7.5790   14.7310 O.2   155  SER155     -0.2717
    156  CB       -93.4220   -8.8930   11.6200 C.3   155  SER155      0.2103
    157  OG       -92.1470   -8.5650   12.1300 O.3   155  SER155     -0.2182
    158  N        -94.3100   -9.7970   14.2430 N.am  156  ASP156     -0.1973
    159  CA       -94.0590  -10.3300   15.5840 C.3   156  ASP156      0.1709
    160  C        -95.3000  -10.2140   16.4660 C.2   156  ASP156      0.2293
    161  O        -95.4390   -9.2630   17.2380 O.2   156  ASP156     -0.2864
    162  CB       -92.8510   -9.6510   16.2530 C.3   156  ASP156      0.1436
    163  CG       -92.3670  -10.4100   17.4740 C.2   156  ASP156      0.3671
    164  OD1      -92.8790  -11.5240   17.7210 O.co2 156  ASP156     -0.2456
    165  OD2      -91.4790   -9.9070   18.1800 O.co2 156  ASP156     -0.2456
    166  N        -95.4110  -15.1140   24.0300 N.3   161  ARG161     -0.1245
    167  CA       -94.2370  -15.4510   23.2290 C.3   161  ARG161      0.1563
    168  C        -93.4960  -14.2200   22.7250 C.2   161  ARG161      0.2260
    169  O        -92.2920  -14.3070   22.4700 O.2   161  ARG161     -0.2867
    170  CB       -94.6210  -16.3270   22.0310 C.3   161  ARG161      0.0307
    171  CG       -95.5290  -15.6570   20.9950 C.3   161  ARG161      0.0489
    172  CD       -95.2350  -16.1950   19.5920 C.3   161  ARG161      0.2205
    173  NE       -93.8200  -16.0050   19.3030 N.pl3 161  ARG161     -0.0865
    174  CZ       -93.3070  -14.9070   18.7570 C.cat 161  ARG161      0.5346
    175  NH1      -94.1110  -13.9130   18.3770 N.pl3 161  ARG161      0.1354
    176  NH2      -91.9890  -14.8100   18.5790 N.pl3 161  ARG161      0.1354
@<TRIPOS>BOND
     1   115   113   ar
     2   113   112    1
     3   113   114   ar
     4   112   111    1
     5   111   108    1
     6    94    96   ar
     7    94    92   ar
     8    96    97   ar
     9   108   107    1
    10   108   109    1
    11    91    92    1
    12    91    88    1
    13    90    89    2
    14    92    93   ar
    15    97    98    1
    16    97    95   ar
    17   107   101   am
    18   110   109    2
    19    87    88    1
    20    87    80   am
    21    89    88    1
    22    89    99   am
    23    85    84   ar
    24    93    95   ar
    25    82    79    1
    26    82    83    1
    27   101   100    1
    28   101   102    2
    29    79    80    1
    30    79    78    1
    31    99   100    1
    32   100   103    1
    33    80    81    2
    34    84    83    1
    35    84    86   ar
    36    74    73    2
    37    28    26    1
    38    16    17    1
    39   105   106    1
    40   105   104    1
    41    78    73   am
    42    73    72    1
    43   103   104    1
    44    26    25    1
    45    17    18    1
    46    17    20    1
    47   116   117    1
    48     7     5    1
    49    72    71    1
    50    72    75    1
    51    18    19    2
    52    18    21   am
    53     8     6    1
    54    25    27    1
    55    25    22    1
    56    21    22    1
    57   117   118    1
    58     5     6    1
    59     5     2    1
    60    76    75    1
    61    75    77    1
    62    62    60    1
    63    22    23    1
    64   147   146    2
    65   146   145    1
    66   119   118    2
    67     1     2    1
    68   118   120   am
    69     2     3    1
    70    57    56    1
    71    57    58    2
    72    60    59    1
    73    56    59    1
    74    56    55    1
    75   148   145    1
    76   148   149    1
    77   145   144    1
    78    23    24    2
    79    23    29   am
    80    12    11    2
    81    11    10    1
    82   120   121    1
    83    59    61    1
    84    66    65    2
    85    65    64    1
    86   151   149    1
    87     3     4    2
    88   150   149    1
    89   123   122    2
    90    29    30    1
    91    14    13    1
    92   122   121    1
    93   121   124    1
    94    10    13    1
    95    10     9    1
    96    64    63    1
    97    64    67    1
    98    53    52    1
    99    53    54    1
   100    13    15    1
   101    50    49    2
   102    69    67    1
   103    30    31    1
   104    30    33    1
   105    52    51    1
   106    32    31    2
   107    67    68    1
   108    49    48    1
   109    33    34    1
   110    51    48    1
   111   156   157    1
   112   156   153    1
   113    68    70    1
   114    48    47    1
   115   152   153    1
   116   153   154    1
   117    34    35    1
   118   139   138    2
   119   138   137    1
   120    35    36    1
   121   128   127    2
   122   154   158   am
   123   154   155    2
   124   158   159    1
   125   127   136   am
   126   127   126    1
   127   137   136    1
   128   137   140    1
   129    41    40    2
   130   126   125    1
   131   126   129    1
   132    46    44   ar
   133    40    39    1
   134    43    44    1
   135    43    42    1
   136    44    45   ar
   137    36    37    1
   138   140   141    1
   139   159   162    1
   140   159   160    1
   141   129   130    1
   142   142   141    2
   143    42    39    1
   144   162   163    1
   145    39    38    1
   146   160   161    2
   147   141   143   am
   148   130   131    1
   149   163   164   ar
   150   163   165   ar
   151   131   132    1
   152   175   174    1
   153   176   174    1
   154   174   173    2
   155   173   172    1
   156   132   133    2
   157   172   171    1
   158   134   133    1
   159   133   135    1
   160   171   170    1
   161   170   167    1
   162   169   168    2
   163   168   167    1
   164   167   166    1
