@<TRIPOS>MOLECULE
tmp/5ia3A00.pdb
 185 173 0 0 0
SMALL
GASTEIGER

@<TRIPOS>ATOM
      1  N       -108.3600  -24.5310   78.7880 N.3    16  LYS16      -0.1245
      2  CA      -107.2590  -23.8370   79.4430 C.3    16  LYS16       0.1561
      3  C       -107.7000  -23.3970   80.8280 C.2    16  LYS16       0.2260
      4  O       -108.7680  -22.8010   80.9660 O.2    16  LYS16      -0.2867
      5  CB      -106.8280  -22.6280   78.6040 C.3    16  LYS16       0.0271
      6  CG      -105.7500  -21.7670   79.2260 C.3    16  LYS16       0.0035
      7  CD      -105.3870  -20.6110   78.3000 C.3    16  LYS16       0.0206
      8  CE      -104.2300  -19.7970   78.8550 C.3    16  LYS16       0.1093
      9  NZ      -103.7280  -18.8090   77.8590 N.3    16  LYS16      -0.1314
     10  N       -108.0190  -21.1140   83.9910 N.3    18  ILE18      -0.1231
     11  CA      -107.9500  -19.6640   84.1590 C.3    18  ILE18       0.1692
     12  C       -108.2280  -19.2200   85.5930 C.2    18  ILE18       0.2592
     13  O       -108.3540  -18.0170   85.8460 O.2    18  ILE18      -0.2718
     14  CB      -108.9060  -18.9280   83.1960 C.3    18  ILE18       0.0266
     15  CG1     -110.3650  -19.3340   83.4360 C.3    18  ILE18       0.0019
     16  CG2     -108.5090  -19.1590   81.7440 C.3    18  ILE18       0.0020
     17  CD1     -111.3500  -18.6680   82.4780 C.3    18  ILE18       0.0001
     18  N       -108.3360  -20.1440   86.5430 N.am   19  GLY19      -0.1957
     19  CA      -108.5280  -19.6700   87.9050 C.3    19  GLY19       0.1869
     20  C       -108.7990  -20.7640   88.9170 C.2    19  GLY19       0.2309
     21  O       -108.7280  -21.9640   88.6200 O.2    19  GLY19      -0.2863
     22  N       -111.4200  -23.1700   87.2270 N.3    26  VAL26      -0.1245
     23  CA      -112.1510  -22.4190   86.2180 C.3    26  VAL26       0.1561
     24  C       -111.3760  -22.5350   84.9160 C.2    26  VAL26       0.2260
     25  O       -110.1640  -22.2920   84.8840 O.2    26  VAL26      -0.2867
     26  CB      -112.3470  -20.9490   86.6280 C.3    26  VAL26       0.0252
     27  CG1     -113.0960  -20.1980   85.5390 C.3    26  VAL26       0.0019
     28  CG2     -113.1080  -20.8670   87.9460 C.3    26  VAL26       0.0019
     29  N       -111.3140  -21.6720   80.5650 N.3    28  LYS28      -0.1245
     30  CA      -111.8700  -21.2150   79.3020 C.3    28  LYS28       0.1561
     31  C       -112.1640  -22.4380   78.4430 C.2    28  LYS28       0.2260
     32  O       -111.3620  -23.3750   78.3860 O.2    28  LYS28      -0.2867
     33  CB      -110.8960  -20.2750   78.5860 C.3    28  LYS28       0.0271
     34  CG      -111.4180  -19.6770   77.2870 C.3    28  LYS28       0.0035
     35  CD      -110.8370  -20.3960   76.0780 C.3    28  LYS28       0.0206
     36  CE      -111.6220  -20.0940   74.8060 C.3    28  LYS28       0.1093
     37  NZ      -111.0220  -20.7840   73.6290 N.3    28  LYS28      -0.1314
     38  N       -116.7230  -19.6790   79.9630 N.3    39  ALA39      -0.1231
     39  CA      -115.9780  -20.0190   81.1620 C.3    39  ALA39       0.1694
     40  C       -116.7020  -21.1520   81.8690 C.2    39  ALA39       0.2592
     41  O       -117.9350  -21.2180   81.8440 O.2    39  ALA39      -0.2718
     42  CB      -115.8510  -18.8240   82.0980 C.3    39  ALA39       0.0304
     43  N       -115.9360  -22.0420   82.4900 N.am   40  ILE40      -0.1966
     44  CA      -116.4560  -23.2860   83.0430 C.3    40  ILE40       0.1727
     45  C       -115.8800  -23.4470   84.4410 C.2    40  ILE40       0.2616
     46  O       -114.6730  -23.6640   84.5850 O.2    40  ILE40      -0.2715
     47  CB      -116.0810  -24.4950   82.1730 C.3    40  ILE40       0.0290
     48  CG1     -116.5850  -24.3140   80.7460 C.3    40  ILE40       0.0022
     49  CG2     -116.5930  -25.7710   82.7890 C.3    40  ILE40       0.0023
     50  CD1     -115.7160  -24.9890   79.7040 C.3    40  ILE40       0.0001
     51  N       -116.7310  -23.3770   85.4680 N.am   41  LYS41      -0.1977
     52  CA      -116.2990  -23.6550   86.8350 C.3    41  LYS41       0.1596
     53  C       -116.7510  -25.0530   87.2400 C.2    41  LYS41       0.2287
     54  O       -117.9160  -25.4070   87.0440 O.2    41  LYS41      -0.2864
     55  CB      -116.8460  -22.6240   87.8260 C.3    41  LYS41       0.0298
     56  CG      -116.4080  -22.9190   89.2670 C.3    41  LYS41       0.0038
     57  CD      -116.3210  -21.6580   90.1170 C.3    41  LYS41       0.0206
     58  CE      -117.6880  -21.1090   90.4770 C.3    41  LYS41       0.1093
     59  NZ      -117.5530  -19.8330   91.2600 N.3    41  LYS41      -0.1314
     60  N       -124.8990  -20.3600   93.5900 N.3    58  GLU58      -0.1245
     61  CA      -124.3700  -19.3050   92.7350 C.3    58  GLU58       0.1567
     62  C       -125.0130  -19.3590   91.3600 C.2    58  GLU58       0.2260
     63  O       -125.4250  -18.3290   90.8110 O.2    58  GLU58      -0.2867
     64  CB      -122.8500  -19.4100   92.6080 C.3    58  GLU58       0.0388
     65  CG      -122.2980  -18.4340   91.5640 C.3    58  GLU58       0.1160
     66  CD      -120.8000  -18.2200   91.6530 C.2    58  GLU58       0.3649
     67  OE1     -120.0660  -19.2090   91.8180 O.co2  58  GLU58      -0.2457
     68  OE2     -120.3550  -17.0510   91.5440 O.co2  58  GLU58      -0.2457
     69  N       -127.3290  -16.4210   89.6610 N.3    62  MET62      -0.1245
     70  CA      -126.9810  -15.8560   88.3600 C.3    62  MET62       0.1570
     71  C       -128.0980  -16.0600   87.3440 C.2    62  MET62       0.2261
     72  O       -128.3080  -15.2160   86.4650 O.2    62  MET62      -0.2867
     73  CB      -125.6820  -16.4870   87.8480 C.3    62  MET62       0.0387
     74  CG      -124.4580  -16.1320   88.6660 C.3    62  MET62       0.0595
     75  SD      -122.9600  -16.8630   87.9680 S.3    62  MET62      -0.1393
     76  CE      -123.2750  -16.6130   86.2200 C.3    62  MET62       0.0692
     77  N       -122.6010  -10.8300   84.7480 N.3    71  ILE71      -0.1245
     78  CA      -122.1340  -11.9990   84.0050 C.3    71  ILE71       0.1561
     79  C       -123.3120  -12.9230   83.7090 C.2    71  ILE71       0.2260
     80  O       -124.1270  -13.2250   84.5890 O.2    71  ILE71      -0.2867
     81  CB      -121.0360  -12.7270   84.7970 C.3    71  ILE71       0.0252
     82  CG1     -120.4720  -13.9030   84.0000 C.3    71  ILE71       0.0019
     83  CG2     -121.5500  -13.1960   86.1490 C.3    71  ILE71       0.0019
     84  CD1     -119.2780  -13.5200   83.1740 C.3    71  ILE71       0.0001
     85  N       -120.5600  -25.0420   86.2200 N.3    85  ILE85      -0.1245
     86  CA      -121.3030  -23.8200   85.9280 C.3    85  ILE85       0.1561
     87  C       -120.6570  -23.1840   84.7090 C.2    85  ILE85       0.2260
     88  O       -119.4400  -22.9720   84.6910 O.2    85  ILE85      -0.2867
     89  CB      -121.2950  -22.8370   87.1100 C.3    85  ILE85       0.0252
     90  CG1     -121.8870  -23.4760   88.3590 C.3    85  ILE85       0.0019
     91  CG2     -122.0720  -21.5750   86.7500 C.3    85  ILE85       0.0019
     92  CD1     -121.8090  -22.5810   89.5850 C.3    85  ILE85       0.0001
     93  N       -120.6450  -20.0400   81.9360 N.3    87  THR87      -0.1203
     94  CA      -120.9980  -18.6350   81.7860 C.3    87  THR87       0.1994
     95  C       -120.3810  -18.0940   80.5120 C.2    87  THR87       0.2618
     96  O       -119.5000  -18.7140   79.9120 O.2    87  THR87      -0.2717
     97  CB      -120.4900  -17.7830   82.9510 C.3    87  THR87       0.1784
     98  OG1     -119.0910  -17.5440   82.7640 O.3    87  THR87      -0.2211
     99  CG2     -120.6900  -18.5050   84.2600 C.3    87  THR87       0.0376
    100  N       -120.8150  -16.8980   80.1300 N.am   88  GLU88      -0.1965
    101  CA      -120.1260  -16.1980   79.0580 C.3    88  GLU88       0.1733
    102  C       -118.6550  -16.0150   79.4220 C.2    88  GLU88       0.2616
    103  O       -118.2740  -15.9910   80.6010 O.2    88  GLU88      -0.2715
    104  CB      -120.7880  -14.8460   78.7770 C.3    88  GLU88       0.0429
    105  CG      -120.6190  -13.8330   79.8740 C.3    88  GLU88       0.1163
    106  CD      -121.3010  -12.5120   79.5500 C.2    88  GLU88       0.3649
    107  OE1     -121.2060  -12.0470   78.3980 O.co2  88  GLU88      -0.2457
    108  OE2     -121.9360  -11.9420   80.4450 O.co2  88  GLU88      -0.2457
    109  N       -117.8180  -15.9360   78.3940 N.am   89  TYR89      -0.1960
    110  CA      -116.3810  -15.7760   78.5600 C.3    89  TYR89       0.1771
    111  C       -116.0080  -14.3140   78.3640 C.2    89  TYR89       0.2619
    112  O       -116.3700  -13.7020   77.3530 O.2    89  TYR89      -0.2715
    113  CB      -115.6090  -16.6580   77.5750 C.3    89  TYR89       0.0574
    114  CG      -114.1150  -16.4880   77.6840 C.ar   89  TYR89      -0.0198
    115  CD1     -113.4320  -16.9040   78.8190 C.ar   89  TYR89      -0.0009
    116  CD2     -113.3930  -15.8880   76.6690 C.ar   89  TYR89      -0.0009
    117  CE1     -112.0720  -16.7260   78.9350 C.ar   89  TYR89       0.0417
    118  CE2     -112.0300  -15.7200   76.7700 C.ar   89  TYR89       0.0417
    119  CZ      -111.3790  -16.1430   77.8990 C.ar   89  TYR89       0.1957
    120  OH      -110.0260  -15.9610   78.0030 O.3    89  TYR89      -0.2866
    121  N       -115.3000  -13.7580   79.3440 N.am   90  MET90      -0.1963
    122  CA      -114.8680  -12.3670   79.3210 C.3    90  MET90       0.1736
    123  C       -113.3920  -12.3490   78.9310 C.2    90  MET90       0.2616
    124  O       -112.5320  -12.7710   79.7100 O.2    90  MET90      -0.2715
    125  CB      -115.1160  -11.7080   80.6800 C.3    90  MET90       0.0427
    126  CG      -116.5670  -11.8620   81.1540 C.3    90  MET90       0.0599
    127  SD      -117.6970  -10.8820   80.1440 S.3    90  MET90      -0.1393
    128  CE      -117.2840   -9.2380   80.7210 C.3    90  MET90       0.0692
    129  N       -113.1120  -11.8380   77.7250 N.am   91  GLU91      -0.1963
    130  CA      -111.8130  -12.0290   77.0820 C.3    91  GLU91       0.1733
    131  C       -110.6680  -11.3380   77.8220 C.2    91  GLU91       0.2616
    132  O       -109.5160  -11.7920   77.7430 O.2    91  GLU91      -0.2715
    133  CB      -111.8770  -11.5180   75.6410 C.3    91  GLU91       0.0429
    134  CG      -112.8580  -12.2590   74.7340 C.3    91  GLU91       0.1163
    135  CD      -114.2830  -11.7070   74.7620 C.2    91  GLU91       0.3649
    136  OE1     -114.6360  -10.8810   75.6440 O.co2  91  GLU91      -0.2457
    137  OE2     -115.0690  -12.1170   73.8800 O.co2  91  GLU91      -0.2457
    138  N       -110.9410  -10.2400   78.5170 N.am   92  ASN92      -0.1958
    139  CA      -109.8980   -9.4620   79.1790 C.3    92  ASN92       0.1819
    140  C       -109.7370   -9.7470   80.6730 C.2    92  ASN92       0.2622
    141  O       -108.8780   -9.1290   81.3080 O.2    92  ASN92      -0.2715
    142  CB      -110.1640   -7.9740   78.9600 C.3    92  ASN92       0.1195
    143  CG      -109.8700   -7.5700   77.5460 C.2    92  ASN92       0.2630
    144  OD1     -108.7960   -7.8830   77.0360 O.2    92  ASN92      -0.2716
    145  ND2     -110.8290   -6.9390   76.8810 N.am   92  ASN92      -0.0877
    146  N       -110.5220  -10.6520   81.2500 N.am   93  GLY93      -0.1940
    147  CA      -110.2540  -11.0940   82.6130 C.3    93  GLY93       0.2014
    148  C       -110.6800  -10.1010   83.6870 C.2    93  GLY93       0.2638
    149  O       -111.5250   -9.2310   83.4860 O.2    93  GLY93      -0.2714
    150  N       -110.0480  -10.2350   84.8480 N.am   94  ALA94      -0.1977
    151  CA      -110.4250   -9.4290   85.9980 C.3    94  ALA94       0.1597
    152  C       -109.9570   -7.9920   85.8210 C.2    94  ALA94       0.2287
    153  O       -108.8580   -7.7330   85.3210 O.2    94  ALA94      -0.2864
    154  CB      -109.8560  -10.0220   87.2900 C.3    94  ALA94       0.0319
    155  N       -106.4340   -6.7180   87.5600 N.3    97  LYS97      -0.1245
    156  CA      -105.2450   -7.1530   86.8260 C.3    97  LYS97       0.1561
    157  C       -105.1620   -6.4830   85.4590 C.2    97  LYS97       0.2260
    158  O       -104.0750   -6.1070   84.9980 O.2    97  LYS97      -0.2867
    159  CB      -105.2790   -8.6770   86.6910 C.3    97  LYS97       0.0271
    160  CG      -104.0360   -9.3190   86.0790 C.3    97  LYS97       0.0035
    161  CD      -103.8840  -10.7650   86.5850 C.3    97  LYS97       0.0206
    162  CE      -103.3610  -11.7250   85.5110 C.3    97  LYS97       0.1093
    163  NZ      -101.9320  -11.5210   85.1060 N.3    97  LYS97      -0.1314
    164  N       -115.3540   -8.3020   85.7080 N.3   141  LEU141     -0.1245
    165  CA      -114.7390   -8.9160   84.5450 C.3   141  LEU141      0.1561
    166  C       -114.9600   -8.0190   83.3370 C.2   141  LEU141      0.2260
    167  O       -115.9480   -7.2870   83.2730 O.2   141  LEU141     -0.2867
    168  CB      -115.3240  -10.3160   84.2800 C.3   141  LEU141      0.0270
    169  CG      -114.9740  -11.4090   85.2970 C.3   141  LEU141      0.0019
    170  CD1     -115.8440  -12.6580   85.1170 C.3   141  LEU141      0.0001
    171  CD2     -113.4970  -11.7690   85.1930 C.3   141  LEU141      0.0001
    172  N       -119.3450   -9.8610   88.8770 N.3   151  SER151     -0.1202
    173  CA      -119.3970  -11.3070   89.0390 C.3   151  SER151      0.2020
    174  C       -119.1370  -11.6620   90.4920 C.2   151  SER151      0.2618
    175  O       -118.9540  -10.7840   91.3440 O.2   151  SER151     -0.2717
    176  CB      -118.3840  -12.0080   88.1350 C.3   151  SER151      0.2103
    177  OG      -117.0800  -11.6100   88.4800 O.3   151  SER151     -0.2182
    178  N       -119.1190  -12.9760   90.7490 N.am  152  ASP152     -0.1973
    179  CA      -118.8860  -13.6060   92.0480 C.3   152  ASP152      0.1709
    180  C       -120.1020  -13.4900   92.9590 C.2   152  ASP152      0.2293
    181  O       -120.1880  -12.5640   93.7710 O.2   152  ASP152     -0.2864
    182  CB      -117.6460  -13.0160   92.7250 C.3   152  ASP152      0.1436
    183  CG      -117.2190  -13.8150   93.9450 C.2   152  ASP152      0.3671
    184  OD1     -117.5430  -15.0170   94.0040 O.co2 152  ASP152     -0.2456
    185  OD2     -116.5710  -13.2420   94.8420 O.co2 152  ASP152     -0.2456
@<TRIPOS>BOND
     1    37    36    1
     2   137   135   ar
     3   134   135    1
     4   134   133    1
     5   135   136   ar
     6    36    35    1
     7   133   130    1
     8    35    34    1
     9   116   118   ar
    10   116   114   ar
    11   118   119   ar
    12   145   143   am
    13   144   143    2
    14   130   129    1
    15   130   131    1
    16    34    33    1
    17   112   111    2
    18   143   142    1
    19   113   114    1
    20   113   110    1
    21   114   115   ar
    22   129   123   am
    23   132   131    2
    24   131   138   am
    25     9     8    1
    26   119   120    1
    27   119   117   ar
    28     7     8    1
    29     7     6    1
    30   111   110    1
    31   111   121   am
    32    32    31    2
    33   109   110    1
    34   109   102   am
    35   107   106   ar
    36    31    30    1
    37   138   139    1
    38    33    30    1
    39     5     6    1
    40     5     2    1
    41   104   101    1
    42   104   105    1
    43     1     2    1
    44   115   117   ar
    45   123   122    1
    46   123   124    2
    47   142   139    1
    48   101   102    1
    49   101   100    1
    50   139   140    1
    51    30    29    1
    52   122   121    1
    53   122   125    1
    54   102   103    2
    55     2     3    1
    56   106   105    1
    57   106   108   ar
    58    50    48    1
    59    96    95    2
    60    38    39    1
    61   100    95   am
    62   127   128    1
    63   127   126    1
    64    95    94    1
    65   140   146   am
    66   140   141    2
    67   125   126    1
    68    48    47    1
    69     3     4    2
    70    39    40    1
    71    39    42    1
    72   146   147    1
    73    16    14    1
    74    94    93    1
    75    94    97    1
    76    41    40    2
    77    40    43   am
    78    47    49    1
    79    47    44    1
    80    17    15    1
    81    43    44    1
    82   147   148    1
    83    98    97    1
    84    97    99    1
    85    44    45    1
    86    84    82    1
    87    14    15    1
    88    14    11    1
    89   167   166    2
    90   166   165    1
    91   149   148    2
    92   148   150   am
    93    79    78    1
    94    79    80    2
    95    10    11    1
    96    82    81    1
    97    78    77    1
    98    78    81    1
    99    11    12    1
   100   168   165    1
   101   168   169    1
   102    45    46    2
   103    45    51   am
   104   165   164    1
   105    88    87    2
   106    87    86    1
   107    81    83    1
   108   150   151    1
   109    25    24    2
   110    24    23    1
   111   158   157    2
   112   163   162    1
   113   170   169    1
   114   171   169    1
   115   153   152    2
   116   157   156    1
   117    51    52    1
   118   162   161    1
   119    27    26    1
   120    12    13    2
   121    12    18   am
   122   152   151    1
   123    86    85    1
   124    86    89    1
   125   151   154    1
   126   160   161    1
   127   160   159    1
   128    23    26    1
   129    23    22    1
   130    76    75    1
   131    72    71    2
   132    18    19    1
   133    26    28    1
   134   159   156    1
   135    91    89    1
   136   156   155    1
   137    52    53    1
   138    52    55    1
   139    54    53    2
   140    89    90    1
   141    71    70    1
   142    55    56    1
   143    73    70    1
   144    73    74    1
   145    19    20    1
   146    75    74    1
   147   176   177    1
   148   176   173    1
   149    90    92    1
   150    70    69    1
   151    21    20    2
   152   172   173    1
   153   173   174    1
   154    56    57    1
   155    57    58    1
   156    58    59    1
   157   174   178   am
   158   174   175    2
   159   178   179    1
   160    63    62    2
   161    62    61    1
   162    68    66   ar
   163    65    66    1
   164    65    64    1
   165    66    67   ar
   166   179   182    1
   167   179   180    1
   168    64    61    1
   169   182   183    1
   170    61    60    1
   171   180   181    2
   172   183   184   ar
   173   183   185   ar
