@<TRIPOS>MOLECULE
tmp/5iaiA00.pdb
 130 127 0 0 0
SMALL
GASTEIGER

@<TRIPOS>ATOM
      1  N         62.1640   14.6250   54.4610 N.3    13  GLN13      -0.1245
      2  CA        61.4810   14.1760   53.2550 C.3    13  GLN13       0.1566
      3  C         60.3050   15.0960   52.9350 C.2    13  GLN13       0.2260
      4  O         59.6540   15.6510   53.8290 O.2    13  GLN13      -0.2867
      5  CB        61.0310   12.7230   53.4500 C.3    13  GLN13       0.0367
      6  CG        59.9670   12.1830   52.4770 C.3    13  GLN13       0.0905
      7  CD        60.4360   12.0500   51.0620 C.2    13  GLN13       0.2608
      8  OE1       61.5480   12.4300   50.7260 O.2    13  GLN13      -0.2717
      9  NE2       59.5610   11.5270   50.1980 N.am   13  GLN13      -0.0878
     10  N         57.3430   14.5820   52.0810 N.3    15  ASP15      -0.1239
     11  CA        56.0010   14.0910   52.3540 C.3    15  ASP15       0.1674
     12  C         55.2090   15.1900   53.0540 C.2    15  ASP15       0.2266
     13  O         55.7500   16.2490   53.4000 O.2    15  ASP15      -0.2867
     14  CB        56.0820   12.8420   53.2250 C.3    15  ASP15       0.1410
     15  CG        56.4080   11.5720   52.4630 C.2    15  ASP15       0.3668
     16  OD1       56.6140   11.5990   51.2180 O.co2  15  ASP15      -0.2456
     17  OD2       56.4800   10.5200   53.1540 O.co2  15  ASP15      -0.2456
     18  N         63.1290   12.7070   48.1130 N.3    42  TYR42      -0.1241
     19  CA        63.7090   11.4920   48.6890 C.3    42  TYR42       0.1605
     20  C         65.1790   11.3210   48.3120 C.2    42  TYR42       0.2264
     21  O         66.0360   11.1060   49.1850 O.2    42  TYR42      -0.2867
     22  CB        62.8950   10.2900   48.2200 C.3    42  TYR42       0.0534
     23  CG        63.1410    8.9880   48.9220 C.ar   42  TYR42      -0.0201
     24  CD1       64.2200    8.1800   48.5960 C.ar   42  TYR42      -0.0009
     25  CD2       62.2520    8.5350   49.8700 C.ar   42  TYR42      -0.0009
     26  CE1       64.4020    6.9590   49.2260 C.ar   42  TYR42       0.0417
     27  CE2       62.4280    7.3080   50.5230 C.ar   42  TYR42       0.0417
     28  CZ        63.5190    6.5410   50.1910 C.ar   42  TYR42       0.1957
     29  OH        63.6940    5.3400   50.7930 O.3    42  TYR42      -0.2866
     30  N         64.0040    7.0320   56.6460 N.3    65  ASP65      -0.1225
     31  CA        63.0000    6.0890   56.1700 C.3    65  ASP65       0.1805
     32  C         63.1450    4.7440   56.8660 C.2    65  ASP65       0.2597
     33  O         64.2450    4.3050   57.1940 O.2    65  ASP65      -0.2718
     34  CB        63.1310    5.8970   54.6580 C.3    65  ASP65       0.1424
     35  CG        61.8800    5.3810   54.0100 C.2    65  ASP65       0.3668
     36  OD1       60.8440    5.3060   54.6920 O.co2  65  ASP65      -0.2456
     37  OD2       61.9310    5.0900   52.7760 O.co2  65  ASP65      -0.2456
     38  N         62.0130    4.0960   57.1250 N.am   66  ILE66      -0.1980
     39  CA        62.0180    2.7630   57.7150 C.3    66  ILE66       0.1595
     40  C         63.0370    1.8480   57.0400 C.2    66  ILE66       0.2287
     41  O         63.7360    1.0830   57.7120 O.2    66  ILE66      -0.2864
     42  CB        60.5930    2.1730   57.6640 C.3    66  ILE66       0.0276
     43  CG1       60.5320    0.7980   58.3230 C.3    66  ILE66       0.0022
     44  CG2       60.0680    2.1270   56.2340 C.3    66  ILE66       0.0022
     45  CD1       59.1160    0.2200   58.3650 C.3    66  ILE66       0.0001
     46  N         52.8260    4.9080   58.4460 N.3   120  TYR120     -0.1241
     47  CA        51.9500    4.7950   57.2980 C.3   120  TYR120      0.1605
     48  C         51.4370    3.3720   57.1660 C.2   120  TYR120      0.2264
     49  O         52.1730    2.4090   57.3910 O.2   120  TYR120     -0.2867
     50  CB        52.6890    5.1440   55.9920 C.3   120  TYR120      0.0534
     51  CG        53.3420    6.5090   55.8760 C.ar  120  TYR120     -0.0201
     52  CD1       52.9860    7.5690   56.6910 C.ar  120  TYR120     -0.0009
     53  CD2       54.3090    6.7370   54.8780 C.ar  120  TYR120     -0.0009
     54  CE1       53.5550    8.8180   56.5320 C.ar  120  TYR120      0.0417
     55  CE2       54.8920    7.9720   54.7250 C.ar  120  TYR120      0.0417
     56  CZ        54.5380    8.9970   55.5610 C.ar  120  TYR120      0.1957
     57  OH        55.0970   10.2330   55.4030 O.3   120  TYR120     -0.2866
     58  N         59.5950    1.1520   44.5050 N.3   174  GLN174     -0.1245
     59  CA        58.7200    0.8570   45.6310 C.3   174  GLN174      0.1566
     60  C         57.3270    0.5080   45.1710 C.2   174  GLN174      0.2260
     61  O         56.6910   -0.3600   45.7620 O.2   174  GLN174     -0.2867
     62  CB        58.6680    2.0380   46.5730 C.3   174  GLN174      0.0367
     63  CG        59.9180    2.2000   47.4000 C.3   174  GLN174      0.0905
     64  CD        59.7770    3.3340   48.3810 C.2   174  GLN174      0.2608
     65  OE1       58.6890    3.8930   48.5400 O.2   174  GLN174     -0.2717
     66  NE2       60.8510    3.6730   49.0480 N.am  174  GLN174     -0.0878
     67  N         55.7060    9.7440   44.2370 N.3   223  TRP223     -0.1241
     68  CA        54.5530    9.5660   45.1090 C.3   223  TRP223      0.1605
     69  C         53.6910   10.8110   45.1090 C.2   223  TRP223      0.2264
     70  O         52.4590   10.7370   44.9680 O.2   223  TRP223     -0.2867
     71  CB        55.0210    9.2310   46.5290 C.3   223  TRP223      0.0550
     72  CG        55.9950    8.1260   46.6510 C.ar  223  TRP223      0.0003
     73  CD1       55.7380    6.7810   46.8650 C.ar  223  TRP223      0.0946
     74  CD2       57.4300    8.2500   46.6720 C.ar  223  TRP223      0.0152
     75  NE1       56.9050    6.0870   46.9840 N.ar  223  TRP223     -0.2442
     76  CE2       57.9520    6.9580   46.8590 C.ar  223  TRP223      0.0810
     77  CE3       58.3100    9.3270   46.5410 C.ar  223  TRP223      0.0012
     78  CZ2       59.3210    6.7110   46.9240 C.ar  223  TRP223      0.0191
     79  CZ3       59.6870    9.0780   46.6040 C.ar  223  TRP223      0.0001
     80  CH2       60.1640    7.7740   46.7970 C.ar  223  TRP223      0.0015
     81  N         50.1900    4.8430   50.3830 N.3   239  TRP239     -0.1241
     82  CA        50.2910    4.9370   51.8360 C.3   239  TRP239      0.1605
     83  C         49.1480    5.7910   52.3590 C.2   239  TRP239      0.2264
     84  O         48.7320    6.7470   51.7150 O.2   239  TRP239     -0.2867
     85  CB        51.6140    5.5630   52.2590 C.3   239  TRP239      0.0550
     86  CG        52.8190    4.7380   51.9890 C.ar  239  TRP239      0.0003
     87  CD1       53.8670    5.0550   51.1530 C.ar  239  TRP239      0.0946
     88  CD2       53.1350    3.4520   52.5550 C.ar  239  TRP239      0.0152
     89  NE1       54.8020    4.0580   51.1720 N.ar  239  TRP239     -0.2442
     90  CE2       54.4020    3.0730   52.0410 C.ar  239  TRP239      0.0810
     91  CE3       52.5010    2.6060   53.4700 C.ar  239  TRP239      0.0012
     92  CZ2       54.9920    1.8630   52.3670 C.ar  239  TRP239      0.0191
     93  CZ3       53.1050    1.4090   53.8100 C.ar  239  TRP239      0.0001
     94  CH2       54.3630    1.0600   53.2700 C.ar  239  TRP239      0.0015
     95  N         49.1950    8.0970   54.2160 N.3   241  VAL241     -0.1245
     96  CA        49.6060    9.4940   54.2870 C.3   241  VAL241      0.1561
     97  C         48.8920   10.3460   53.2440 C.2   241  VAL241      0.2260
     98  O         48.7250   11.5560   53.4350 O.2   241  VAL241     -0.2867
     99  CB        51.1470    9.5870   54.1590 C.3   241  VAL241      0.0252
    100  CG1       51.6240    9.2720   52.7610 C.3   241  VAL241      0.0019
    101  CG2       51.6460   10.9560   54.6110 C.3   241  VAL241      0.0019
    102  N         56.8610    4.2470   56.8550 N.3   277  GLY277     -0.1210
    103  CA        56.9500    5.5120   57.5490 C.3   277  GLY277      0.1956
    104  C         58.3830    5.8760   57.8860 C.2   277  GLY277      0.2611
    105  O         59.3490    5.3200   57.3420 O.2   277  GLY277     -0.2717
    106  N         58.5050    6.8630   58.7680 N.am  278  TRP278     -0.1976
    107  CA        59.7700    7.5350   59.0180 C.3   278  TRP278      0.1640
    108  C         60.0120    7.6690   60.5080 C.2   278  TRP278      0.2290
    109  O         59.0810    7.8640   61.2960 O.2   278  TRP278     -0.2864
    110  CB        59.7700    8.9310   58.3570 C.3   278  TRP278      0.0576
    111  CG        59.6270    8.8540   56.8750 C.ar  278  TRP278      0.0006
    112  CD1       58.5190    8.5470   56.1760 C.ar  278  TRP278      0.0946
    113  CD2       60.6590    9.0650   55.9270 C.ar  278  TRP278      0.0152
    114  NE1       58.7870    8.5550   54.8090 N.ar  278  TRP278     -0.2442
    115  CE2       60.1190    8.8520   54.6490 C.ar  278  TRP278      0.0810
    116  CE3       62.0090    9.3870   56.0400 C.ar  278  TRP278      0.0012
    117  CZ2       60.8790    8.9930   53.4810 C.ar  278  TRP278      0.0191
    118  CZ3       62.7490    9.5320   54.8800 C.ar  278  TRP278      0.0001
    119  CH2       62.1960    9.3120   53.6280 C.ar  278  TRP278      0.0015
    120  N         58.8710   -4.1550   53.4840 N.3   347  ARG347     -0.1245
    121  CA        59.9540   -3.9500   52.5490 C.3   347  ARG347      0.1563
    122  C         61.2560   -4.1460   53.3170 C.2   347  ARG347      0.2260
    123  O         61.2960   -3.9730   54.5340 O.2   347  ARG347     -0.2867
    124  CB        59.8890   -2.5520   51.9070 C.3   347  ARG347      0.0307
    125  CG        58.6040   -2.3160   51.0790 C.3   347  ARG347      0.0489
    126  CD        58.2710   -0.8320   50.8100 C.3   347  ARG347      0.2205
    127  NE        58.2380   -0.0850   52.0480 N.pl3 347  ARG347     -0.0865
    128  CZ        58.4280    1.2220   52.1620 C.cat 347  ARG347      0.5346
    129  NH1       58.5220    1.9910   51.1010 N.pl3 347  ARG347      0.1354
    130  NH2       58.5210    1.7490   53.3860 N.pl3 347  ARG347      0.1354
@<TRIPOS>BOND
     1    67    68    1
     2    58    59    1
     3    70    69    2
     4    68    69    1
     5    68    71    1
     6    60    59    1
     7    60    61    2
     8    59    62    1
     9    71    72    1
    10    77    79   ar
    11    77    74   ar
    12    62    63    1
    13    79    80   ar
    14    72    74   ar
    15    72    73   ar
    16    74    76   ar
    17    80    78   ar
    18    76    78   ar
    19    76    75   ar
    20    73    75   ar
    21    63    64    1
    22    18    19    1
    23    22    19    1
    24    22    23    1
    25    20    19    1
    26    20    21    2
    27    64    65    2
    28    64    66   am
    29    24    23   ar
    30    24    26   ar
    31    23    25   ar
    32    26    28   ar
    33    25    27   ar
    34    28    27   ar
    35    28    29    1
    36     9     7   am
    37    81    82    1
    38     8     7    2
    39   126   125    1
    40   126   127    1
    41     7     6    1
    42   125   124    1
    43   129   128    1
    44    87    89   ar
    45    87    86   ar
    46    89    90   ar
    47    16    15   ar
    48    84    83    2
    49    82    85    1
    50    82    83    1
    51   124   121    1
    52    86    85    1
    53    86    88   ar
    54    90    92   ar
    55    90    88   ar
    56   127   128    2
    57    10    11    1
    58   128   130    1
    59    11    12    1
    60    11    14    1
    61    92    94   ar
    62    15    17   ar
    63    15    14    1
    64     6     5    1
    65   121   122    1
    66   121   120    1
    67    88    91   ar
    68   100    99    1
    69    37    35   ar
    70     3     2    1
    71     3     4    2
    72    12    13    2
    73    97    98    2
    74    97    96    1
    75     2     5    1
    76     2     1    1
    77    94    93   ar
    78   122   123    2
    79    91    93   ar
    80   117   119   ar
    81   117   115   ar
    82   119   118   ar
    83    35    34    1
    84    35    36   ar
    85    99    96    1
    86    99   101    1
    87    95    96    1
    88   115   114   ar
    89   115   113   ar
    90    34    31    1
    91    55    53   ar
    92    55    56   ar
    93   114   112   ar
    94    53    51   ar
    95   118   116   ar
    96    57    56    1
    97    56    54   ar
    98    51    50    1
    99    51    52   ar
   100   113   116   ar
   101   113   111   ar
   102    50    47    1
   103    31    30    1
   104    31    32    1
   105   112   111   ar
   106    44    42    1
   107    54    52   ar
   108   102   103    1
   109    32    38   am
   110    32    33    2
   111   111   110    1
   112    40    41    2
   113    40    39    1
   114    38    39    1
   115    48    47    1
   116    48    49    2
   117    47    46    1
   118   105   104    2
   119   103   104    1
   120    42    39    1
   121    42    43    1
   122   104   106   am
   123    43    45    1
   124   110   107    1
   125   106   107    1
   126   107   108    1
   127   108   109    2
