@<TRIPOS>MOLECULE
tmp/5iavB00.pdb
 111 105 0 0 0
SMALL
GASTEIGER

@<TRIPOS>ATOM
      1  N         -1.6860   -2.9340    6.3830 N.3    94  LEU94      -0.1245
      2  CA        -0.4980   -2.1090    6.2360 C.3    94  LEU94       0.1561
      3  C          0.6590   -2.9150    6.7830 C.2    94  LEU94       0.2260
      4  O          0.5250   -3.6070    7.7830 O.2    94  LEU94      -0.2867
      5  CB        -0.6920   -0.7470    6.8980 C.3    94  LEU94       0.0270
      6  CG         0.5850    0.0790    7.0360 C.3    94  LEU94       0.0019
      7  CD1        1.0160    0.6040    5.6760 C.3    94  LEU94       0.0001
      8  CD2        0.4090    1.2180    8.0250 C.3    94  LEU94       0.0001
      9  N          4.9580   -2.4080    7.5530 N.3    96  TYR96      -0.1241
     10  CA         6.1800   -1.6060    7.5040 C.3    96  TYR96       0.1605
     11  C          7.2750   -2.3540    8.2420 C.2    96  TYR96       0.2264
     12  O          6.9850   -3.2230    9.0530 O.2    96  TYR96      -0.2867
     13  CB         6.0250   -0.1060    7.7750 C.3    96  TYR96       0.0534
     14  CG         5.7540    0.3740    9.1740 C.ar   96  TYR96      -0.0201
     15  CD1        6.7920    0.6500   10.0470 C.ar   96  TYR96      -0.0009
     16  CD2        4.4620    0.6400    9.5870 C.ar   96  TYR96      -0.0009
     17  CE1        6.5430    1.1290   11.3160 C.ar   96  TYR96       0.0417
     18  CE2        4.2040    1.1200   10.8500 C.ar   96  TYR96       0.0417
     19  CZ         5.2470    1.3630   11.7120 C.ar   96  TYR96       0.1957
     20  OH         4.9870    1.8440   12.9660 O.3    96  TYR96      -0.2866
     21  N          5.5660    5.4980   10.1750 N.3   102  TYR102     -0.1241
     22  CA         4.3930    6.1550    9.6020 C.3   102  TYR102      0.1605
     23  C          4.2560    7.5150   10.2760 C.2   102  TYR102      0.2264
     24  O          3.9700    7.6010   11.4780 O.2   102  TYR102     -0.2867
     25  CB         3.1300    5.3130    9.7830 C.3   102  TYR102      0.0534
     26  CG         1.9970    5.6300    8.8330 C.ar  102  TYR102     -0.0201
     27  CD1        1.0630    6.6150    9.1410 C.ar  102  TYR102     -0.0009
     28  CD2        1.8690    4.9470    7.6380 C.ar  102  TYR102     -0.0009
     29  CE1        0.0320    6.9100    8.2720 C.ar  102  TYR102      0.0417
     30  CE2        0.8510    5.2330    6.7580 C.ar  102  TYR102      0.0417
     31  CZ        -0.0760    6.2240    7.0980 C.ar  102  TYR102      0.1957
     32  OH        -1.0690    6.4830    6.1940 O.3   102  TYR102     -0.2866
     33  N         -0.3820   12.0540   11.9350 N.3   105  HIS105     -0.1241
     34  CA        -1.4610   12.4770   11.0440 C.3   105  HIS105      0.1621
     35  C         -2.8060   12.3450   11.7580 C.2   105  HIS105      0.2264
     36  O         -2.9120   11.6740   12.7850 O.2   105  HIS105     -0.2867
     37  CB        -1.4550   11.6310    9.7680 C.3   105  HIS105      0.0745
     38  CG        -1.7500   10.1790   10.0030 C.ar  105  HIS105      0.0817
     39  ND1       -0.7620    9.2390   10.2200 N.ar  105  HIS105     -0.2268
     40  CD2       -2.9300    9.5130   10.0960 C.ar  105  HIS105      0.1154
     41  CE1       -1.3150    8.0560   10.4100 C.ar  105  HIS105      0.1986
     42  NE2       -2.6300    8.1900   10.3240 N.ar  105  HIS105     -0.2212
     43  N         -6.7360   10.9050   11.2070 N.3   107  ASP107     -0.1239
     44  CA        -7.4150    9.9460   10.3450 C.3   107  ASP107      0.1674
     45  C         -8.6270   10.5640    9.6420 C.2   107  ASP107      0.2266
     46  O         -9.0790   10.0130    8.6440 O.2   107  ASP107     -0.2867
     47  CB        -7.8280    8.6930   11.1370 C.3   107  ASP107      0.1410
     48  CG        -6.7440    7.5890   11.1430 C.2   107  ASP107      0.3668
     49  OD1       -5.6170    7.7800   10.6100 O.co2 107  ASP107     -0.2456
     50  OD2       -7.0080    6.5000   11.6960 O.co2 107  ASP107     -0.2456
     51  N         -7.3710   -0.0250   14.9850 N.3   125  VAL125     -0.1245
     52  CA        -6.1280   -0.6120   14.4880 C.3   125  VAL125      0.1561
     53  C         -5.8830   -1.9230   15.2270 C.2   125  VAL125      0.2260
     54  O         -5.7730   -1.9280   16.4660 O.2   125  VAL125     -0.2867
     55  CB        -4.9370    0.3430   14.7020 C.3   125  VAL125      0.0252
     56  CG1       -3.6210   -0.3470   14.3960 C.3   125  VAL125      0.0019
     57  CG2       -5.1180    1.6560   13.9560 C.3   125  VAL125      0.0019
     58  N         -3.4290   -5.2600   15.6940 N.3   127  TYR127     -0.1241
     59  CA        -2.0650   -5.7350   15.5380 C.3   127  TYR127      0.1605
     60  C         -2.0650   -7.1840   15.0780 C.2   127  TYR127      0.2264
     61  O         -2.4900   -8.0880   15.8130 O.2   127  TYR127     -0.2867
     62  CB        -1.2830   -5.5710   16.8470 C.3   127  TYR127      0.0534
     63  CG        -1.2760   -4.1420   17.2910 C.ar  127  TYR127     -0.0201
     64  CD1       -0.5260   -3.1800   16.6020 C.ar  127  TYR127     -0.0009
     65  CD2       -2.0310   -3.7290   18.3870 C.ar  127  TYR127     -0.0009
     66  CE1       -0.5380   -1.8430   16.9750 C.ar  127  TYR127      0.0417
     67  CE2       -2.0560   -2.4050   18.7760 C.ar  127  TYR127      0.0417
     68  CZ        -1.2960   -1.4590   18.0910 C.ar  127  TYR127      0.1957
     69  OH        -1.3400   -0.1370   18.4840 O.3   127  TYR127     -0.2866
     70  N          1.9680    2.5000   18.1950 N.3   137  THR137     -0.1218
     71  CA         1.0320    3.5310   17.7640 C.3   137  THR137      0.1862
     72  C          1.0640    4.6320   18.8110 C.2   137  THR137      0.2287
     73  O          0.7170    4.3830   19.9740 O.2   137  THR137     -0.2866
     74  CB        -0.3930    2.9920   17.6300 C.3   137  THR137      0.1770
     75  OG1       -0.4220    1.8740   16.7400 O.3   137  THR137     -0.2211
     76  CG2       -1.3160    4.0670   17.1300 C.3   137  THR137      0.0375
     77  N         -1.8750   11.0160   15.5440 N.3   171  HIS171     -0.1226
     78  CA        -1.1810    9.7820   15.8760 C.3   171  HIS171      0.1752
     79  C         -0.2850    9.3410   14.7270 C.2   171  HIS171      0.2597
     80  O         -0.4980    9.7050   13.5580 O.2   171  HIS171     -0.2718
     81  CB        -2.1840    8.6720   16.1970 C.3   171  HIS171      0.0759
     82  CG        -3.0310    8.3350   15.0290 C.ar  171  HIS171      0.0818
     83  ND1       -4.0960    9.1180   14.6480 N.ar  171  HIS171     -0.2268
     84  CD2       -2.8960    7.3820   14.0840 C.ar  171  HIS171      0.1154
     85  CE1       -4.6130    8.6340   13.5330 C.ar  171  HIS171      0.1986
     86  NE2       -3.9110    7.5750   13.1770 N.ar  171  HIS171     -0.2212
     87  N          0.6950    8.5010   15.0600 N.am  172  GLY172     -0.1942
     88  CA         1.5560    7.9000   14.0630 C.3   172  GLY172      0.2014
     89  C          1.9540    6.4840   14.4210 C.2   172  GLY172      0.2639
     90  O          1.5490    5.9390   15.4500 O.2   172  GLY172     -0.2714
     91  N          2.7520    5.8880   13.5370 N.am  173  GLY173     -0.1954
     92  CA         3.3790    4.6000   13.7490 C.3   173  GLY173      0.1869
     93  C          4.8650    4.7900   13.9970 C.2   173  GLY173      0.2309
     94  O          5.5580    5.3360   13.1400 O.2   173  GLY173     -0.2863
     95  N          6.1070   -5.0850   11.0580 N.3   181  LYS181     -0.1245
     96  CA         4.8250   -4.7100   11.6400 C.3   181  LYS181      0.1561
     97  C          3.7220   -4.8460   10.6020 C.2   181  LYS181      0.2260
     98  O          3.8370   -4.3190    9.4920 O.2   181  LYS181     -0.2867
     99  CB         4.8500   -3.2760   12.1440 C.3   181  LYS181      0.0271
    100  CG         3.5250   -2.7320   12.6670 C.3   181  LYS181      0.0035
    101  CD         3.7440   -1.3880   13.3420 C.3   181  LYS181      0.0206
    102  CE         2.4250   -0.6830   13.6200 C.3   181  LYS181      0.1093
    103  NZ         2.5850    0.6670   14.2370 N.3   181  LYS181     -0.1314
    104  N         -0.5560   -4.3890   10.4500 N.3   183  ILE183     -0.1245
    105  CA        -1.7920   -3.9780   11.1240 C.3   183  ILE183      0.1561
    106  C         -2.9650   -4.0380   10.1590 C.2   183  ILE183      0.2260
    107  O         -2.8210   -3.8150    8.9530 O.2   183  ILE183     -0.2867
    108  CB        -1.7160   -2.5680   11.7450 C.3   183  ILE183      0.0252
    109  CG1       -1.3270   -1.5170   10.7080 C.3   183  ILE183      0.0019
    110  CG2       -0.7520   -2.5500   12.9560 C.3   183  ILE183      0.0019
    111  CD1       -1.6150   -0.0970   11.1390 C.3   183  ILE183      0.0001
@<TRIPOS>BOND
     1     7     6    1
     2    32    31    1
     3     2     1    1
     4     2     3    1
     5     2     5    1
     6    30    31   ar
     7    30    28   ar
     8     3     4    2
     9     5     6    1
    10     6     8    1
    11    31    29   ar
    12    10     9    1
    13    10    13    1
    14    10    11    1
    15    28    26   ar
    16    13    14    1
    17    11    12    2
    18    29    27   ar
    19    46    45    2
    20    26    27   ar
    21    26    25    1
    22   107   106    2
    23    14    16   ar
    24    14    15   ar
    25    98    97    2
    26    16    18   ar
    27    22    25    1
    28    22    21    1
    29    22    23    1
    30    45    44    1
    31    37    38    1
    32    37    34    1
    33    38    40   ar
    34    38    39   ar
    35    15    17   ar
    36    40    42   ar
    37   106   105    1
    38    39    41   ar
    39    23    24    2
    40    42    41   ar
    41    44    47    1
    42    44    43    1
    43   104   105    1
    44    97    96    1
    45    49    48   ar
    46   109   111    1
    47   109   108    1
    48    18    19   ar
    49    34    35    1
    50    34    33    1
    51    95    96    1
    52   105   108    1
    53    47    48    1
    54    48    50   ar
    55    17    19   ar
    56    96    99    1
    57    19    20    1
    58   108   110    1
    59    35    36    2
    60    99   100    1
    61   100   101    1
    62    94    93    2
    63    86    85   ar
    64    86    84   ar
    65   101   102    1
    66    85    83   ar
    67    91    92    1
    68    91    89   am
    69    80    79    2
    70   102   103    1
    71    92    93    1
    72    57    55    1
    73    88    89    1
    74    88    87    1
    75    84    82   ar
    76    56    55    1
    77    89    90    2
    78    52    55    1
    79    52    51    1
    80    52    53    1
    81    83    82   ar
    82    79    87   am
    83    79    78    1
    84    82    81    1
    85    60    59    1
    86    60    61    2
    87    53    54    2
    88    59    58    1
    89    59    62    1
    90    77    78    1
    91    78    81    1
    92    64    66   ar
    93    64    63   ar
    94    75    74    1
    95    62    63    1
    96    66    68   ar
    97    76    74    1
    98    63    65   ar
    99    74    71    1
   100    71    70    1
   101    71    72    1
   102    68    69    1
   103    68    67   ar
   104    65    67   ar
   105    72    73    2
