@<TRIPOS>MOLECULE
tmp/5iawA02.pdb
 161 153 0 0 0
SMALL
GASTEIGER

@<TRIPOS>ATOM
      1  N          3.0020   29.3690   12.0360 N.3    21  MET21      -0.1231
      2  CA         4.2270   29.9230   12.5840 C.3    21  MET21       0.1687
      3  C          5.3910   29.0080   12.2060 C.2    21  MET21       0.2434
      4  O          5.8030   28.1870   13.0130 O.2    21  MET21      -0.2733
      5  CB         4.1700   30.0050   14.1100 C.3    21  MET21       0.0400
      6  CG         2.7860   30.1440   14.7160 C.3    21  MET21       0.0596
      7  SD         2.3190   31.8490   14.9850 S.3    21  MET21      -0.1393
      8  CE         2.3620   32.5520   13.3450 C.3    21  MET21       0.0692
      9  N          5.9250   29.1500   10.9820 N.am   22  PRO22      -0.2718
     10  CA         7.1710   28.4380   10.6460 C.3    22  PRO22       0.1535
     11  C          8.2150   28.6710   11.7270 C.2    22  PRO22       0.2598
     12  O          8.3850   29.8200   12.1890 O.2    22  PRO22      -0.2715
     13  CB         7.6160   29.0850    9.3410 C.3    22  PRO22       0.0310
     14  CG         6.9320   30.4140    9.3330 C.3    22  PRO22       0.0237
     15  CD         5.5990   30.1660    9.9780 C.3    22  PRO22       0.0939
     16  N          8.8890   27.6060   12.1520 N.am   23  GLN23      -0.1978
     17  CA         9.8020   27.7030   13.3020 C.3    23  GLN23       0.1601
     18  C         11.2820   27.6590   12.8980 C.2    23  GLN23       0.2287
     19  O         12.1510   27.6920   13.7730 O.2    23  GLN23      -0.2864
     20  CB         9.4850   26.6030   14.3480 C.3    23  GLN23       0.0394
     21  CG         8.2180   26.8330   15.1740 C.3    23  GLN23       0.0908
     22  CD         8.1090   28.2540   15.7380 C.2    23  GLN23       0.2608
     23  OE1        7.0950   28.9560   15.5670 O.2    23  GLN23      -0.2717
     24  NE2        9.1540   28.6830   16.4150 N.am   23  GLN23      -0.0878
     25  N         12.9380   30.0770   11.3960 N.3    25  ILE25      -0.1231
     26  CA        13.3890   31.3810   11.8610 C.3    25  ILE25       0.1692
     27  C         13.7860   31.3320   13.3250 C.2    25  ILE25       0.2592
     28  O         14.8330   31.8360   13.7000 O.2    25  ILE25      -0.2718
     29  CB        12.3330   32.4910   11.5880 C.3    25  ILE25       0.0266
     30  CG1       12.9030   33.8810   11.8450 C.3    25  ILE25       0.0019
     31  CG2       11.0520   32.3130   12.3860 C.3    25  ILE25       0.0020
     32  CD1       13.8600   34.3200   10.7610 C.3    25  ILE25       0.0001
     33  N         12.9800   30.6860   14.1460 N.am   26  THR26      -0.1953
     34  CA        13.2510   30.6020   15.5640 C.3    26  THR26       0.1897
     35  C         14.4190   29.6780   15.8330 C.2    26  THR26       0.2313
     36  O         15.2890   29.9900   16.6520 O.2    26  THR26      -0.2863
     37  CB        12.0450   30.0510   16.2990 C.3    26  THR26       0.1794
     38  OG1       10.8880   30.8030   15.9320 O.3    26  THR26      -0.2208
     39  CG2       12.2370   30.1220   17.8060 C.3    26  THR26       0.0378
     40  N         17.8980   31.6930   15.3590 N.3    29  ILE29      -0.1245
     41  CA        18.4850   32.4440   16.4700 C.3    29  ILE29       0.1561
     42  C         18.8750   31.5980   17.6650 C.2    29  ILE29       0.2260
     43  O         19.8210   31.9360   18.3740 O.2    29  ILE29      -0.2867
     44  CB        17.5360   33.5110   17.0130 C.3    29  ILE29       0.0252
     45  CG1       16.1340   32.9300   17.1400 C.3    29  ILE29       0.0019
     46  CG2       17.6140   34.7770   16.1650 C.3    29  ILE29       0.0019
     47  CD1       15.1680   33.9220   17.6970 C.3    29  ILE29       0.0001
     48  N         14.1280   39.5630   13.9550 N.3    43  LEU43      -0.1245
     49  CA        12.9640   40.1070   14.6290 C.3    43  LEU43       0.1561
     50  C         11.9930   40.7750   13.6840 C.2    43  LEU43       0.2260
     51  O         10.7740   40.7130   13.8940 O.2    43  LEU43      -0.2867
     52  CB        13.3780   41.1070   15.6910 C.3    43  LEU43       0.0270
     53  CG        14.2840   40.5260   16.8020 C.3    43  LEU43       0.0019
     54  CD1       14.6270   41.6200   17.8120 C.3    43  LEU43       0.0001
     55  CD2       13.6520   39.3880   17.5610 C.3    43  LEU43       0.0001
     56  N          9.9600   38.2860   12.2230 N.3    46  MET46      -0.1245
     57  CA         9.0020   37.6640   13.1150 C.3    46  MET46       0.1570
     58  C          7.8450   38.6120   13.3210 C.2    46  MET46       0.2261
     59  O          6.6990   38.2160   13.3400 O.2    46  MET46      -0.2867
     60  CB         9.6440   37.3280   14.4460 C.3    46  MET46       0.0387
     61  CG        10.6960   36.2410   14.3680 C.3    46  MET46       0.0595
     62  SD        11.2910   35.7070   16.0370 S.3    46  MET46      -0.1393
     63  CE        12.0730   37.1980   16.4880 C.3    46  MET46       0.0692
     64  N          5.6500   38.5290   10.2980 N.3    49  ASN49      -0.1225
     65  CA         4.8520   37.3350   10.5000 C.3    49  ASN49       0.1785
     66  C          3.6510   37.6030   11.3670 C.2    49  ASN49       0.2597
     67  O          2.5560   37.1310   11.0810 O.2    49  ASN49      -0.2718
     68  CB         5.6710   36.3250   11.2540 C.3    49  ASN49       0.1169
     69  CG         5.7710   35.0440   10.5380 C.2    49  ASN49       0.2627
     70  OD1        4.9260   34.1520   10.6980 O.2    49  ASN49      -0.2716
     71  ND2        6.8100   34.9270    9.7400 N.am   49  ASN49      -0.0877
     72  N          3.8730   38.3170   12.4700 N.am   50  HIS50      -0.1975
     73  CA         2.8050   38.4810   13.4160 C.3    50  HIS50       0.1656
     74  C          1.7100   39.3110   12.7560 C.2    50  HIS50       0.2291
     75  O          0.5440   38.9650   12.8200 O.2    50  HIS50      -0.2864
     76  CB         3.2880   39.1640   14.7090 C.3    50  HIS50       0.0771
     77  CG         3.9770   38.2550   15.6910 C.ar   50  HIS50       0.0820
     78  ND1        3.2940   37.4130   16.5430 N.ar   50  HIS50      -0.2267
     79  CD2        5.2880   38.1320   16.0120 C.ar   50  HIS50       0.1154
     80  CE1        4.1650   36.7840   17.3180 C.ar   50  HIS50       0.1986
     81  NE2        5.3810   37.2120   17.0210 N.ar   50  HIS50      -0.2212
     82  N          3.1210   35.5230   20.7980 N.3    88  SER88      -0.1217
     83  CA         4.4540   35.2850   21.3040 C.3    88  SER88       0.1889
     84  C          4.4320   34.3800   22.5570 C.2    88  SER88       0.2288
     85  O          5.1360   33.3990   22.5960 O.2    88  SER88      -0.2866
     86  CB         5.1070   36.6190   21.5740 C.3    88  SER88       0.2089
     87  OG         5.2270   37.2070   20.3170 O.3    88  SER88      -0.2183
     88  N          3.8890   30.8540   21.6260 N.3    91  ILE91      -0.1231
     89  CA         5.0220   30.2350   20.9800 C.3    91  ILE91       0.1692
     90  C          6.0440   29.9150   22.0690 C.2    91  ILE91       0.2592
     91  O          6.6020   28.8360   22.1190 O.2    91  ILE91      -0.2718
     92  CB         5.5560   31.1750   19.8930 C.3    91  ILE91       0.0266
     93  CG1        4.5430   31.2130   18.7460 C.3    91  ILE91       0.0019
     94  CG2        6.9370   30.7570   19.4350 C.3    91  ILE91       0.0020
     95  CD1        4.8220   32.2750   17.7250 C.3    91  ILE91       0.0001
     96  N          6.2670   30.8390   22.9810 N.am   92  PHE92      -0.1976
     97  CA         7.2010   30.5640   24.0390 C.3    92  PHE92       0.1639
     98  C          6.7780   29.2710   24.7320 C.2    92  PHE92       0.2290
     99  O          7.6000   28.4700   25.0660 O.2    92  PHE92      -0.2864
    100  CB         7.1560   31.7040   25.0170 C.3    92  PHE92       0.0560
    101  CG         8.2730   31.7120   25.9820 C.ar   92  PHE92      -0.0200
    102  CD1        9.4390   32.3600   25.6770 C.ar   92  PHE92      -0.0042
    103  CD2        8.1270   31.1170   27.2280 C.ar   92  PHE92      -0.0042
    104  CE1       10.4610   32.3990   26.5850 C.ar   92  PHE92      -0.0003
    105  CE2        9.1200   31.1410   28.1490 C.ar   92  PHE92      -0.0003
    106  CZ        10.2980   31.7880   27.8330 C.ar   92  PHE92      -0.0000
    107  N          8.6560   25.9830   21.5270 N.3    96  LEU96      -0.1245
    108  CA        10.0850   25.9760   21.7840 C.3    96  LEU96       0.1561
    109  C         10.5210   24.7930   22.6070 C.2    96  LEU96       0.2260
    110  O          9.8830   24.4990   23.6100 O.2    96  LEU96      -0.2867
    111  CB        10.4850   27.1800   22.6150 C.3    96  LEU96       0.0270
    112  CG        10.1570   28.5110   22.0010 C.3    96  LEU96       0.0019
    113  CD1       10.7500   29.5480   22.9320 C.3    96  LEU96       0.0001
    114  CD2       10.6490   28.6690   20.5730 C.3    96  LEU96       0.0001
    115  N         17.3380   32.3390   24.9630 N.3   104  LEU104     -0.1245
    116  CA        16.4830   33.2970   24.2540 C.3   104  LEU104      0.1561
    117  C         16.4260   34.6800   24.8580 C.2   104  LEU104      0.2260
    118  O         16.4040   35.6360   24.0970 O.2   104  LEU104     -0.2867
    119  CB        15.0630   32.7640   24.1180 C.3   104  LEU104      0.0270
    120  CG        14.9810   31.7590   22.9650 C.3   104  LEU104      0.0019
    121  CD1       13.6430   31.0550   23.0110 C.3   104  LEU104      0.0001
    122  CD2       15.2190   32.4040   21.6110 C.3   104  LEU104      0.0001
    123  N         17.6090   38.3740   23.1490 N.3   108  ILE108     -0.1245
    124  CA        16.7340   39.5420   23.0680 C.3   108  ILE108      0.1561
    125  C         17.3250   40.8040   23.6990 C.2   108  ILE108      0.2260
    126  O         16.9920   41.9100   23.2690 O.2   108  ILE108     -0.2867
    127  CB        15.3920   39.2690   23.7480 C.3   108  ILE108      0.0252
    128  CG1       14.7090   38.0220   23.1800 C.3   108  ILE108      0.0019
    129  CG2       14.4700   40.4570   23.5900 C.3   108  ILE108      0.0019
    130  CD1       14.3210   38.1210   21.7220 C.3   108  ILE108      0.0001
    131  N          8.3420   41.2240   29.5990 N.3   121  MET121     -0.1230
    132  CA         7.9690   40.3300   28.4730 C.3   121  MET121      0.1702
    133  C          7.9940   38.8580   28.8670 C.2   121  MET121      0.2592
    134  O          7.0080   38.1460   28.7340 O.2   121  MET121     -0.2718
    135  CB         8.9480   40.5620   27.3050 C.3   121  MET121      0.0401
    136  CG         8.5860   40.0100   25.9300 C.3   121  MET121      0.0596
    137  SD         9.7660   40.5580   24.6210 S.3   121  MET121     -0.1393
    138  CE        11.0550   39.4110   25.0180 C.3   121  MET121      0.0692
    139  N          9.1370   38.4190   29.3550 N.am  122  PHE122     -0.1976
    140  CA         9.3240   37.0440   29.7820 C.3   122  PHE122      0.1639
    141  C          8.5400   36.6720   31.0240 C.2   122  PHE122      0.2290
    142  O          8.1570   35.4980   31.1510 O.2   122  PHE122     -0.2864
    143  CB        10.8040   36.7450   30.0370 C.3   122  PHE122      0.0560
    144  CG        11.5600   36.5250   28.7890 C.ar  122  PHE122     -0.0200
    145  CD1       11.8420   37.5790   27.9460 C.ar  122  PHE122     -0.0042
    146  CD2       11.9030   35.2630   28.3960 C.ar  122  PHE122     -0.0042
    147  CE1       12.4970   37.3670   26.7430 C.ar  122  PHE122     -0.0003
    148  CE2       12.5600   35.0510   27.1940 C.ar  122  PHE122     -0.0003
    149  CZ        12.8630   36.0960   26.3680 C.ar  122  PHE122     -0.0000
    150  N          5.2400   35.9060   29.6070 N.3   125  TYR125     -0.1241
    151  CA         5.3410   34.5790   29.0050 C.3   125  TYR125      0.1605
    152  C          5.2340   33.4300   30.0170 C.2   125  TYR125      0.2264
    153  O          4.5810   32.4060   29.7460 O.2   125  TYR125     -0.2867
    154  CB         6.6390   34.4240   28.2040 C.3   125  TYR125      0.0534
    155  CG         6.8000   35.3530   26.9990 C.ar  125  TYR125     -0.0201
    156  CD1        5.7350   36.0870   26.4790 C.ar  125  TYR125     -0.0009
    157  CD2        8.0400   35.4620   26.3550 C.ar  125  TYR125     -0.0009
    158  CE1        5.9110   36.9150   25.3800 C.ar  125  TYR125      0.0417
    159  CE2        8.2240   36.2910   25.2680 C.ar  125  TYR125      0.0417
    160  CZ         7.1540   37.0120   24.7870 C.ar  125  TYR125      0.1957
    161  OH         7.3440   37.8060   23.6910 O.3   125  TYR125     -0.2866
@<TRIPOS>BOND
     1    14    13    1
     2    14    15    1
     3    13    10    1
     4    71    69   am
     5    15     9    1
     6    64    65    1
     7    65    68    1
     8    65    66    1
     9    69    70    2
    10    69    68    1
    11    10     9    1
    12    10    11    1
    13    32    30    1
    14     9     3   am
    15    67    66    2
    16    66    72   am
    17    25    26    1
    18    29    30    1
    19    29    26    1
    20    29    31    1
    21    11    16   am
    22    11    12    2
    23    26    27    1
    24     1     2    1
    25    16    17    1
    26     3     2    1
    27     3     4    2
    28    56    57    1
    29    72    73    1
    30     2     5    1
    31    74    75    2
    32    74    73    1
    33    18    17    1
    34    18    19    2
    35    57    58    1
    36    57    60    1
    37    17    20    1
    38    58    59    2
    39    27    28    2
    40    27    33   am
    41     8     7    1
    42    73    76    1
    43    50    51    2
    44    50    49    1
    45    48    49    1
    46     5     6    1
    47    33    34    1
    48    20    21    1
    49    61    60    1
    50    61    62    1
    51    49    52    1
    52    76    77    1
    53     6     7    1
    54    21    22    1
    55    40    41    1
    56    34    35    1
    57    34    37    1
    58    23    22    2
    59    52    53    1
    60    77    79   ar
    61    77    78   ar
    62    22    24   am
    63    35    36    2
    64    38    37    1
    65    79    81   ar
    66    62    63    1
    67    46    44    1
    68    37    39    1
    69    41    44    1
    70    41    42    1
    71    78    80   ar
    72    53    55    1
    73    53    54    1
    74    44    45    1
    75    81    80   ar
    76    45    47    1
    77    42    43    2
    78    95    93    1
    79    93    92    1
    80    94    92    1
    81    92    89    1
    82    87    86    1
    83   114   112    1
    84    82    83    1
    85    89    88    1
    86    89    90    1
    87    83    86    1
    88    83    84    1
    89   107   108    1
    90   122   120    1
    91   130   128    1
    92   108   109    1
    93   108   111    1
    94   112   111    1
    95   112   113    1
    96    90    91    2
    97    90    96   am
    98    84    85    2
    99   109   110    2
   100   120   121    1
   101   120   119    1
   102    96    97    1
   103   124   123    1
   104   124   125    1
   105   124   127    1
   106   128   127    1
   107   126   125    2
   108   129   127    1
   109   161   160    1
   110    97    98    1
   111    97   100    1
   112   118   117    2
   113   119   116    1
   114   116   117    1
   115   116   115    1
   116   137   138    1
   117   137   136    1
   118    98    99    2
   119   160   159   ar
   120   160   158   ar
   121   100   101    1
   122   159   157   ar
   123   158   156   ar
   124   102   101   ar
   125   102   104   ar
   126   136   135    1
   127   101   103   ar
   128   157   155   ar
   129   149   147   ar
   130   149   148   ar
   131   156   155   ar
   132   104   106   ar
   133   147   145   ar
   134   155   154    1
   135   148   146   ar
   136   103   105   ar
   137   135   132    1
   138   106   105   ar
   139   145   144   ar
   140   154   151    1
   141   146   144   ar
   142   132   133    1
   143   132   131    1
   144   134   133    2
   145   144   143    1
   146   133   139   am
   147   151   150    1
   148   151   152    1
   149   139   140    1
   150   153   152    2
   151   140   143    1
   152   140   141    1
   153   141   142    2
