@<TRIPOS>MOLECULE
tmp/5iawA01.pdb
 183 177 0 0 0
SMALL
GASTEIGER

@<TRIPOS>ATOM
      1  N         18.2020   41.6990   14.6710 N.3    40  PHE40      -0.1241
      2  CA        17.1280   42.6190   14.5090 C.3    40  PHE40       0.1605
      3  C         16.4000   42.2570   13.2160 C.2    40  PHE40       0.2264
      4  O         15.1720   42.3550   13.1290 O.2    40  PHE40      -0.2867
      5  CB        17.6560   44.0500   14.4800 C.3    40  PHE40       0.0534
      6  CG        16.6270   45.0550   14.0950 C.ar   40  PHE40      -0.0203
      7  CD1       15.6720   45.4800   15.0140 C.ar   40  PHE40      -0.0042
      8  CD2       16.5900   45.5650   12.8200 C.ar   40  PHE40      -0.0042
      9  CE1       14.7010   46.4250   14.6730 C.ar   40  PHE40      -0.0003
     10  CE2       15.6130   46.4840   12.4570 C.ar   40  PHE40      -0.0003
     11  CZ        14.6610   46.9170   13.3840 C.ar   40  PHE40      -0.0000
     12  N         14.1280   39.5630   13.9550 N.3    43  LEU43      -0.1231
     13  CA        12.9640   40.1070   14.6290 C.3    43  LEU43       0.1693
     14  C         11.9930   40.7750   13.6840 C.2    43  LEU43       0.2592
     15  O         10.7740   40.7130   13.8940 O.2    43  LEU43      -0.2718
     16  CB        13.3780   41.1070   15.6910 C.3    43  LEU43       0.0284
     17  CG        14.2840   40.5260   16.8020 C.3    43  LEU43       0.0019
     18  CD1       14.6270   41.6200   17.8120 C.3    43  LEU43       0.0001
     19  CD2       13.6520   39.3880   17.5610 C.3    43  LEU43       0.0001
     20  N         12.5250   41.3990   12.6380 N.am   44  THR44      -0.1953
     21  CA        11.6980   42.1230   11.7100 C.3    44  THR44       0.1897
     22  C         10.8740   41.1260   10.9560 C.2    44  THR44       0.2313
     23  O          9.6810   41.3610   10.7290 O.2    44  THR44      -0.2863
     24  CB        12.5180   43.0280   10.8060 C.3    44  THR44       0.1794
     25  OG1       13.0160   44.1300   11.5680 O.3    44  THR44      -0.2208
     26  CG2       11.6950   43.6180    9.7090 C.3    44  THR44       0.0378
     27  N          9.9600   38.2860   12.2230 N.3    46  MET46      -0.1230
     28  CA         9.0020   37.6640   13.1150 C.3    46  MET46       0.1702
     29  C          7.8450   38.6120   13.3210 C.2    46  MET46       0.2592
     30  O          6.6990   38.2160   13.3400 O.2    46  MET46      -0.2718
     31  CB         9.6440   37.3280   14.4460 C.3    46  MET46       0.0401
     32  CG        10.6960   36.2410   14.3680 C.3    46  MET46       0.0596
     33  SD        11.2910   35.7070   16.0370 S.3    46  MET46      -0.1393
     34  CE        12.0730   37.1980   16.4880 C.3    46  MET46       0.0692
     35  N          8.1690   39.8830   13.4440 N.am   47  ALA47      -0.1980
     36  CA         7.1540   40.9060   13.5910 C.3    47  ALA47       0.1597
     37  C          6.2390   40.9370   12.3660 C.2    47  ALA47       0.2287
     38  O          5.0280   40.9830   12.4970 O.2    47  ALA47      -0.2864
     39  CB         7.7930   42.2710   13.8390 C.3    47  ALA47       0.0319
     40  N          3.8730   38.3170   12.4700 N.3    50  HIS50      -0.1241
     41  CA         2.8050   38.4810   13.4160 C.3    50  HIS50       0.1621
     42  C          1.7100   39.3110   12.7560 C.2    50  HIS50       0.2264
     43  O          0.5440   38.9650   12.8200 O.2    50  HIS50      -0.2867
     44  CB         3.2880   39.1640   14.7090 C.3    50  HIS50       0.0745
     45  CG         3.9770   38.2550   15.6910 C.ar   50  HIS50       0.0817
     46  ND1        3.2940   37.4130   16.5430 N.ar   50  HIS50      -0.2268
     47  CD2        5.2880   38.1320   16.0120 C.ar   50  HIS50       0.1154
     48  CE1        4.1650   36.7840   17.3180 C.ar   50  HIS50       0.1986
     49  NE2        5.3810   37.2120   17.0210 N.ar   50  HIS50      -0.2212
     50  N         -0.0620   40.4070   19.3030 N.3    84  MET84      -0.1230
     51  CA         1.3020   39.9550   18.9790 C.3    84  MET84       0.1702
     52  C          1.9970   39.3790   20.2010 C.2    84  MET84       0.2592
     53  O          2.6460   38.3760   20.1160 O.2    84  MET84      -0.2718
     54  CB         2.1170   41.1120   18.4300 C.3    84  MET84       0.0401
     55  CG         3.5810   40.8140   18.1730 C.3    84  MET84       0.0596
     56  SD         4.3960   42.3440   17.6700 S.3    84  MET84      -0.1393
     57  CE         3.6820   42.5060   16.0410 C.3    84  MET84       0.0692
     58  N          1.8050   40.0070   21.3570 N.am   85  PHE85      -0.1976
     59  CA         2.3540   39.4720   22.5930 C.3    85  PHE85       0.1639
     60  C          1.6390   38.1980   23.0600 C.2    85  PHE85       0.2290
     61  O          2.2440   37.2900   23.6160 O.2    85  PHE85      -0.2864
     62  CB         2.4690   40.5680   23.6430 C.3    85  PHE85       0.0560
     63  CG         3.7230   41.4410   23.4750 C.ar   85  PHE85      -0.0200
     64  CD1        4.9310   41.0630   24.0160 C.ar   85  PHE85      -0.0042
     65  CD2        3.7010   42.5770   22.7480 C.ar   85  PHE85      -0.0042
     66  CE1        6.0770   41.8270   23.8490 C.ar   85  PHE85      -0.0003
     67  CE2        4.8430   43.3450   22.5570 C.ar   85  PHE85      -0.0003
     68  CZ         6.0250   42.9840   23.1210 C.ar   85  PHE85      -0.0000
     69  N          3.1210   35.5230   20.7980 N.3    88  SER88      -0.1217
     70  CA         4.4540   35.2850   21.3040 C.3    88  SER88       0.1889
     71  C          4.4320   34.3800   22.5570 C.2    88  SER88       0.2288
     72  O          5.1360   33.3990   22.5960 O.2    88  SER88      -0.2866
     73  CB         5.1070   36.6190   21.5740 C.3    88  SER88       0.2089
     74  OG         5.2270   37.2070   20.3170 O.3    88  SER88      -0.2183
     75  N         17.6090   38.3740   23.1490 N.3   108  ILE108     -0.1245
     76  CA        16.7340   39.5420   23.0680 C.3   108  ILE108      0.1561
     77  C         17.3250   40.8040   23.6990 C.2   108  ILE108      0.2260
     78  O         16.9920   41.9100   23.2690 O.2   108  ILE108     -0.2867
     79  CB        15.3920   39.2690   23.7480 C.3   108  ILE108      0.0252
     80  CG1       14.7090   38.0220   23.1800 C.3   108  ILE108      0.0019
     81  CG2       14.4700   40.4570   23.5900 C.3   108  ILE108      0.0019
     82  CD1       14.3210   38.1210   21.7220 C.3   108  ILE108      0.0001
     83  N         16.9570   46.0380   22.4620 N.3   113  ILE113     -0.1245
     84  CA        15.9020   46.2990   23.4160 C.3   113  ILE113      0.1561
     85  C         16.4670   46.4370   24.8210 C.2   113  ILE113      0.2260
     86  O         17.3260   45.6600   25.2440 O.2   113  ILE113     -0.2867
     87  CB        14.9050   45.1470   23.4270 C.3   113  ILE113      0.0252
     88  CG1       14.3710   44.9070   22.0250 C.3   113  ILE113      0.0019
     89  CG2       13.7580   45.4420   24.3720 C.3   113  ILE113      0.0019
     90  CD1       13.7390   43.5490   21.8640 C.3   113  ILE113      0.0001
     91  N          8.3420   41.2240   29.5990 N.3   121  MET121     -0.1245
     92  CA         7.9690   40.3300   28.4730 C.3   121  MET121      0.1570
     93  C          7.9940   38.8580   28.8670 C.2   121  MET121      0.2261
     94  O          7.0080   38.1460   28.7340 O.2   121  MET121     -0.2867
     95  CB         8.9480   40.5620   27.3050 C.3   121  MET121      0.0387
     96  CG         8.5860   40.0100   25.9300 C.3   121  MET121      0.0595
     97  SD         9.7660   40.5580   24.6210 S.3   121  MET121     -0.1393
     98  CE        11.0550   39.4110   25.0180 C.3   121  MET121      0.0692
     99  N          5.2400   35.9060   29.6070 N.3   125  TYR125     -0.1241
    100  CA         5.3410   34.5790   29.0050 C.3   125  TYR125      0.1605
    101  C          5.2340   33.4300   30.0170 C.2   125  TYR125      0.2264
    102  O          4.5810   32.4060   29.7460 O.2   125  TYR125     -0.2867
    103  CB         6.6390   34.4240   28.2040 C.3   125  TYR125      0.0534
    104  CG         6.8000   35.3530   26.9990 C.ar  125  TYR125     -0.0201
    105  CD1        5.7350   36.0870   26.4790 C.ar  125  TYR125     -0.0009
    106  CD2        8.0400   35.4620   26.3550 C.ar  125  TYR125     -0.0009
    107  CE1        5.9110   36.9150   25.3800 C.ar  125  TYR125      0.0417
    108  CE2        8.2240   36.2910   25.2680 C.ar  125  TYR125      0.0417
    109  CZ         7.1540   37.0120   24.7870 C.ar  125  TYR125      0.1957
    110  OH         7.3440   37.8060   23.6910 O.3   125  TYR125     -0.2866
    111  N          5.9330   49.0420   23.8130 N.3   203  HIS203     -0.1241
    112  CA         6.2090   48.7620   22.4270 C.3   203  HIS203      0.1621
    113  C          6.5440   50.0180   21.6860 C.2   203  HIS203      0.2264
    114  O          7.4580   50.0210   20.8990 O.2   203  HIS203     -0.2867
    115  CB         5.0460   48.0430   21.7320 C.3   203  HIS203      0.0745
    116  CG         5.4290   47.4960   20.3920 C.ar  203  HIS203      0.0817
    117  ND1        4.9850   48.0470   19.2060 N.ar  203  HIS203     -0.2268
    118  CD2        6.2940   46.5060   20.0550 C.ar  203  HIS203      0.1154
    119  CE1        5.5430   47.4120   18.1980 C.ar  203  HIS203      0.1986
    120  NE2        6.3360   46.4680   18.6890 N.ar  203  HIS203     -0.2212
    121  N          9.9280   50.7360   22.6450 N.3   206  MET206     -0.1230
    122  CA        10.8900   49.8920   21.9630 C.3   206  MET206      0.1702
    123  C         11.1530   50.4300   20.5700 C.2   206  MET206      0.2592
    124  O         12.2850   50.3970   20.1270 O.2   206  MET206     -0.2718
    125  CB        10.4300   48.4390   21.8700 C.3   206  MET206      0.0401
    126  CG        10.3650   47.6980   23.2010 C.3   206  MET206      0.0596
    127  SD         9.4720   46.1020   23.1610 S.3   206  MET206     -0.1393
    128  CE        10.4440   45.3950   21.8490 C.3   206  MET206      0.0692
    129  N         10.1150   50.9290   19.8950 N.am  207  LEU207     -0.1980
    130  CA        10.2530   51.4790   18.5470 C.3   207  LEU207      0.1596
    131  C         10.9130   52.8230   18.5260 C.2   207  LEU207      0.2287
    132  O         11.7360   53.0900   17.6630 O.2   207  LEU207     -0.2864
    133  CB         8.9040   51.6960   17.8630 C.3   207  LEU207      0.0297
    134  CG         8.0310   50.5000   17.5740 C.3   207  LEU207      0.0022
    135  CD1        6.7860   50.8790   16.7760 C.3   207  LEU207      0.0001
    136  CD2        8.8260   49.4550   16.8320 C.3   207  LEU207      0.0001
    137  N         14.5900   52.0190   19.1230 N.3   210  TRP210     -0.1241
    138  CA        15.2100   51.4470   17.9230 C.3   210  TRP210      0.1605
    139  C         15.4930   52.5000   16.8360 C.2   210  TRP210      0.2264
    140  O         16.5390   52.4790   16.1660 O.2   210  TRP210     -0.2867
    141  CB        14.3010   50.3940   17.3180 C.3   210  TRP210      0.0550
    142  CG        14.5070   49.0250   17.8180 C.ar  210  TRP210      0.0003
    143  CD1       15.7060   48.4250   18.1540 C.ar  210  TRP210      0.0946
    144  CD2       13.5090   48.0160   17.9700 C.ar  210  TRP210      0.0152
    145  NE1       15.4960   47.1220   18.5110 N.ar  210  TRP210     -0.2442
    146  CE2       14.1620   46.8380   18.3980 C.ar  210  TRP210      0.0810
    147  CE3       12.1390   47.9890   17.7790 C.ar  210  TRP210      0.0012
    148  CZ2       13.4770   45.6450   18.6510 C.ar  210  TRP210      0.0191
    149  CZ3       11.4520   46.7850   18.0060 C.ar  210  TRP210      0.0001
    150  CH2       12.1230   45.6360   18.4420 C.ar  210  TRP210      0.0015
    151  N         12.6470   50.0350    9.7620 N.3   217  PHE217     -0.1241
    152  CA        11.6370   48.9850    9.8560 C.3   217  PHE217      0.1605
    153  C         11.2500   48.4990    8.4300 C.2   217  PHE217      0.2264
    154  O         12.1460   48.2160    7.6160 O.2   217  PHE217     -0.2867
    155  CB        10.4280   49.4360   10.6860 C.3   217  PHE217      0.0534
    156  CG        10.7800   50.0640   11.9990 C.ar  217  PHE217     -0.0203
    157  CD1       11.4830   49.3610   12.9580 C.ar  217  PHE217     -0.0042
    158  CD2       10.3960   51.3730   12.2900 C.ar  217  PHE217     -0.0042
    159  CE1       11.7930   49.9190   14.1700 C.ar  217  PHE217     -0.0003
    160  CE2       10.7170   51.9400   13.5060 C.ar  217  PHE217     -0.0003
    161  CZ        11.4180   51.2080   14.4450 C.ar  217  PHE217     -0.0000
    162  N          5.0980   47.5690    8.8040 N.3   221  LEU221     -0.1245
    163  CA         5.3040   47.7780   10.2110 C.3   221  LEU221      0.1561
    164  C          5.0940   49.2400   10.5400 C.2   221  LEU221      0.2260
    165  O          4.4730   49.5580   11.5700 O.2   221  LEU221     -0.2867
    166  CB         6.6400   47.2750   10.6380 C.3   221  LEU221      0.0270
    167  CG         6.8330   45.7930   10.3560 C.3   221  LEU221      0.0019
    168  CD1        8.0510   45.3240   11.1130 C.3   221  LEU221      0.0001
    169  CD2        5.6510   44.9390   10.7360 C.3   221  LEU221      0.0001
    170  N          1.6830   50.7140   13.0650 N.3   225  TRP225     -0.1241
    171  CA         1.9540   51.4850   14.2600 C.3   225  TRP225      0.1605
    172  C          2.2480   52.9140   14.0310 C.2   225  TRP225      0.2264
    173  O          2.9250   53.4630   14.8590 O.2   225  TRP225     -0.2867
    174  CB         3.1400   50.8750   14.9930 C.3   225  TRP225      0.0550
    175  CG         2.8110   49.5340   15.4860 C.ar  225  TRP225      0.0003
    176  CD1        1.7770   49.1900   16.3240 C.ar  225  TRP225      0.0946
    177  CD2        3.5330   48.3430   15.2090 C.ar  225  TRP225      0.0152
    178  NE1        1.8210   47.8370   16.5480 N.ar  225  TRP225     -0.2442
    179  CE2        2.8890   47.3020   15.8750 C.ar  225  TRP225      0.0810
    180  CE3        4.6870   48.0640   14.4720 C.ar  225  TRP225      0.0012
    181  CZ2        3.3390   46.0000   15.8100 C.ar  225  TRP225      0.0191
    182  CZ3        5.1420   46.7650   14.4040 C.ar  225  TRP225      0.0001
    183  CH2        4.4560   45.7460   15.0470 C.ar  225  TRP225      0.0015
@<TRIPOS>BOND
     1   154   153    2
     2   153   152    1
     3   162   163    1
     4    26    24    1
     5   151   152    1
     6   152   155    1
     7   163   164    1
     8   163   166    1
     9   167   166    1
    10   167   169    1
    11   167   168    1
    12   164   165    2
    13   155   156    1
    14    23    22    2
    15    24    25    1
    16    24    21    1
    17    22    21    1
    18    21    20    1
    19   156   158   ar
    20   156   157   ar
    21    27    28    1
    22   158   160   ar
    23    37    38    2
    24    37    36    1
    25    10     8   ar
    26    10    11   ar
    27    40    41    1
    28    20    14   am
    29    42    43    2
    30    42    41    1
    31     8     6   ar
    32   157   159   ar
    33   170   171    1
    34    28    29    1
    35    28    31    1
    36     4     3    2
    37     3     2    1
    38    29    30    2
    39    29    35   am
    40    11     9   ar
    41    41    44    1
    42    35    36    1
    43   160   161   ar
    44    36    39    1
    45    14    15    2
    46    14    13    1
    47    12    13    1
    48   172   171    1
    49   172   173    2
    50     6     5    1
    51     6     7   ar
    52   159   161   ar
    53   171   174    1
    54    32    31    1
    55    32    33    1
    56   182   180   ar
    57   182   183   ar
    58   180   177   ar
    59     5     2    1
    60     2     1    1
    61    13    16    1
    62     9     7   ar
    63    44    45    1
    64   174   175    1
    65   183   181   ar
    66   177   175   ar
    67   177   179   ar
    68   175   176   ar
    69    16    17    1
    70    45    47   ar
    71    45    46   ar
    72   181   179   ar
    73   179   178   ar
    74    47    49   ar
    75    33    34    1
    76    57    56    1
    77   140   139    2
    78   176   178   ar
    79    46    48   ar
    80   135   134    1
    81    17    19    1
    82    17    18    1
    83   136   134    1
    84   139   138    1
    85    49    48   ar
    86   141   142    1
    87   141   138    1
    88   134   133    1
    89   132   131    2
    90    56    55    1
    91   147   144   ar
    92   147   149   ar
    93   142   144   ar
    94   142   143   ar
    95   133   130    1
    96   138   137    1
    97   144   146   ar
    98   149   150   ar
    99   143   145   ar
   100    55    54    1
   101   119   120   ar
   102   119   117   ar
   103   146   145   ar
   104   146   148   ar
   105    54    51    1
   106   150   148   ar
   107   131   130    1
   108   130   129    1
   109   120   118   ar
   110    51    50    1
   111    51    52    1
   112   117   116   ar
   113   129   123   am
   114   118   116   ar
   115    53    52    2
   116   124   123    2
   117    52    58   am
   118    74    73    1
   119   116   115    1
   120   123   122    1
   121    69    70    1
   122   114   113    2
   123    70    73    1
   124    70    71    1
   125    58    59    1
   126   113   112    1
   127    82    80    1
   128   115   112    1
   129   128   127    1
   130    90    88    1
   131   125   122    1
   132   125   126    1
   133   122   121    1
   134    88    87    1
   135   112   111    1
   136    83    84    1
   137    67    65   ar
   138    67    68   ar
   139    71    72    2
   140    59    60    1
   141    59    62    1
   142    65    63   ar
   143    60    61    2
   144    76    75    1
   145    76    77    1
   146    76    79    1
   147    68    66   ar
   148   127   126    1
   149    80    79    1
   150    78    77    2
   151    84    87    1
   152    84    85    1
   153    87    89    1
   154    63    62    1
   155    63    64   ar
   156    81    79    1
   157   110   109    1
   158    66    64   ar
   159    97    98    1
   160    97    96    1
   161   109   108   ar
   162   109   107   ar
   163    85    86    2
   164   108   106   ar
   165   107   105   ar
   166    96    95    1
   167   106   104   ar
   168   105   104   ar
   169   104   103    1
   170    95    92    1
   171   103   100    1
   172    92    93    1
   173    92    91    1
   174    94    93    2
   175   100    99    1
   176   100   101    1
   177   102   101    2
