@<TRIPOS>MOLECULE
tmp/5ib0A00.pdb
 229 228 0 0 0
SMALL
GASTEIGER

@<TRIPOS>ATOM
      1  N        -13.5840  -12.4500  -28.7380 N.3    21  THR21      -0.1204
      2  CA       -13.0050  -13.6360  -29.3940 C.3    21  THR21       0.1979
      3  C        -11.6650  -13.2700  -30.0090 C.2    21  THR21       0.2460
      4  O        -11.6000  -12.5800  -31.0200 O.2    21  THR21      -0.2732
      5  CB       -13.9600  -14.2300  -30.4530 C.3    21  THR21       0.1783
      6  OG1      -15.2270  -14.4340  -29.8370 O.3    21  THR21      -0.2211
      7  CG2      -13.5290  -15.6040  -30.8550 C.3    21  THR21       0.0376
      8  N        -10.5590  -13.8160  -29.4150 N.am   22  PRO22      -0.2717
      9  CA        -9.2790  -13.6090  -30.0770 C.3    22  PRO22       0.1536
     10  C         -9.2960  -14.1800  -31.4850 C.2    22  PRO22       0.2599
     11  O         -9.8530  -15.2610  -31.7210 O.2    22  PRO22      -0.2715
     12  CB        -8.2730  -14.3700  -29.1780 C.3    22  PRO22       0.0310
     13  CG        -8.9680  -14.5570  -27.8730 C.3    22  PRO22       0.0237
     14  CD       -10.4310  -14.6400  -28.2060 C.3    22  PRO22       0.0939
     15  N         -8.6930  -13.4540  -32.4150 N.am   23  GLY23      -0.1941
     16  CA        -8.6710  -13.8570  -33.8130 C.3    23  GLY23       0.2014
     17  C         -9.7220  -13.2020  -34.6830 C.2    23  GLY23       0.2638
     18  O         -9.6440  -13.2950  -35.9070 O.2    23  GLY23      -0.2714
     19  N        -10.6890  -12.5140  -34.0690 N.am   24  ILE24      -0.1977
     20  CA       -11.6830  -11.7410  -34.8280 C.3    24  ILE24       0.1596
     21  C        -11.2900  -10.2630  -34.8210 C.2    24  ILE24       0.2287
     22  O        -11.2450   -9.6400  -33.7690 O.2    24  ILE24      -0.2864
     23  CB       -13.0960  -11.9220  -34.2380 C.3    24  ILE24       0.0276
     24  CG1      -13.5000  -13.4060  -34.2060 C.3    24  ILE24       0.0022
     25  CG2      -14.1200  -11.1210  -35.0320 C.3    24  ILE24       0.0022
     26  CD1      -13.6020  -14.0930  -35.5640 C.3    24  ILE24       0.0001
     27  N        -22.0960  -17.3630  -37.5530 N.3    59  LEU59      -0.1245
     28  CA       -21.4650  -17.3840  -38.8540 C.3    59  LEU59       0.1561
     29  C        -22.2200  -16.3570  -39.7250 C.2    59  LEU59       0.2260
     30  O        -23.4080  -16.5340  -39.9690 O.2    59  LEU59      -0.2867
     31  CB       -21.5630  -18.7560  -39.5040 C.3    59  LEU59       0.0270
     32  CG       -21.0900  -18.9330  -40.9630 C.3    59  LEU59       0.0019
     33  CD1      -19.6890  -18.4050  -41.1460 C.3    59  LEU59       0.0001
     34  CD2      -21.1910  -20.3700  -41.3980 C.3    59  LEU59       0.0001
     35  N        -18.3020  -15.8030  -46.6890 N.3    70  LEU70      -0.1231
     36  CA       -18.5660  -16.0480  -45.2860 C.3    70  LEU70       0.1693
     37  C        -17.5530  -15.3180  -44.4350 C.2    70  LEU70       0.2592
     38  O        -16.3960  -15.2130  -44.8030 O.2    70  LEU70      -0.2718
     39  CB       -18.4540  -17.5340  -44.9850 C.3    70  LEU70       0.0284
     40  CG       -19.6260  -18.4580  -45.3880 C.3    70  LEU70       0.0019
     41  CD1      -20.1180  -18.2830  -46.7730 C.3    70  LEU70       0.0001
     42  CD2      -19.2840  -19.9310  -45.0990 C.3    70  LEU70       0.0001
     43  N        -17.9790  -14.8520  -43.2550 N.am   71  GLN71      -0.1966
     44  CA       -17.1370  -14.0570  -42.3550 C.3    71  GLN71       0.1733
     45  C        -17.4770  -14.3040  -40.8890 C.2    71  GLN71       0.2616
     46  O        -18.6020  -14.7180  -40.6070 O.2    71  GLN71      -0.2715
     47  CB       -17.3690  -12.5810  -42.6760 C.3    71  GLN71       0.0408
     48  CG       -16.6340  -11.9830  -43.8680 C.3    71  GLN71       0.0908
     49  CD       -15.3080  -11.3330  -43.4420 C.2    71  GLN71       0.2608
     50  OE1      -15.2540  -10.5890  -42.4440 O.2    71  GLN71      -0.2717
     51  NE2      -14.2300  -11.6010  -44.1960 N.am   71  GLN71      -0.0878
     52  N        -16.5670  -13.9950  -39.9580 N.am   72  HIS72      -0.1959
     53  CA       -16.8810  -14.0210  -38.5310 C.3    72  HIS72       0.1787
     54  C        -17.5160  -15.3600  -38.0530 C.2    72  HIS72       0.2620
     55  O        -18.4790  -15.3660  -37.2860 O.2    72  HIS72      -0.2715
     56  CB       -17.7830  -12.8640  -38.1160 C.3    72  HIS72       0.0785
     57  CG       -17.1700  -11.5230  -38.2790 C.ar   72  HIS72       0.0821
     58  ND1      -15.8020  -11.3050  -38.3350 N.ar   72  HIS72      -0.2267
     59  CD2      -17.7520  -10.2970  -38.3530 C.ar   72  HIS72       0.1154
     60  CE1      -15.5740  -10.0020  -38.4450 C.ar   72  HIS72       0.1986
     61  NE2      -16.7400   -9.3740  -38.4530 N.ar   72  HIS72      -0.2212
     62  N        -16.8920  -16.4750  -38.4220 N.am   73  LEU73      -0.1963
     63  CA       -17.1960  -17.7410  -37.8510 C.3    73  LEU73       0.1728
     64  C        -16.6080  -17.8070  -36.4240 C.2    73  LEU73       0.2616
     65  O        -15.4010  -17.6530  -36.2560 O.2    73  LEU73      -0.2715
     66  CB       -16.5360  -18.8530  -38.7180 C.3    73  LEU73       0.0311
     67  CG       -16.7240  -20.2320  -38.1500 C.3    73  LEU73       0.0022
     68  CD1      -18.1470  -20.7250  -38.1590 C.3    73  LEU73       0.0001
     69  CD2      -15.8530  -21.1850  -38.9480 C.3    73  LEU73       0.0001
     70  N        -17.4690  -18.0310  -35.4300 N.am   74  VAL74      -0.1963
     71  CA       -17.0860  -18.0590  -34.0410 C.3    74  VAL74       0.1727
     72  C        -17.8480  -19.1320  -33.3210 C.2    74  VAL74       0.2616
     73  O        -19.0640  -19.1990  -33.4490 O.2    74  VAL74      -0.2715
     74  CB       -17.3120  -16.7150  -33.3010 C.3    74  VAL74       0.0290
     75  CG1      -16.8750  -16.8240  -31.8660 C.3    74  VAL74       0.0023
     76  CG2      -16.5810  -15.5730  -33.9840 C.3    74  VAL74       0.0023
     77  N        -17.1510  -19.8890  -32.4960 N.am   75  VAL75      -0.1977
     78  CA       -17.7660  -20.7080  -31.4570 C.3    75  VAL75       0.1596
     79  C        -17.0740  -20.3190  -30.1360 C.2    75  VAL75       0.2287
     80  O        -15.8550  -20.3110  -30.0520 O.2    75  VAL75      -0.2864
     81  CB       -17.6200  -22.2090  -31.7190 C.3    75  VAL75       0.0276
     82  CG1      -18.2260  -23.0270  -30.5690 C.3    75  VAL75       0.0022
     83  CG2      -18.2870  -22.6080  -33.0250 C.3    75  VAL75       0.0022
     84  N        -17.8880  -24.1540  -25.8460 N.3    79  TYR79      -0.1227
     85  CA       -18.7300  -24.9810  -26.6730 C.3    79  TYR79       0.1736
     86  C        -17.9740  -25.4940  -27.9090 C.2    79  TYR79       0.2595
     87  O        -18.6090  -25.9940  -28.8100 O.2    79  TYR79      -0.2718
     88  CB       -19.9710  -24.1760  -27.0870 C.3    79  TYR79       0.0548
     89  CG       -20.7880  -23.7060  -25.9050 C.ar   79  TYR79      -0.0200
     90  CD1      -20.5110  -22.4990  -25.2570 C.ar   79  TYR79      -0.0009
     91  CD2      -21.8100  -24.4860  -25.4140 C.ar   79  TYR79      -0.0009
     92  CE1      -21.2450  -22.0980  -24.1410 C.ar   79  TYR79       0.0417
     93  CE2      -22.5410  -24.0990  -24.2950 C.ar   79  TYR79       0.0417
     94  CZ       -22.2580  -22.9060  -23.6770 C.ar   79  TYR79       0.1957
     95  OH       -22.9900  -22.5600  -22.5480 O.3    79  TYR79      -0.2866
     96  N        -16.6390  -25.4410  -27.9030 N.am   80  ARG80      -0.1966
     97  CA       -15.8580  -25.9870  -29.0240 C.3    80  ARG80       0.1729
     98  C        -15.7570  -27.4900  -29.0250 C.2    80  ARG80       0.2617
     99  O        -15.8960  -28.1480  -28.0010 O.2    80  ARG80      -0.2715
    100  CB       -14.4850  -25.3390  -29.1080 C.3    80  ARG80       0.0348
    101  CG       -14.6100  -23.8410  -29.4420 C.3    80  ARG80       0.0492
    102  CD       -13.2780  -23.1540  -29.6110 C.3    80  ARG80       0.2205
    103  NE       -13.4890  -21.7310  -29.7260 N.pl3  80  ARG80      -0.0865
    104  CZ       -12.5370  -20.7900  -29.6800 C.cat  80  ARG80       0.5346
    105  NH1      -11.2580  -21.1240  -29.5130 N.pl3  80  ARG80       0.1354
    106  NH2      -12.8720  -19.4970  -29.8090 N.pl3  80  ARG80       0.1354
    107  N        -15.5220  -28.0160  -30.2160 N.am   81  GLY81      -0.1940
    108  CA       -15.3890  -29.4370  -30.4180 C.3    81  GLY81       0.2014
    109  C        -16.6790  -30.2210  -30.3840 C.2    81  GLY81       0.2639
    110  O        -16.6530  -31.4220  -30.2380 O.2    81  GLY81      -0.2714
    111  N        -17.8070  -29.5320  -30.5760 N.am   82  LEU82      -0.1963
    112  CA       -19.1220  -30.1590  -30.5580 C.3    82  LEU82       0.1728
    113  C        -19.7530  -30.1800  -31.9420 C.2    82  LEU82       0.2617
    114  O        -20.9150  -30.5550  -32.0760 O.2    82  LEU82      -0.2715
    115  CB       -20.0860  -29.3990  -29.5960 C.3    82  LEU82       0.0311
    116  CG       -19.7160  -29.3920  -28.0960 C.3    82  LEU82       0.0022
    117  CD1      -20.5350  -28.3530  -27.3330 C.3    82  LEU82       0.0001
    118  CD2      -19.7940  -30.7790  -27.5000 C.3    82  LEU82       0.0001
    119  N        -19.0480  -29.6660  -32.9430 N.am   83  GLY83      -0.1940
    120  CA       -19.5800  -29.6460  -34.2930 C.3    83  GLY83       0.2014
    121  C        -20.4260  -28.4400  -34.6060 C.2    83  GLY83       0.2639
    122  O        -21.0910  -28.3990  -35.6450 O.2    83  GLY83      -0.2714
    123  N        -20.3960  -27.4250  -33.7530 N.am   84  LEU84      -0.1963
    124  CA       -21.2600  -26.2440  -34.0060 C.3    84  LEU84       0.1728
    125  C        -20.8440  -25.4630  -35.2470 C.2    84  LEU84       0.2616
    126  O        -21.6950  -24.8940  -35.9600 O.2    84  LEU84      -0.2715
    127  CB       -21.3200  -25.2900  -32.7920 C.3    84  LEU84       0.0311
    128  CG       -22.0460  -25.8350  -31.5630 C.3    84  LEU84       0.0022
    129  CD1      -21.9210  -24.8120  -30.4450 C.3    84  LEU84       0.0001
    130  CD2      -23.5160  -26.1060  -31.8630 C.3    84  LEU84       0.0001
    131  N        -19.5350  -25.3420  -35.4900 N.am   85  ALA85      -0.1963
    132  CA       -19.0780  -24.5930  -36.6610 C.3    85  ALA85       0.1728
    133  C        -19.5190  -25.3480  -37.9130 C.2    85  ALA85       0.2616
    134  O        -20.0350  -24.7420  -38.8580 O.2    85  ALA85      -0.2715
    135  CB       -17.5800  -24.3410  -36.6710 C.3    85  ALA85       0.0334
    136  N        -19.3070  -26.6460  -37.8930 N.am   86  ARG86      -0.1977
    137  CA       -19.7140  -27.4860  -39.0480 C.3    86  ARG86       0.1597
    138  C        -21.2360  -27.4350  -39.2420 C.2    86  ARG86       0.2287
    139  O        -21.6960  -27.3390  -40.4020 O.2    86  ARG86      -0.2864
    140  CB       -19.2390  -28.9030  -38.8340 C.3    86  ARG86       0.0334
    141  CG       -19.6870  -29.9170  -39.8700 C.3    86  ARG86       0.0492
    142  CD       -19.5520  -29.4980  -41.2980 C.3    86  ARG86       0.2205
    143  NE       -18.2260  -29.1320  -41.7600 N.pl3  86  ARG86      -0.0865
    144  CZ       -17.9910  -28.6580  -42.9970 C.cat  86  ARG86       0.5346
    145  NH1      -18.9850  -28.4630  -43.8570 N.pl3  86  ARG86       0.1354
    146  NH2      -16.7580  -28.3460  -43.3660 N.pl3  86  ARG86       0.1354
    147  N        -13.9470  -17.7790  -48.5440 N.3   106  VAL106     -0.1231
    148  CA       -13.5560  -17.0960  -47.2970 C.3   106  VAL106      0.1692
    149  C        -12.1700  -16.5120  -47.4980 C.2   106  VAL106      0.2592
    150  O        -11.3140  -17.1160  -48.1540 O.2   106  VAL106     -0.2718
    151  CB       -13.5930  -17.9650  -46.0150 C.3   106  VAL106      0.0266
    152  CG1      -14.9920  -18.3790  -45.7130 C.3   106  VAL106      0.0020
    153  CG2      -12.7150  -19.1990  -46.1250 C.3   106  VAL106      0.0020
    154  N        -11.9340  -15.3520  -46.8820 N.am  107  PHE107     -0.1962
    155  CA       -10.6140  -14.7030  -46.8360 C.3   107  PHE107      0.1771
    156  C        -10.0710  -14.8870  -45.4230 C.2   107  PHE107      0.2619
    157  O        -10.7990  -14.6270  -44.4500 O.2   107  PHE107     -0.2715
    158  CB       -10.7420  -13.1920  -47.0940 C.3   107  PHE107      0.0574
    159  CG       -11.1080  -12.8430  -48.4980 C.ar  107  PHE107     -0.0200
    160  CD1      -10.2310  -13.0660  -49.5080 C.ar  107  PHE107     -0.0042
    161  CD2      -12.3200  -12.2480  -48.8100 C.ar  107  PHE107     -0.0042
    162  CE1      -10.5130  -12.7540  -50.8300 C.ar  107  PHE107     -0.0003
    163  CE2      -12.6200  -11.9150  -50.1430 C.ar  107  PHE107     -0.0003
    164  CZ       -11.6930  -12.1590  -51.1690 C.ar  107  PHE107     -0.0000
    165  N         -8.8310  -15.3240  -45.2830 N.am  108  VAL108     -0.1977
    166  CA        -8.2260  -15.5540  -43.9910 C.3   108  VAL108      0.1596
    167  C         -6.8620  -14.9110  -43.9830 C.2   108  VAL108      0.2287
    168  O         -6.0450  -15.2180  -44.8260 O.2   108  VAL108     -0.2864
    169  CB        -8.1150  -17.0880  -43.7330 C.3   108  VAL108      0.0276
    170  CG1       -7.6600  -17.3920  -42.3050 C.3   108  VAL108      0.0022
    171  CG2       -9.4480  -17.8170  -43.9840 C.3   108  VAL108      0.0022
    172  N         -4.4530  -20.0850  -36.3180 N.3   114  GLU114     -0.1231
    173  CA        -5.4990  -21.0180  -35.8530 C.3   114  GLU114      0.1699
    174  C         -6.6610  -21.0620  -36.8550 C.2   114  GLU114      0.2592
    175  O         -7.1470  -22.1350  -37.2140 O.2   114  GLU114     -0.2718
    176  CB        -5.9740  -20.6570  -34.4040 C.3   114  GLU114      0.0402
    177  CG        -4.9140  -20.6900  -33.2440 C.3   114  GLU114      0.1161
    178  CD        -3.9380  -19.5060  -33.2780 C.2   114  GLU114      0.3649
    179  OE1       -4.2550  -18.4470  -33.8910 O.co2 114  GLU114     -0.2457
    180  OE2       -2.8350  -19.6350  -32.7040 O.co2 114  GLU114     -0.2457
    181  N         -7.0750  -19.9060  -37.3920 N.am  115  ALA115     -0.1980
    182  CA        -8.0610  -19.9180  -38.4610 C.3   115  ALA115      0.1597
    183  C         -7.5960  -20.6610  -39.7080 C.2   115  ALA115      0.2287
    184  O         -8.3830  -21.3820  -40.3250 O.2   115  ALA115     -0.2864
    185  CB        -8.4950  -18.4920  -38.8470 C.3   115  ALA115      0.0319
    186  N         -5.5500  -23.0930  -39.8990 N.3   117  ALA117     -0.1231
    187  CA        -5.5690  -24.5220  -39.5620 C.3   117  ALA117      0.1694
    188  C         -7.0080  -25.0750  -39.6710 C.2   117  ALA117      0.2592
    189  O         -7.1980  -26.1860  -40.1830 O.2   117  ALA117     -0.2718
    190  CB        -4.9870  -24.7590  -38.1770 C.3   117  ALA117      0.0304
    191  N         -7.9860  -24.3300  -39.1470 N.am  118  PHE118     -0.1962
    192  CA        -9.3820  -24.7310  -39.2400 C.3   118  PHE118      0.1771
    193  C         -9.7900  -24.9510  -40.6910 C.2   118  PHE118      0.2619
    194  O        -10.3470  -25.9750  -41.0470 O.2   118  PHE118     -0.2715
    195  CB       -10.3370  -23.7330  -38.5540 C.3   118  PHE118      0.0574
    196  CG       -11.7810  -24.0570  -38.8160 C.ar  118  PHE118     -0.0200
    197  CD1      -12.4720  -24.9600  -38.0380 C.ar  118  PHE118     -0.0042
    198  CD2      -12.4520  -23.4680  -39.8690 C.ar  118  PHE118     -0.0042
    199  CE1      -13.8000  -25.2630  -38.2900 C.ar  118  PHE118     -0.0003
    200  CE2      -13.7530  -23.8170  -40.1630 C.ar  118  PHE118     -0.0003
    201  CZ       -14.4420  -24.6980  -39.3540 C.ar  118  PHE118     -0.0000
    202  N         -9.5520  -23.9440  -41.5400 N.am  119  TRP119     -0.1974
    203  CA       -10.0000  -23.9970  -42.9010 C.3   119  TRP119      0.1640
    204  C         -9.2600  -25.0750  -43.7450 C.2   119  TRP119      0.2290
    205  O         -9.8860  -25.7330  -44.5520 O.2   119  TRP119     -0.2864
    206  CB        -9.9080  -22.6220  -43.5800 C.3   119  TRP119      0.0576
    207  CG       -10.9690  -21.6950  -43.0480 C.ar  119  TRP119      0.0006
    208  CD1      -10.8110  -20.6970  -42.1560 C.ar  119  TRP119      0.0946
    209  CD2      -12.3550  -21.8270  -43.2750 C.ar  119  TRP119      0.0152
    210  NE1      -12.0380  -20.1020  -41.8880 N.ar  119  TRP119     -0.2442
    211  CE2      -13.0070  -20.8020  -42.5550 C.ar  119  TRP119      0.0810
    212  CE3      -13.1330  -22.6870  -44.0710 C.ar  119  TRP119      0.0012
    213  CZ2      -14.4040  -20.6330  -42.5900 C.ar  119  TRP119      0.0191
    214  CZ3      -14.5000  -22.5000  -44.0850 C.ar  119  TRP119      0.0001
    215  CH2      -15.1210  -21.5240  -43.3490 C.ar  119  TRP119      0.0015
    216  N         -8.4550  -27.8630  -42.6870 N.3   121  ALA121     -0.1231
    217  CA        -9.0310  -29.1470  -42.2460 C.3   121  ALA121      0.1694
    218  C        -10.4410  -29.4200  -42.7630 C.2   121  ALA121      0.2591
    219  O        -10.9320  -30.5300  -42.5800 O.2   121  ALA121     -0.2718
    220  CB        -9.0090  -29.2410  -40.7410 C.3   121  ALA121      0.0304
    221  N        -11.0830  -28.4590  -43.4290 N.am  122  GLN122     -0.1979
    222  CA       -12.3940  -28.7070  -43.9860 C.3   122  GLN122      0.1601
    223  C        -12.3030  -29.3050  -45.3840 C.2   122  GLN122      0.2287
    224  O        -11.8480  -28.6250  -46.3170 O.2   122  GLN122     -0.2864
    225  CB       -13.2170  -27.4300  -44.0020 C.3   122  GLN122      0.0394
    226  CG       -13.2680  -26.6950  -42.6640 C.3   122  GLN122      0.0908
    227  CD       -13.6140  -27.5990  -41.4850 C.2   122  GLN122      0.2608
    228  OE1      -14.6510  -28.2500  -41.4970 O.2   122  GLN122     -0.2717
    229  NE2      -12.7630  -27.6410  -40.4920 N.am  122  GLN122     -0.0878
@<TRIPOS>BOND
     1   164   162   ar
     2   164   163   ar
     3   162   160   ar
     4   163   161   ar
     5   160   159   ar
     6   161   159   ar
     7   147   148    1
     8   159   158    1
     9   150   149    2
    10   149   148    1
    11   149   154   am
    12   148   151    1
    13   158   155    1
    14   154   155    1
    15   155   156    1
    16    41    40    1
    17    35    36    1
    18   224   223    2
    19   153   151    1
    20   151   152    1
    21   156   165   am
    22   156   157    2
    23    40    42    1
    24    40    39    1
    25   223   222    1
    26    36    39    1
    27    36    37    1
    28   165   166    1
    29   168   167    2
    30    38    37    2
    31   205   204    2
    32    37    43   am
    33    51    49   am
    34   214   212   ar
    35   214   215   ar
    36   212   209   ar
    37   225   222    1
    38   225   226    1
    39   166   167    1
    40   166   169    1
    41   222   221    1
    42   171   169    1
    43    48    49    1
    44    48    47    1
    45   145   144    1
    46   204   203    1
    47   169   170    1
    48   206   207    1
    49   206   203    1
    50    49    50    2
    51   221   218   am
    52   146   144    1
    53   215   213   ar
    54   209   207   ar
    55   209   211   ar
    56    43    44    1
    57   207   208   ar
    58   144   143    2
    59   203   202    1
    60   218   219    2
    61   218   217    1
    62   216   217    1
    63    47    44    1
    64   226   227    1
    65   213   211   ar
    66   211   210   ar
    67    44    45    1
    68   217   220    1
    69   208   210   ar
    70   143   142    1
    71   202   193   am
    72   228   227    2
    73   227   229   am
    74    34    32    1
    75   142   141    1
    76    33    32    1
    77   194   193    2
    78    32    31    1
    79    45    46    2
    80    45    52   am
    81   193   192    1
    82   139   138    2
    83   184   183    2
    84   189   188    2
    85   200   198   ar
    86   200   201   ar
    87    30    29    2
    88    52    53    1
    89   186   187    1
    90   141   140    1
    91   198   196   ar
    92    29    28    1
    93   183   182    1
    94   188   187    1
    95   188   191   am
    96   187   190    1
    97    31    28    1
    98   201   199   ar
    99   138   137    1
   100   192   191    1
   101   192   195    1
   102   137   140    1
   103   137   136    1
   104    69    67    1
   105   134   133    2
   106    28    27    1
   107   185   182    1
   108   196   195    1
   109   196   197   ar
   110    66    67    1
   111    66    63    1
   112    53    56    1
   113    53    54    1
   114   182   181    1
   115    61    60   ar
   116    61    59   ar
   117    60    58   ar
   118    62    54   am
   119    62    63    1
   120    59    57   ar
   121    58    57   ar
   122   199   197   ar
   123    57    56    1
   124    68    67    1
   125    54    55    2
   126   133   136   am
   127   133   132    1
   128    63    64    1
   129   181   174   am
   130   175   174    2
   131   174   173    1
   132   135   132    1
   133   132   131    1
   134    64    65    2
   135    64    70   am
   136   172   173    1
   137   126   125    2
   138    18    17    2
   139   173   176    1
   140   122   121    2
   141    26    24    1
   142   131   125   am
   143    70    71    1
   144   125   124    1
   145    25    23    1
   146    20    21    1
   147    20    23    1
   148    20    19    1
   149    21    22    2
   150    17    19   am
   151    17    16    1
   152   121   120    1
   153   121   123   am
   154   176   177    1
   155   120   119    1
   156    23    24    1
   157    71    72    1
   158    71    74    1
   159   124   123    1
   160   124   127    1
   161    76    74    1
   162   179   178   ar
   163    16    15    1
   164    73    72    2
   165    72    77   am
   166    74    75    1
   167   178   177    1
   168   178   180   ar
   169    83    81    1
   170   119   113   am
   171   127   128    1
   172    77    78    1
   173    15    10   am
   174   114   113    2
   175   113   112    1
   176   130   128    1
   177    11    10    2
   178    81    78    1
   179    81    82    1
   180   128   129    1
   181    10     9    1
   182    78    79    1
   183     4     3    2
   184     7     5    1
   185   111   112    1
   186   111   109   am
   187   112   115    1
   188     5     6    1
   189     5     2    1
   190   108   109    1
   191   108   107    1
   192   109   110    2
   193   107    98   am
   194    79    80    2
   195     9     8    1
   196     9    12    1
   197     3     8   am
   198     3     2    1
   199   106   104    1
   200   103   104    2
   201   103   102    1
   202   104   105    1
   203   102   101    1
   204   115   116    1
   205   101   100    1
   206     8    14    1
   207     2     1    1
   208    12    13    1
   209   100    97    1
   210    98    97    1
   211    98    99    2
   212    97    96    1
   213    87    86    2
   214    14    13    1
   215   116   118    1
   216   116   117    1
   217    86    96   am
   218    86    85    1
   219    88    85    1
   220    88    89    1
   221    85    84    1
   222    89    91   ar
   223    89    90   ar
   224    91    93   ar
   225    90    92   ar
   226    93    94   ar
   227    92    94   ar
   228    94    95    1
