@<TRIPOS>MOLECULE
tmp/5ib1A00.pdb
 189 177 0 0 0
SMALL
GASTEIGER

@<TRIPOS>ATOM
      1  N         10.2250   28.1030  -16.5180 N.3    62  ARG62      -0.1245
      2  CA         9.2440   27.0920  -16.1400 C.3    62  ARG62       0.1563
      3  C          8.9260   27.1640  -14.6530 C.2    62  ARG62       0.2260
      4  O          7.7560   27.0700  -14.2580 O.2    62  ARG62      -0.2867
      5  CB         9.7650   25.7080  -16.5060 C.3    62  ARG62       0.0307
      6  CG         8.8210   24.5870  -16.1610 C.3    62  ARG62       0.0489
      7  CD         9.5130   23.2390  -16.3220 C.3    62  ARG62       0.2205
      8  NE         8.5780   22.1350  -16.1140 N.pl3  62  ARG62      -0.0865
      9  CZ         8.3700   21.5240  -14.9480 C.cat  62  ARG62       0.5346
     10  NH1        9.0360   21.8980  -13.8510 N.pl3  62  ARG62       0.1354
     11  NH2        7.4940   20.5300  -14.8830 N.pl3  62  ARG62       0.1354
     12  N          5.2230   28.0010  -12.9570 N.3    66  ILE66      -0.1245
     13  CA         4.5940   27.1290  -11.9700 C.3    66  ILE66       0.1561
     14  C          4.2340   27.9180  -10.7170 C.2    66  ILE66       0.2260
     15  O          3.1440   27.7480  -10.1570 O.2    66  ILE66      -0.2867
     16  CB         5.5120   25.9290  -11.6630 C.3    66  ILE66       0.0252
     17  CG1        5.5980   24.9940  -12.8790 C.3    66  ILE66       0.0019
     18  CG2        5.0240   25.1520  -10.4250 C.3    66  ILE66       0.0019
     19  CD1        6.5150   23.7720  -12.6790 C.3    66  ILE66       0.0001
     20  N          1.2180   30.1670  -11.4190 N.3    69  ALA69      -0.1231
     21  CA         0.0100   29.3480  -11.4790 C.3    69  ALA69       0.1694
     22  C         -0.4340   28.8990  -10.0850 C.2    69  ALA69       0.2591
     23  O         -1.6350   28.8560   -9.7960 O.2    69  ALA69      -0.2718
     24  CB         0.2480   28.1290  -12.3730 C.3    69  ALA69       0.0304
     25  N          0.5170   28.5190   -9.2180 N.am   70  LYS70      -0.1980
     26  CA         0.1480   28.1340   -7.8560 C.3    70  LYS70       0.1596
     27  C         -0.4970   29.3000   -7.1190 C.2    70  LYS70       0.2287
     28  O         -1.4980   29.1210   -6.4190 O.2    70  LYS70      -0.2864
     29  CB         1.3830   27.6240   -7.1040 C.3    70  LYS70       0.0298
     30  CG         1.1910   27.2720   -5.6130 C.3    70  LYS70       0.0038
     31  CD         0.2380   26.1270   -5.3860 C.3    70  LYS70       0.0206
     32  CE         0.4060   25.5000   -3.9910 C.3    70  LYS70       0.1093
     33  NZ        -0.6120   25.8300   -2.9660 N.3    70  LYS70      -0.1314
     34  N         -4.0720   29.4550   -8.3940 N.3    73  THR73      -0.1203
     35  CA        -4.8810   28.3770   -7.8290 C.3    73  THR73       0.1994
     36  C         -5.2320   28.6580   -6.3700 C.2    73  THR73       0.2617
     37  O         -6.3790   28.4520   -5.9470 O.2    73  THR73      -0.2717
     38  CB        -4.1330   27.0530   -7.9670 C.3    73  THR73       0.1784
     39  OG1       -3.9050   26.7920   -9.3580 O.3    73  THR73      -0.2211
     40  CG2       -4.9410   25.8970   -7.3580 C.3    73  THR73       0.0376
     41  N         -4.2590   29.1500   -5.5900 N.am   74  ASP74      -0.1973
     42  CA        -4.5090   29.4800   -4.1860 C.3    74  ASP74       0.1709
     43  C         -5.5790   30.5520   -4.0350 C.2    74  ASP74       0.2293
     44  O         -6.3990   30.4800   -3.1110 O.2    74  ASP74      -0.2864
     45  CB        -3.2210   29.9470   -3.4990 C.3    74  ASP74       0.1436
     46  CG        -2.2860   28.7890   -3.1360 C.2    74  ASP74       0.3671
     47  OD1       -2.5090   27.6280   -3.5780 O.co2  74  ASP74      -0.2456
     48  OD2       -1.3160   29.0610   -2.4060 O.co2  74  ASP74      -0.2456
     49  N         -8.1660   31.0620   -5.9170 N.3    76  GLU76      -0.1231
     50  CA        -9.4600   30.4080   -6.0820 C.3    76  GLU76       0.1699
     51  C         -9.7710   29.4920   -4.9060 C.2    76  GLU76       0.2592
     52  O        -10.9140   29.4430   -4.4320 O.2    76  GLU76      -0.2718
     53  CB        -9.4780   29.6020   -7.3770 C.3    76  GLU76       0.0402
     54  CG        -9.4090   30.4300   -8.6560 C.3    76  GLU76       0.1161
     55  CD       -10.7460   31.0810   -9.0080 C.2    76  GLU76       0.3649
     56  OE1      -11.7580   30.8230   -8.3020 O.co2  76  GLU76      -0.2457
     57  OE2      -10.7810   31.8590   -9.9910 O.co2  76  GLU76      -0.2457
     58  N         -8.7720   28.7340   -4.4460 N.am   77  ASP77      -0.1974
     59  CA        -9.0080   27.7770   -3.3760 C.3    77  ASP77       0.1709
     60  C         -9.4020   28.4890   -2.0910 C.2    77  ASP77       0.2293
     61  O        -10.2700   28.0110   -1.3630 O.2    77  ASP77      -0.2864
     62  CB        -7.7620   26.8980   -3.1590 C.3    77  ASP77       0.1436
     63  CG        -7.5750   25.8380   -4.2550 C.2    77  ASP77       0.3671
     64  OD1       -8.5250   25.5340   -5.0130 O.co2  77  ASP77      -0.2456
     65  OD2       -6.4670   25.2920   -4.3450 O.co2  77  ASP77      -0.2456
     66  N        -13.0500   29.1570   -2.2680 N.3    80  THR80      -0.1203
     67  CA       -13.7550   27.8990   -2.0260 C.3    80  THR80       0.1994
     68  C        -13.7730   27.5260   -0.5430 C.2    80  THR80       0.2617
     69  O        -14.8010   27.0850   -0.0270 O.2    80  THR80      -0.2717
     70  CB       -13.1040   26.7910   -2.8530 C.3    80  THR80       0.1784
     71  OG1      -13.2060   27.1220   -4.2430 O.3    80  THR80      -0.2211
     72  CG2      -13.7670   25.4560   -2.5960 C.3    80  THR80       0.0376
     73  N        -12.6450   27.6860    0.1640 N.am   81  LEU81      -0.1979
     74  CA       -12.6260   27.3120    1.5780 C.3    81  LEU81       0.1596
     75  C        -13.5700   28.1730    2.4130 C.2    81  LEU81       0.2287
     76  O        -14.1120   27.7000    3.4230 O.2    81  LEU81      -0.2864
     77  CB       -11.2030   27.3980    2.1350 C.3    81  LEU81       0.0297
     78  CG       -10.3200   26.2640    1.5940 C.3    81  LEU81       0.0022
     79  CD1       -8.8290   26.6180    1.6800 C.3    81  LEU81       0.0001
     80  CD2      -10.6190   24.9720    2.3560 C.3    81  LEU81       0.0001
     81  N        -16.7630   26.2790    2.0490 N.3    84  TYR84      -0.1241
     82  CA       -16.7490   24.9890    2.7530 C.3    84  TYR84       0.1605
     83  C        -16.9320   25.1400    4.2540 C.2    84  TYR84       0.2264
     84  O        -17.4680   24.2390    4.9090 O.2    84  TYR84      -0.2867
     85  CB       -15.4310   24.2430    2.5100 C.3    84  TYR84       0.0534
     86  CG       -15.2550   23.6380    1.1360 C.ar   84  TYR84      -0.0201
     87  CD1      -16.2200   23.7790    0.1450 C.ar   84  TYR84      -0.0009
     88  CD2      -14.1120   22.9070    0.8370 C.ar   84  TYR84      -0.0009
     89  CE1      -16.0430   23.2150   -1.1060 C.ar   84  TYR84       0.0417
     90  CE2      -13.9290   22.3460   -0.3960 C.ar   84  TYR84       0.0417
     91  CZ       -14.8950   22.5020   -1.3690 C.ar   84  TYR84       0.1957
     92  OH       -14.6780   21.9350   -2.6040 O.3    84  TYR84      -0.2866
     93  N         -3.4440   29.4820    3.6410 N.3    95  LEU95      -0.1245
     94  CA        -3.4070   28.1950    2.9540 C.3    95  LEU95       0.1561
     95  C         -1.9480   27.7850    2.7660 C.2    95  LEU95       0.2260
     96  O         -1.1680   28.5280    2.1560 O.2    95  LEU95      -0.2867
     97  CB        -4.1300   28.3030    1.6060 C.3    95  LEU95       0.0270
     98  CG        -4.1360   27.0730    0.7090 C.3    95  LEU95       0.0019
     99  CD1       -4.8270   25.8880    1.4170 C.3    95  LEU95       0.0001
    100  CD2       -4.8180   27.3880   -0.6270 C.3    95  LEU95       0.0001
    101  N          0.8920   24.5570    1.7240 N.3    97  ASN97      -0.1240
    102  CA         1.0960   23.2810    1.0540 C.3    97  ASN97       0.1653
    103  C          2.5710   22.9340    1.1110 C.2    97  ASN97       0.2266
    104  O          3.4180   23.8040    0.8990 O.2    97  ASN97      -0.2867
    105  CB         0.6560   23.3390   -0.4190 C.3    97  ASN97       0.1155
    106  CG         1.2140   22.1820   -1.2410 C.2    97  ASN97       0.2627
    107  OD1        2.2120   22.3280   -1.9340 O.2    97  ASN97      -0.2716
    108  ND2        0.5810   21.0310   -1.1510 N.am   97  ASN97      -0.0877
    109  N          2.8070   14.9960    0.1550 N.3   114  HIS114     -0.1241
    110  CA         2.0550   16.1170   -0.4100 C.3   114  HIS114      0.1621
    111  C          0.9280   16.4100    0.5690 C.2   114  HIS114      0.2264
    112  O          0.0440   15.5680    0.7380 O.2   114  HIS114     -0.2867
    113  CB         1.5080   15.7690   -1.7900 C.3   114  HIS114      0.0745
    114  CG         0.7310   16.8740   -2.4290 C.ar  114  HIS114      0.0817
    115  ND1       -0.5590   17.1930   -2.0530 N.ar  114  HIS114     -0.2268
    116  CD2        1.0620   17.7420   -3.4140 C.ar  114  HIS114      0.1154
    117  CE1       -0.9950   18.1970   -2.7980 C.ar  114  HIS114      0.1986
    118  NE2       -0.0310   18.5500   -3.6260 N.ar  114  HIS114     -0.2212
    119  N         -1.7320   19.6180    2.4700 N.3   116  ASP116     -0.1239
    120  CA        -2.2810   20.9630    2.5130 C.3   116  ASP116      0.1674
    121  C         -2.8840   21.2220    3.8840 C.2   116  ASP116      0.2266
    122  O         -3.3920   20.3040    4.5430 O.2   116  ASP116     -0.2867
    123  CB        -3.3770   21.1740    1.4550 C.3   116  ASP116      0.1410
    124  CG        -2.8420   21.1060    0.0330 C.2   116  ASP116      0.3668
    125  OD1       -2.1390   22.0410   -0.3980 O.co2 116  ASP116     -0.2456
    126  OD2       -3.1520   20.1240   -0.6570 O.co2 116  ASP116     -0.2456
    127  N         -5.5630   19.7220    6.4670 N.3   123  TYR123     -0.1241
    128  CA        -6.7490   19.7060    5.6170 C.3   123  TYR123      0.1605
    129  C         -6.8380   18.3800    4.8750 C.2   123  TYR123      0.2264
    130  O         -7.7150   17.5700    5.1720 O.2   123  TYR123     -0.2867
    131  CB        -6.7480   20.8940    4.6510 C.3   123  TYR123      0.0534
    132  CG        -8.0060   20.9680    3.8110 C.ar  123  TYR123     -0.0201
    133  CD1       -9.2020   21.4220    4.3620 C.ar  123  TYR123     -0.0009
    134  CD2       -7.9980   20.5780    2.4810 C.ar  123  TYR123     -0.0009
    135  CE1      -10.3540   21.4900    3.6060 C.ar  123  TYR123      0.0417
    136  CE2       -9.1360   20.6400    1.7210 C.ar  123  TYR123      0.0417
    137  CZ       -10.3210   21.0850    2.2930 C.ar  123  TYR123      0.1957
    138  OH       -11.4640   21.1510    1.5320 O.3   123  TYR123     -0.2866
    139  N        -13.1480   17.7510   -1.1770 N.3   143  THR143     -0.1218
    140  CA       -11.9320   17.7810   -1.9860 C.3   143  THR143      0.1862
    141  C        -11.4650   16.3680   -2.3250 C.2   143  THR143      0.2287
    142  O        -11.0880   16.0820   -3.4680 O.2   143  THR143     -0.2866
    143  CB       -10.8220   18.5330   -1.2490 C.3   143  THR143      0.1770
    144  OG1      -11.2210   19.8880   -0.9970 O.3   143  THR143     -0.2211
    145  CG2       -9.5390   18.5260   -2.0850 C.3   143  THR143      0.0375
    146  N        -13.3950   14.9570   -5.2420 N.3   146  LYS146     -0.1231
    147  CA       -12.9280   15.6090   -6.4690 C.3   146  LYS146      0.1693
    148  C        -11.5910   15.0460   -6.9270 C.2   146  LYS146      0.2592
    149  O        -11.3720   14.8160   -8.1230 O.2   146  LYS146     -0.2718
    150  CB       -12.7480   17.1130   -6.2550 C.3   146  LYS146      0.0285
    151  CG       -13.9730   17.9590   -6.1820 C.3   146  LYS146      0.0035
    152  CD       -13.5120   19.4210   -6.2620 C.3   146  LYS146      0.0206
    153  CE       -14.3580   20.3260   -5.4110 C.3   146  LYS146      0.1093
    154  NZ       -14.2560   21.7400   -5.8690 N.3   146  LYS146     -0.1314
    155  N        -10.6490   14.8930   -5.9920 N.am  147  TRP147     -0.1976
    156  CA        -9.3130   14.4720   -6.3840 C.3   147  TRP147      0.1640
    157  C         -9.2770   12.9960   -6.7570 C.2   147  TRP147      0.2290
    158  O         -8.4910   12.5940   -7.6280 O.2   147  TRP147     -0.2864
    159  CB        -8.3310   14.7800   -5.2630 C.3   147  TRP147      0.0576
    160  CG        -8.0460   16.2590   -5.1420 C.ar  147  TRP147      0.0006
    161  CD1       -8.6280   17.2780   -5.8480 C.ar  147  TRP147      0.0946
    162  CD2       -7.0780   16.8700   -4.2800 C.ar  147  TRP147      0.0152
    163  NE1       -8.0820   18.4930   -5.4700 N.ar  147  TRP147     -0.2442
    164  CE2       -7.1340   18.2670   -4.5050 C.ar  147  TRP147      0.0810
    165  CE3       -6.1660   16.3690   -3.3450 C.ar  147  TRP147      0.0012
    166  CZ2       -6.3130   19.1670   -3.8230 C.ar  147  TRP147      0.0191
    167  CZ3       -5.3530   17.2710   -2.6580 C.ar  147  TRP147      0.0001
    168  CH2       -5.4340   18.6520   -2.9070 C.ar  147  TRP147      0.0015
    169  N        -10.4500   12.8280  -10.2810 N.3   150  ALA150     -0.1245
    170  CA        -9.4980   13.3580  -11.2420 C.3   150  ALA150      0.1562
    171  C         -8.1570   12.6390  -11.2150 C.2   150  ALA150      0.2260
    172  O         -7.2360   13.0570  -11.9200 O.2   150  ALA150     -0.2867
    173  CB        -9.2870   14.8560  -10.9990 C.3   150  ALA150      0.0290
    174  N         -5.7380   12.5770   -9.0790 N.3   152  VAL152     -0.1245
    175  CA        -4.6340   13.4300   -8.6460 C.3   152  VAL152      0.1561
    176  C         -3.5060   12.6030   -8.0400 C.2   152  VAL152      0.2260
    177  O         -2.3220   12.8850   -8.2710 O.2   152  VAL152     -0.2867
    178  CB        -5.1490   14.4890   -7.6510 C.3   152  VAL152      0.0252
    179  CG1       -3.9720   15.3300   -7.0850 C.3   152  VAL152      0.0019
    180  CG2       -6.2010   15.3770   -8.3160 C.3   152  VAL152      0.0019
    181  N         -1.1440   11.3440  -10.5160 N.3   155  GLN155     -0.1245
    182  CA        -0.2750   12.3850  -11.0700 C.3   155  GLN155      0.1566
    183  C          0.8650   12.7190  -10.1130 C.2   155  GLN155      0.2260
    184  O          2.0050   12.9190  -10.5430 O.2   155  GLN155     -0.2867
    185  CB        -1.0810   13.6420  -11.3820 C.3   155  GLN155      0.0367
    186  CG        -2.1450   13.4290  -12.4430 C.3   155  GLN155      0.0905
    187  CD        -3.0590   14.6070  -12.5470 C.2   155  GLN155      0.2608
    188  OE1       -2.6190   15.7230  -12.8620 O.2   155  GLN155     -0.2717
    189  NE2       -4.3460   14.3880  -12.2570 N.am  155  GLN155     -0.0878
@<TRIPOS>BOND
     1     1     2    1
     2     5     6    1
     3     5     2    1
     4     7     6    1
     5     7     8    1
     6     2     3    1
     7     8     9    2
     8     9    11    1
     9     9    10    1
    10     3     4    2
    11    12    13    1
    12    17    19    1
    13    17    16    1
    14   188   187    2
    15   187   186    1
    16   187   189   am
    17   186   185    1
    18    24    21    1
    19    13    16    1
    20    13    14    1
    21   172   171    2
    22    16    18    1
    23    21    20    1
    24    21    22    1
    25   185   182    1
    26   170   171    1
    27   170   173    1
    28   170   169    1
    29   182   181    1
    30   182   183    1
    31    14    15    2
    32   184   183    2
    33    22    23    2
    34    22    25   am
    35    57    55   ar
    36    39    38    1
    37    25    26    1
    38   174   175    1
    39    55    54    1
    40    55    56   ar
    41    54    53    1
    42   175   176    1
    43   175   178    1
    44    34    35    1
    45   180   178    1
    46   177   176    2
    47   149   148    2
    48    38    35    1
    49    38    40    1
    50    26    27    1
    51    26    29    1
    52    35    36    1
    53   178   179    1
    54   158   157    2
    55    53    50    1
    56    27    28    2
    57    29    30    1
    58   148   147    1
    59   148   155   am
    60   157   156    1
    61   147   150    1
    62   147   146    1
    63   156   155    1
    64   156   159    1
    65    36    37    2
    66    36    41   am
    67   152   151    1
    68   152   153    1
    69   150   151    1
    70    50    49    1
    71    50    51    1
    72   154   153    1
    73   161   163   ar
    74   161   160   ar
    75    30    31    1
    76    41    42    1
    77   163   164   ar
    78    31    32    1
    79   159   160    1
    80   160   162   ar
    81    64    63   ar
    82    51    58   am
    83    51    52    2
    84   164   162   ar
    85   164   166   ar
    86    58    59    1
    87    65    63   ar
    88   162   165   ar
    89    63    62    1
    90    71    70    1
    91    42    43    1
    92    42    45    1
    93    43    44    2
    94    32    33    1
    95   166   168   ar
    96   118   116   ar
    97   118   117   ar
    98    47    46   ar
    99    45    46    1
   100   142   141    2
   101   116   114   ar
   102    59    62    1
   103    59    60    1
   104   165   167   ar
   105    46    48   ar
   106   168   167   ar
   107    70    72    1
   108    70    67    1
   109   117   115   ar
   110    92    91    1
   111   114   115   ar
   112   114   113    1
   113   141   140    1
   114    66    67    1
   115    60    61    2
   116   145   143    1
   117    67    68    1
   118   140   143    1
   119   140   139    1
   120   107   106    2
   121   113   110    1
   122    91    89   ar
   123    91    90   ar
   124   143   144    1
   125   106   108   am
   126   106   105    1
   127    89    87   ar
   128   126   124   ar
   129   100    98    1
   130    68    69    2
   131    68    73   am
   132   105   102    1
   133   110   109    1
   134   110   111    1
   135   125   124   ar
   136    90    88   ar
   137   124   123    1
   138    87    86   ar
   139    73    74    1
   140   111   112    2
   141    98    99    1
   142    98    97    1
   143    88    86   ar
   144   104   103    2
   145   102   103    1
   146   102   101    1
   147    86    85    1
   148   123   120    1
   149   138   137    1
   150    74    77    1
   151    74    75    1
   152    78    79    1
   153    78    77    1
   154    78    80    1
   155    97    94    1
   156   136   137   ar
   157   136   134   ar
   158    81    82    1
   159    96    95    2
   160   137   135   ar
   161    75    76    2
   162   119   120    1
   163   134   132   ar
   164    85    82    1
   165   120   121    1
   166    82    83    1
   167    95    94    1
   168    94    93    1
   169   135   133   ar
   170   132   133   ar
   171   132   131    1
   172   121   122    2
   173    83    84    2
   174   131   128    1
   175   129   130    2
   176   129   128    1
   177   128   127    1
