@<TRIPOS>MOLECULE
tmp/5ibdA01.pdb
 201 192 0 0 0
SMALL
GASTEIGER

@<TRIPOS>ATOM
      1  N          1.1590   17.7810   -3.6480 N.3    60  MET60      -0.1245
      2  CA        -0.0630   17.4030   -2.9240 C.3    60  MET60       0.1570
      3  C         -1.0210   16.6850   -3.8760 C.2    60  MET60       0.2261
      4  O         -1.5000   15.5770   -3.5800 O.2    60  MET60      -0.2867
      5  CB        -0.7830   18.6220   -2.2960 C.3    60  MET60       0.0387
      6  CG        -2.2230   18.2840   -1.7330 C.3    60  MET60       0.0595
      7  SD        -3.0260   19.7220   -0.9980 S.3    60  MET60      -0.1393
      8  CE        -1.8810   20.0860    0.3000 C.3    60  MET60       0.0692
      9  N         -0.7710   12.9390   -4.7580 N.3    63  THR63      -0.1218
     10  CA        -1.0700   11.9100   -3.7670 C.3    63  THR63       0.1862
     11  C         -2.3750   11.1620   -4.0810 C.2    63  THR63       0.2287
     12  O         -2.5460   10.0310   -3.6300 O.2    63  THR63      -0.2866
     13  CB        -1.1630   12.4860   -2.3100 C.3    63  THR63       0.1770
     14  OG1       -2.2540   13.3990   -2.1950 O.3    63  THR63      -0.2211
     15  CG2        0.1350   13.1730   -1.9050 C.3    63  THR63       0.0375
     16  N         -8.6700    7.7500    0.4790 N.3    74  LEU74      -0.1231
     17  CA        -9.4600    8.9630    0.2650 C.3    74  LEU74       0.1693
     18  C        -10.8350    8.8480    0.8870 C.2    74  LEU74       0.2593
     19  O        -11.4760    7.7750    0.7960 O.2    74  LEU74      -0.2718
     20  CB        -9.6070    9.2200   -1.2280 C.3    74  LEU74       0.0284
     21  CG        -8.3410    9.7720   -1.8850 C.3    74  LEU74       0.0019
     22  CD1       -8.5470    9.8640   -3.3630 C.3    74  LEU74       0.0001
     23  CD2       -7.9840   11.1560   -1.3380 C.3    74  LEU74       0.0001
     24  N        -11.2730    9.9240    1.5370 N.am   75  THR75      -0.1939
     25  CA       -12.6370   10.0170    2.0490 C.3    75  THR75       0.2028
     26  C        -13.4750   10.9850    1.2460 C.2    75  THR75       0.2642
     27  O        -14.6250   11.2630    1.5940 O.2    75  THR75      -0.2714
     28  CB       -12.6510   10.4760    3.5170 C.3    75  THR75       0.1808
     29  OG1      -12.1130   11.7930    3.5940 O.3    75  THR75      -0.2208
     30  CG2      -11.8180    9.5470    4.3960 C.3    75  THR75       0.0379
     31  N        -12.8970   11.4800    0.1620 N.am   76  VAL76      -0.1977
     32  CA       -13.5330   12.4550   -0.6980 C.3    76  VAL76       0.1596
     33  C        -13.2240   12.1050   -2.1420 C.2    76  VAL76       0.2287
     34  O        -12.3150   11.3230   -2.4180 O.2    76  VAL76      -0.2864
     35  CB       -13.0280   13.8740   -0.4220 C.3    76  VAL76       0.0276
     36  CG1      -13.5040   14.3570    0.9410 C.3    76  VAL76       0.0022
     37  CG2      -11.5080   13.9090   -0.4820 C.3    76  VAL76       0.0022
     38  N        -11.1190   16.7950   -4.8140 N.3    80  VAL80      -0.1231
     39  CA       -11.1220   17.5970   -3.5940 C.3    80  VAL80       0.1692
     40  C         -9.7090   17.7940   -3.0530 C.2    80  VAL80       0.2591
     41  O         -9.4210   18.8130   -2.4450 O.2    80  VAL80      -0.2718
     42  CB       -12.0620   16.9440   -2.5390 C.3    80  VAL80       0.0266
     43  CG1      -12.0070   17.6700   -1.1990 C.3    80  VAL80       0.0020
     44  CG2      -13.4860   16.9270   -3.0720 C.3    80  VAL80       0.0020
     45  N         -8.8140   16.8390   -3.2950 N.am   81  VAL81      -0.1980
     46  CA        -7.4250   16.9600   -2.8320 C.3    81  VAL81       0.1595
     47  C         -6.8230   18.2830   -3.3050 C.2    81  VAL81       0.2287
     48  O         -6.1850   19.0030   -2.5200 O.2    81  VAL81      -0.2864
     49  CB        -6.5970   15.7430   -3.3180 C.3    81  VAL81       0.0276
     50  CG1       -5.0840   15.9170   -3.0400 C.3    81  VAL81       0.0022
     51  CG2       -7.1520   14.4900   -2.6430 C.3    81  VAL81       0.0022
     52  N         -8.4510   21.0800   -4.1140 N.3    83  ASN83      -0.1225
     53  CA        -9.5000   22.0950   -4.0670 C.3    83  ASN83       0.1785
     54  C         -8.9040   23.4930   -4.1640 C.2    83  ASN83       0.2597
     55  O         -9.4100   24.3250   -4.9180 O.2    83  ASN83      -0.2718
     56  CB       -10.3470   21.9580   -2.7970 C.3    83  ASN83       0.1169
     57  CG       -11.6030   22.8360   -2.8160 C.2    83  ASN83       0.2627
     58  OD1      -11.8550   23.6100   -1.8990 O.2    83  ASN83      -0.2716
     59  ND2      -12.4070   22.6890   -3.8530 N.am   83  ASN83      -0.0877
     60  N         -7.8260   23.7780   -3.4390 N.am   84  MET84      -0.1979
     61  CA        -7.2980   25.1530   -3.4900 C.3    84  MET84       0.1605
     62  C         -6.7460   25.4740   -4.8790 C.2    84  MET84       0.2287
     63  O         -6.9490   26.5710   -5.3920 O.2    84  MET84      -0.2864
     64  CB        -6.2180   25.3660   -2.4290 C.3    84  MET84       0.0413
     65  CG        -6.0300   26.8290   -2.0350 C.3    84  MET84       0.0598
     66  SD        -7.4840   27.5130   -1.1840 S.3    84  MET84      -0.1393
     67  CE        -7.5070   29.0970   -1.9760 C.3    84  MET84       0.0692
     68  N        -18.3010   14.8950   10.3790 N.3   162  LEU162     -0.1245
     69  CA       -16.8590   15.0700   10.4290 C.3   162  LEU162      0.1561
     70  C        -16.1030   13.9360   11.1400 C.2   162  LEU162      0.2260
     71  O        -14.9340   13.6920   10.8370 O.2   162  LEU162     -0.2867
     72  CB       -16.5300   16.4110   11.0850 C.3   162  LEU162      0.0270
     73  CG       -17.0790   17.6760   10.4000 C.3   162  LEU162      0.0019
     74  CD1      -16.4990   18.9340   11.0700 C.3   162  LEU162      0.0001
     75  CD2      -16.8300   17.6640    8.9060 C.3   162  LEU162      0.0001
     76  N        -15.6440   11.8920    8.0310 N.3   165  ALA165     -0.1231
     77  CA       -14.9920   12.5540    6.9160 C.3   165  ALA165      0.1694
     78  C        -13.4970   12.7140    7.1290 C.2   165  ALA165      0.2592
     79  O        -12.7200   12.6340    6.1820 O.2   165  ALA165     -0.2718
     80  CB       -15.6360   13.9190    6.6620 C.3   165  ALA165      0.0304
     81  N        -13.0840   12.9470    8.3720 N.am  166  PHE166     -0.1976
     82  CA       -11.6800   13.1160    8.6610 C.3   166  PHE166      0.1639
     83  C        -11.0530   11.9070    9.3250 C.2   166  PHE166      0.2290
     84  O        -10.0050   12.0170    9.9820 O.2   166  PHE166     -0.2864
     85  CB       -11.5030   14.3940    9.4680 C.3   166  PHE166      0.0560
     86  CG       -11.6650   15.6130    8.6070 C.ar  166  PHE166     -0.0200
     87  CD1      -10.6130   16.0480    7.8360 C.ar  166  PHE166     -0.0042
     88  CD2      -12.8860   16.2500    8.4870 C.ar  166  PHE166     -0.0042
     89  CE1      -10.7600   17.1360    6.9820 C.ar  166  PHE166     -0.0003
     90  CE2      -13.0280   17.3570    7.6270 C.ar  166  PHE166     -0.0003
     91  CZ       -11.9670   17.7790    6.8900 C.ar  166  PHE166     -0.0000
     92  N        -20.8610   12.7840    2.2160 N.3   180  TRP180     -0.1241
     93  CA       -20.2960   13.7400    1.2390 C.3   180  TRP180      0.1605
     94  C        -21.3820   14.1340    0.2390 C.2   180  TRP180      0.2264
     95  O        -21.6370   15.3280    0.0170 O.2   180  TRP180     -0.2867
     96  CB       -19.0730   13.1570    0.5060 C.3   180  TRP180      0.0550
     97  CG       -18.5670   14.0740   -0.5330 C.ar  180  TRP180      0.0003
     98  CD1      -18.8640   14.0440   -1.8630 C.ar  180  TRP180      0.0946
     99  CD2      -17.7110   15.1920   -0.3390 C.ar  180  TRP180      0.0152
    100  NE1      -18.2210   15.0680   -2.5100 N.ar  180  TRP180     -0.2442
    101  CE2      -17.5160   15.7910   -1.5960 C.ar  180  TRP180      0.0810
    102  CE3      -17.0660   15.7340    0.7700 C.ar  180  TRP180      0.0012
    103  CZ2      -16.7130   16.9160   -1.7720 C.ar  180  TRP180      0.0191
    104  CZ3      -16.2640   16.8660    0.5830 C.ar  180  TRP180      0.0001
    105  CH2      -16.1070   17.4320   -0.6690 C.ar  180  TRP180      0.0015
    106  N        -18.4350   22.6150    1.1440 N.3   226  VAL226     -0.1231
    107  CA       -18.3150   21.4180    1.9850 C.3   226  VAL226      0.1692
    108  C        -16.8750   21.3280    2.5170 C.2   226  VAL226      0.2593
    109  O        -16.6770   21.0400    3.7080 O.2   226  VAL226     -0.2718
    110  CB       -18.6970   20.1210    1.2260 C.3   226  VAL226      0.0266
    111  CG1      -18.5070   18.8890    2.1240 C.3   226  VAL226      0.0020
    112  CG2      -20.1460   20.1870    0.6940 C.3   226  VAL226      0.0020
    113  N        -15.8870   21.5760    1.6440 N.am  227  THR227     -0.1939
    114  CA       -14.4820   21.4480    2.0080 C.3   227  THR227      0.2028
    115  C        -14.0580   22.4820    3.0430 C.2   227  THR227      0.2642
    116  O        -13.4270   22.1380    4.0440 O.2   227  THR227     -0.2714
    117  CB       -13.5650   21.5450    0.7600 C.3   227  THR227      0.1808
    118  OG1      -13.9040   20.4910   -0.1480 O.3   227  THR227     -0.2208
    119  CG2      -12.0980   21.4190    1.1230 C.3   227  THR227      0.0379
    120  N        -14.4260   23.7420    2.8370 N.am  228  PHE228     -0.1973
    121  CA       -14.0100   24.7820    3.7630 C.3   228  PHE228      0.1639
    122  C        -14.7510   24.6690    5.1010 C.2   228  PHE228      0.2290
    123  O        -14.1300   24.8480    6.1570 O.2   228  PHE228     -0.2864
    124  CB       -14.1900   26.1660    3.1350 C.3   228  PHE228      0.0560
    125  CG       -13.0280   26.5830    2.2730 C.ar  228  PHE228     -0.0200
    126  CD1      -12.6440   25.8350    1.1540 C.ar  228  PHE228     -0.0042
    127  CD2      -12.2880   27.7220    2.6070 C.ar  228  PHE228     -0.0042
    128  CE1      -11.5700   26.2190    0.3890 C.ar  228  PHE228     -0.0003
    129  CE2      -11.2160   28.0960    1.8460 C.ar  228  PHE228     -0.0003
    130  CZ       -10.8530   27.3450    0.7280 C.ar  228  PHE228     -0.0000
    131  N        -15.8830   21.8450    6.4860 N.3   230  GLY230     -0.1210
    132  CA       -15.3900   20.6580    7.1740 C.3   230  GLY230      0.1956
    133  C        -13.9510   20.7920    7.6600 C.2   230  GLY230      0.2612
    134  O        -13.6250   20.4700    8.8240 O.2   230  GLY230     -0.2717
    135  N        -13.0620   21.2200    6.7700 N.am  231  ALA231     -0.1965
    136  CA       -11.6540   21.3540    7.1220 C.3   231  ALA231      0.1728
    137  C        -11.4590   22.4760    8.1480 C.2   231  ALA231      0.2616
    138  O        -10.6470   22.3650    9.0790 O.2   231  ALA231     -0.2715
    139  CB       -10.8240   21.6120    5.8750 C.3   231  ALA231      0.0334
    140  N        -12.2380   23.5460    8.0120 N.am  232  GLY232     -0.1955
    141  CA       -12.1220   24.6610    8.9350 C.3   232  GLY232      0.1869
    142  C        -12.6110   24.2690   10.3170 C.2   232  GLY232      0.2309
    143  O        -11.9460   24.5540   11.3270 O.2   232  GLY232     -0.2863
    144  N        -10.3670   21.6300   11.9840 N.3   235  SER235     -0.1217
    145  CA        -9.0350   22.1300   12.3140 C.3   235  SER235      0.1889
    146  C         -9.0900   23.0990   13.5140 C.2   235  SER235      0.2288
    147  O         -8.2750   22.9720   14.4280 O.2   235  SER235     -0.2866
    148  CB        -8.3730   22.8080   11.1100 C.3   235  SER235      0.2089
    149  OG        -8.1400   21.8630   10.0650 O.3   235  SER235     -0.2183
    150  N         -2.4110   17.4450   14.6060 N.3   278  PHE278     -0.1241
    151  CA        -2.2890   16.6490   13.3860 C.3   278  PHE278      0.1605
    152  C         -1.7920   15.2570   13.6990 C.2   278  PHE278      0.2264
    153  O         -0.7200   15.0850   14.2620 O.2   278  PHE278     -0.2867
    154  CB        -1.3680   17.3290   12.3750 C.3   278  PHE278      0.0534
    155  CG        -2.0720   18.3500   11.5360 C.ar  278  PHE278     -0.0203
    156  CD1       -2.5790   19.5060   12.0980 C.ar  278  PHE278     -0.0042
    157  CD2       -2.2700   18.1270   10.1820 C.ar  278  PHE278     -0.0042
    158  CE1       -3.2710   20.4310   11.3060 C.ar  278  PHE278     -0.0003
    159  CE2       -2.9420   19.0460    9.3940 C.ar  278  PHE278     -0.0003
    160  CZ        -3.4360   20.2000    9.9560 C.ar  278  PHE278     -0.0000
    161  N          2.0520   15.4500    6.9170 N.3   282  LEU282     -0.1231
    162  CA         1.4280   15.9370    5.6910 C.3   282  LEU282      0.1678
    163  C          1.9820   15.1540    4.5090 C.2   282  LEU282      0.2434
    164  O          3.2000   15.0880    4.3340 O.2   282  LEU282     -0.2733
    165  CB         1.6830   17.4220    5.4840 C.3   282  LEU282      0.0284
    166  CG         1.2810   18.3430    6.6390 C.3   282  LEU282      0.0019
    167  CD1        1.6840   19.7570    6.2310 C.3   282  LEU282      0.0001
    168  CD2       -0.1940   18.2770    6.9950 C.3   282  LEU282      0.0001
    169  N          1.0910   14.5640    3.6930 N.am  283  PRO283     -0.2729
    170  CA         1.6490   13.7500    2.6110 C.3   283  PRO283      0.1401
    171  C          1.9270   14.5170    1.3370 C.2   283  PRO283      0.2269
    172  O          1.2130   15.4690    0.9890 O.2   283  PRO283     -0.2865
    173  CB         0.5700   12.6930    2.3680 C.3   283  PRO283      0.0296
    174  CG        -0.6990   13.3340    2.8090 C.3   283  PRO283      0.0237
    175  CD        -0.3420   14.2880    3.9110 C.3   283  PRO283      0.0939
    176  N         -1.9450   27.3240    4.8010 N.3   343  CYS343     -0.1235
    177  CA        -3.3530   27.3880    5.1660 C.3   343  CYS343      0.1677
    178  C         -3.9710   28.7660    4.8840 C.2   343  CYS343      0.2270
    179  O         -3.5200   29.7650    5.4520 O.2   343  CYS343     -0.2867
    180  CB        -3.5280   27.0630    6.6480 C.3   343  CYS343      0.0956
    181  SG        -5.2270   27.1360    7.1640 S.3   343  CYS343     -0.0801
    182  N         -7.6100   11.9010   11.3880 N.3   383  GLN383     -0.1231
    183  CA        -6.6180   12.8280   10.8540 C.3   383  GLN383      0.1698
    184  C         -6.1800   13.8590   11.8910 C.2   383  GLN383      0.2592
    185  O         -5.2080   14.5900   11.6670 O.2   383  GLN383     -0.2718
    186  CB        -7.1660   13.5410    9.6300 C.3   383  GLN383      0.0381
    187  CG        -7.3560   12.6200    8.4260 C.3   383  GLN383      0.0905
    188  CD        -8.0190   13.3090    7.2430 C.2   383  GLN383      0.2608
    189  OE1       -7.7400   14.4730    6.9430 O.2   383  GLN383     -0.2717
    190  NE2       -8.8940   12.5860    6.5520 N.am  383  GLN383     -0.0878
    191  N         -6.9360   13.9410   12.9830 N.am  384  ARG384     -0.1980
    192  CA        -6.5780   14.7620   14.1240 C.3   384  ARG384      0.1597
    193  C         -6.4700   13.9170   15.3870 C.2   384  ARG384      0.2287
    194  O         -7.0710   12.8400   15.4890 O.2   384  ARG384     -0.2864
    195  CB        -7.5970   15.8900   14.3660 C.3   384  ARG384      0.0334
    196  CG        -7.7110   16.9250   13.2320 C.3   384  ARG384      0.0492
    197  CD        -6.4350   17.7850   13.0530 C.3   384  ARG384      0.2205
    198  NE        -6.6180   18.7150   11.9360 N.pl3 384  ARG384     -0.0865
    199  CZ        -6.5250   18.3800   10.6560 C.cat 384  ARG384      0.5346
    200  NH1       -6.2100   17.1430   10.3240 N.pl3 384  ARG384      0.1354
    201  NH2       -6.7470   19.2900    9.6980 N.pl3 384  ARG384      0.1354
@<TRIPOS>BOND
     1    63    62    2
     2    55    54    2
     3    62    61    1
     4    38    39    1
     5     9    10    1
     6    54    53    1
     7    54    60   am
     8    52    53    1
     9    11    10    1
    10    11    12    2
    11    53    56    1
    12     3     4    2
    13     3     2    1
    14    59    57   am
    15    10    13    1
    16     1     2    1
    17    39    40    1
    18    39    42    1
    19    61    60    1
    20    61    64    1
    21    22    21    1
    22    49    50    1
    23    49    46    1
    24    49    51    1
    25    47    46    1
    26    47    48    2
    27    45    40   am
    28    45    46    1
    29    44    42    1
    30    40    41    2
    31     2     5    1
    32    57    56    1
    33    57    58    2
    34    42    43    1
    35   100    98   ar
    36   100   101   ar
    37    64    65    1
    38    34    33    2
    39    13    14    1
    40    13    15    1
    41     5     6    1
    42    33    32    1
    43    65    66    1
    44    67    66    1
    45    21    23    1
    46    21    20    1
    47    98    97   ar
    48   103   101   ar
    49   103   105   ar
    50     6     7    1
    51   101    99   ar
    52    20    17    1
    53     7     8    1
    54    32    35    1
    55    32    31    1
    56   105   104   ar
    57    97    99   ar
    58    97    96    1
    59    37    35    1
    60    35    36    1
    61    99   102   ar
    62   118   117    1
    63    95    94    2
    64    31    26   am
    65    94    93    1
    66    17    16    1
    67    17    18    1
    68   128   130   ar
    69   128   126   ar
    70    96    93    1
    71   104   102   ar
    72   112   110    1
    73   130   129   ar
    74   117   119    1
    75   117   114    1
    76    19    18    2
    77    18    24   am
    78   172   171    2
    79   106   107    1
    80   126   125   ar
    81   110   107    1
    82   110   111    1
    83    93    92    1
    84    26    27    2
    85    26    25    1
    86   171   170    1
    87    24    25    1
    88   113   114    1
    89   113   108   am
    90   129   127   ar
    91   107   108    1
    92   114   115    1
    93    25    28    1
    94   125   127   ar
    95   125   124    1
    96   173   170    1
    97   173   174    1
    98   108   109    2
    99   170   169    1
   100   174   175    1
   101   120   115   am
   102   120   121    1
   103   115   116    2
   104   124   121    1
   105    28    29    1
   106    28    30    1
   107   169   175    1
   108   169   163   am
   109   121   122    1
   110   164   163    2
   111   163   162    1
   112   176   177    1
   113   178   177    1
   114   178   179    2
   115   122   123    2
   116   177   180    1
   117   165   162    1
   118   165   166    1
   119   162   161    1
   120   139   136    1
   121    79    78    2
   122   167   166    1
   123   131   132    1
   124   190   188   am
   125   166   168    1
   126   180   181    1
   127    80    77    1
   128   135   136    1
   129   135   133   am
   130    91    89   ar
   131    91    90   ar
   132    77    78    1
   133    77    76    1
   134   189   188    2
   135    89    87   ar
   136   136   137    1
   137    78    81   am
   138   132   133    1
   139   188   187    1
   140    90    88   ar
   141   133   134    2
   142    87    86   ar
   143   140   137   am
   144   140   141    1
   145   137   138    2
   146    81    82    1
   147   187   186    1
   148    88    86   ar
   149    86    85    1
   150    82    83    1
   151    82    85    1
   152    75    73    1
   153   141   142    1
   154    83    84    2
   155   159   160   ar
   156   159   157   ar
   157   186   183    1
   158   201   199    1
   159   160   158   ar
   160   149   148    1
   161   157   155   ar
   162   142   143    2
   163   200   199    1
   164    68    69    1
   165    73    74    1
   166    73    72    1
   167    69    72    1
   168    69    70    1
   169   199   198    2
   170    71    70    2
   171   183   182    1
   172   183   184    1
   173   148   145    1
   174   158   156   ar
   175   155   156   ar
   176   155   154    1
   177   185   184    2
   178   184   191   am
   179   198   197    1
   180   144   145    1
   181   145   146    1
   182   154   151    1
   183   191   192    1
   184   197   196    1
   185   196   195    1
   186   151   152    1
   187   151   150    1
   188   146   147    2
   189   152   153    2
   190   192   195    1
   191   192   193    1
   192   193   194    2
