@<TRIPOS>MOLECULE
tmp/5ibfA02.pdb
 129 122 0 0 0
SMALL
GASTEIGER

@<TRIPOS>ATOM
      1  N        -11.2130   10.1090    1.5810 N.3    74  THR74      -0.1203
      2  CA       -12.5950   10.2220    2.0400 C.3    74  THR74       0.1994
      3  C        -13.3680   11.2580    1.2430 C.2    74  THR74       0.2617
      4  O        -14.5040   11.5800    1.5880 O.2    74  THR74      -0.2717
      5  CB       -12.6710   10.6000    3.5330 C.3    74  THR74       0.1784
      6  OG1      -12.0280   11.8600    3.7420 O.3    74  THR74      -0.2211
      7  CG2      -11.9950    9.5390    4.3950 C.3    74  THR74       0.0376
      8  N        -12.7360   11.7750    0.1900 N.am   75  VAL75      -0.1979
      9  CA       -13.3510   12.7120   -0.7430 C.3    75  VAL75       0.1595
     10  C        -13.0490   12.2820   -2.1690 C.2    75  VAL75       0.2287
     11  O        -12.1600   11.4690   -2.4080 O.2    75  VAL75      -0.2864
     12  CB       -12.8180   14.1410   -0.5180 C.3    75  VAL75       0.0276
     13  CG1      -13.1680   14.6460    0.8770 C.3    75  VAL75       0.0022
     14  CG2      -11.3080   14.1590   -0.7230 C.3    75  VAL75       0.0022
     15  N        -10.9290   17.0010   -4.9470 N.3    79  VAL79      -0.1245
     16  CA       -10.9670   17.8390   -3.7430 C.3    79  VAL79       0.1561
     17  C         -9.5890   18.0170   -3.0970 C.2    79  VAL79       0.2260
     18  O         -9.3550   18.9780   -2.3550 O.2    79  VAL79      -0.2867
     19  CB       -11.9820   17.2470   -2.7440 C.3    79  VAL79       0.0252
     20  CG1      -11.9770   17.9900   -1.3900 C.3    79  VAL79       0.0019
     21  CG2      -13.3780   17.2530   -3.3670 C.3    79  VAL79       0.0019
     22  N        -20.9930   14.8350   10.1290 N.3   160  SER160     -0.1202
     23  CA       -20.1920   14.1370    9.1090 C.3   160  SER160      0.2020
     24  C        -18.7220   13.9640    9.4930 C.2   160  SER160      0.2618
     25  O        -18.0220   13.0890    8.9560 O.2   160  SER160     -0.2717
     26  CB       -20.2240   14.8750    7.7880 C.3   160  SER160      0.2103
     27  OG       -21.5260   14.9150    7.2600 O.3   160  SER160     -0.2182
     28  N        -18.2320   14.8100   10.3830 N.am  161  LEU161     -0.1979
     29  CA       -16.7890   14.9820   10.4650 C.3   161  LEU161      0.1596
     30  C        -16.0210   13.8900   11.2140 C.2   161  LEU161      0.2287
     31  O        -14.8410   13.7070   10.9500 O.2   161  LEU161     -0.2864
     32  CB       -16.4510   16.3460   11.0900 C.3   161  LEU161      0.0297
     33  CG       -17.0300   17.5720   10.3450 C.3   161  LEU161      0.0022
     34  CD1      -16.4290   18.8550   10.9380 C.3   161  LEU161      0.0001
     35  CD2      -16.8370   17.5330    8.8710 C.3   161  LEU161      0.0001
     36  N        -15.4510   11.8480    8.1630 N.3   164  ALA164     -0.1231
     37  CA       -14.7650   12.5470    7.0930 C.3   164  ALA164      0.1694
     38  C        -13.2600   12.6250    7.3000 C.2   164  ALA164      0.2592
     39  O        -12.4760   12.5730    6.3300 O.2   164  ALA164     -0.2718
     40  CB       -15.3390   13.9740    6.9340 C.3   164  ALA164      0.0304
     41  N        -12.8410   12.7760    8.5580 N.am  165  PHE165     -0.1976
     42  CA       -11.4460   12.9580    8.8510 C.3   165  PHE165      0.1639
     43  C        -10.8460   11.7140    9.4840 C.2   165  PHE165      0.2290
     44  O         -9.7770   11.7640   10.0790 O.2   165  PHE165     -0.2864
     45  CB       -11.2860   14.2260    9.7110 C.3   165  PHE165      0.0560
     46  CG       -11.4640   15.4540    8.8970 C.ar  165  PHE165     -0.0200
     47  CD1      -12.7100   16.0130    8.7330 C.ar  165  PHE165     -0.0042
     48  CD2      -10.4020   15.9740    8.1960 C.ar  165  PHE165     -0.0042
     49  CE1      -12.8770   17.1130    7.9020 C.ar  165  PHE165     -0.0003
     50  CE2      -10.5770   17.0700    7.3840 C.ar  165  PHE165     -0.0003
     51  CZ       -11.8010   17.6200    7.2330 C.ar  165  PHE165     -0.0000
     52  N        -18.4270    7.6710    4.2810 N.3   175  ALA175     -0.1245
     53  CA       -17.8330    8.9370    3.8390 C.3   175  ALA175      0.1562
     54  C        -18.4790    9.4390    2.5620 C.2   175  ALA175      0.2260
     55  O        -18.7400   10.6420    2.4190 O.2   175  ALA175     -0.2867
     56  CB       -16.3390    8.8070    3.6410 C.3   175  ALA175      0.0290
     57  N        -22.1230   10.7110    3.3400 N.3   178  ASN178     -0.1225
     58  CA       -22.0930   12.0400    3.9640 C.3   178  ASN178      0.1785
     59  C        -21.6380   13.1180    2.9790 C.2   178  ASN178      0.2597
     60  O        -22.1750   14.2310    2.9810 O.2   178  ASN178     -0.2718
     61  CB       -21.1650   12.0390    5.1880 C.3   178  ASN178      0.1169
     62  CG       -21.7240   11.2530    6.3660 C.2   178  ASN178      0.2627
     63  OD1      -22.9410   11.1120    6.5400 O.2   178  ASN178     -0.2716
     64  ND2      -20.8250   10.7800    7.2210 N.am  178  ASN178     -0.0877
     65  N        -20.6470   12.8000    2.1400 N.am  179  TRP179     -0.1976
     66  CA       -20.1380   13.7640    1.1640 C.3   179  TRP179      0.1640
     67  C        -21.2400   14.1720    0.1920 C.2   179  TRP179      0.2290
     68  O        -21.4420   15.3660   -0.0740 O.2   179  TRP179     -0.2864
     69  CB       -18.9490   13.2090    0.3820 C.3   179  TRP179      0.0576
     70  CG       -18.4820   14.1230   -0.6840 C.ar  179  TRP179      0.0006
     71  CD1      -18.8060   14.0640   -2.0000 C.ar  179  TRP179      0.0946
     72  CD2      -17.6360   15.2740   -0.5330 C.ar  179  TRP179      0.0152
     73  NE1      -18.1930   15.0800   -2.6820 N.ar  179  TRP179     -0.2442
     74  CE2      -17.4760   15.8390   -1.8010 C.ar  179  TRP179      0.0810
     75  CE3      -16.9800   15.8620    0.5550 C.ar  179  TRP179      0.0012
     76  CZ2      -16.7060   16.9830   -2.0180 C.ar  179  TRP179      0.0191
     77  CZ3      -16.2100   16.9850    0.3350 C.ar  179  TRP179      0.0001
     78  CH2      -16.0880   17.5390   -0.9330 C.ar  179  TRP179      0.0015
     79  N        -23.8880   16.3230    1.9020 N.3   182  ASP182     -0.1239
     80  CA       -23.3920   17.6580    2.2140 C.3   182  ASP182      0.1674
     81  C        -23.2570   18.5130    0.9420 C.2   182  ASP182      0.2266
     82  O        -23.6100   19.6990    0.9490 O.2   182  ASP182     -0.2867
     83  CB       -22.0750   17.5570    2.9700 C.3   182  ASP182      0.1410
     84  CG       -22.2570   16.9770    4.3680 C.2   182  ASP182      0.3668
     85  OD1      -23.4210   16.7790    4.8050 O.co2 182  ASP182     -0.2456
     86  OD2      -21.2350   16.7280    5.0360 O.co2 182  ASP182     -0.2456
     87  N        -18.3380   22.8500    1.2060 N.3   225  VAL225     -0.1231
     88  CA       -18.2130   21.6390    2.0280 C.3   225  VAL225      0.1692
     89  C        -16.8010   21.5340    2.5740 C.2   225  VAL225      0.2592
     90  O        -16.6030   21.1850    3.7510 O.2   225  VAL225     -0.2718
     91  CB       -18.5950   20.3640    1.2290 C.3   225  VAL225      0.0266
     92  CG1      -18.4260   19.1120    2.0880 C.3   225  VAL225      0.0020
     93  CG2      -20.0250   20.4470    0.7440 C.3   225  VAL225      0.0020
     94  N        -15.8260   21.7590    1.7060 N.am  226  THR226     -0.1953
     95  CA       -14.4160   21.5680    2.0540 C.3   226  THR226      0.1897
     96  C        -13.9790   22.5880    3.1000 C.2   226  THR226      0.2313
     97  O        -13.3010   22.2550    4.0680 O.2   226  THR226     -0.2863
     98  CB       -13.5020   21.6170    0.8100 C.3   226  THR226      0.1794
     99  OG1      -12.1490   21.3530    1.1920 O.3   226  THR226     -0.2208
    100  CG2      -13.5400   22.9120    0.1620 C.3   226  THR226      0.0378
    101  N        -15.7170   21.8260    6.5110 N.3   229  GLY229     -0.1210
    102  CA       -15.1910   20.6490    7.1840 C.3   229  GLY229      0.1956
    103  C        -13.7640   20.8210    7.6800 C.2   229  GLY229      0.2611
    104  O        -13.4690   20.5600    8.8510 O.2   229  GLY229     -0.2717
    105  N        -12.8600   21.2260    6.7930 N.am  230  ALA230     -0.1979
    106  CA       -11.4620   21.3830    7.1680 C.3   230  ALA230      0.1597
    107  C        -11.3020   22.4970    8.2040 C.2   230  ALA230      0.2287
    108  O        -10.5130   22.3830    9.1390 O.2   230  ALA230     -0.2864
    109  CB       -10.6230   21.6580    5.9590 C.3   230  ALA230      0.0319
    110  N         -7.4660   11.8400   11.5510 N.3   382  GLN382     -0.1231
    111  CA        -6.4440   12.7590   11.0240 C.3   382  GLN382      0.1698
    112  C         -6.0780   13.8680   11.9990 C.2   382  GLN382      0.2592
    113  O         -5.1810   14.6350   11.7210 O.2   382  GLN382     -0.2718
    114  CB        -6.9130   13.3490    9.7010 C.3   382  GLN382      0.0381
    115  CG        -6.9650   12.2700    8.6290 C.3   382  GLN382      0.0905
    116  CD        -7.3900   12.8100    7.3100 C.2   382  GLN382      0.2608
    117  OE1       -6.9870   13.9110    6.9230 O.2   382  GLN382     -0.2717
    118  NE2       -8.2360   12.0500    6.5970 N.am  382  GLN382     -0.0878
    119  N         -6.7880   13.9390   13.1100 N.am  383  ARG383     -0.1980
    120  CA        -6.4140   14.7800   14.2330 C.3   383  ARG383      0.1597
    121  C         -6.3050   13.9540   15.4940 C.2   383  ARG383      0.2287
    122  O         -6.8880   12.8620   15.6080 O.2   383  ARG383     -0.2864
    123  CB        -7.4240   15.9180   14.4730 C.3   383  ARG383      0.0334
    124  CG        -7.5800   16.8870   13.3410 C.3   383  ARG383      0.0492
    125  CD        -6.3030   17.6960   13.0520 C.3   383  ARG383      0.2205
    126  NE        -6.5240   18.6580   11.9760 N.pl3 383  ARG383     -0.0865
    127  CZ        -6.4990   18.3470   10.6950 C.cat 383  ARG383      0.5346
    128  NH1       -6.7670   19.2700    9.7690 N.pl3 383  ARG383      0.1354
    129  NH2       -6.2140   17.0940   10.3270 N.pl3 383  ARG383      0.1354
@<TRIPOS>BOND
     1    15    16    1
     2    16    17    1
     3    16    19    1
     4    21    19    1
     5    17    18    2
     6    19    20    1
     7    73    71   ar
     8    73    74   ar
     9    11    10    2
    10    10     9    1
    11    76    74   ar
    12    76    78   ar
    13    71    70   ar
    14    74    72   ar
    15    78    77   ar
    16     9    12    1
    17     9     8    1
    18    14    12    1
    19    70    72   ar
    20    70    69    1
    21    72    75   ar
    22    12    13    1
    23    68    67    2
    24   100    98    1
    25     8     3   am
    26    67    66    1
    27    77    75   ar
    28    69    66    1
    29    93    91    1
    30    98    99    1
    31    98    95    1
    32    81    82    2
    33    81    80    1
    34    66    65    1
    35    87    88    1
    36    91    88    1
    37    91    92    1
    38     3     4    2
    39     3     2    1
    40     1     2    1
    41    94    95    1
    42    94    89   am
    43    79    80    1
    44    88    89    1
    45     2     5    1
    46    95    96    1
    47    65    59   am
    48    80    83    1
    49    55    54    2
    50    54    53    1
    51    89    90    2
    52    83    84    1
    53    59    60    2
    54    59    58    1
    55    96    97    2
    56    57    58    1
    57     5     6    1
    58     5     7    1
    59    56    53    1
    60    53    52    1
    61    58    61    1
    62    84    85   ar
    63    84    86   ar
    64    61    62    1
    65   109   106    1
    66    39    38    2
    67    62    63    2
    68    62    64   am
    69   101   102    1
    70   118   116   am
    71   105   106    1
    72   105   103   am
    73   117   116    2
    74    40    37    1
    75    37    38    1
    76    37    36    1
    77   106   107    1
    78   102   103    1
    79    51    50   ar
    80    51    49   ar
    81    27    26    1
    82    38    41   am
    83   116   115    1
    84    50    48   ar
    85   103   104    2
    86    26    23    1
    87    49    47   ar
    88    48    46   ar
    89   107   108    2
    90    41    42    1
    91   115   114    1
    92    47    46   ar
    93    42    43    1
    94    42    45    1
    95    35    33    1
    96    46    45    1
    97    25    24    2
    98    23    24    1
    99    23    22    1
   100    43    44    2
   101    24    28   am
   102   114   111    1
   103   128   127    1
   104   129   127    1
   105    33    34    1
   106    33    32    1
   107    28    29    1
   108    29    32    1
   109    29    30    1
   110   127   126    2
   111    31    30    2
   112   111   110    1
   113   111   112    1
   114   113   112    2
   115   126   125    1
   116   112   119   am
   117   125   124    1
   118   119   120    1
   119   124   123    1
   120   120   123    1
   121   120   121    1
   122   121   122    2
