@<TRIPOS>MOLECULE
tmp/5ibfA01.pdb
 152 142 0 0 0
SMALL
GASTEIGER

@<TRIPOS>ATOM
      1  N          1.2110   17.7450   -3.4630 N.3    59  MET59      -0.1245
      2  CA         0.0200   17.3430   -2.6940 C.3    59  MET59       0.1570
      3  C         -0.9710   16.6560   -3.6480 C.2    59  MET59       0.2261
      4  O         -1.4550   15.5460   -3.3610 O.2    59  MET59      -0.2867
      5  CB        -0.6520   18.5400   -1.9790 C.3    59  MET59       0.0387
      6  CG        -1.9730   18.1920   -1.2870 C.3    59  MET59       0.0595
      7  SD        -2.9200   19.6240   -0.7500 S.3    59  MET59      -0.1393
      8  CE        -1.8160   20.2220    0.4820 C.3    59  MET59       0.0692
      9  N         -0.6460   12.8930   -4.5770 N.3    62  THR62      -0.1218
     10  CA        -0.9300   11.8690   -3.5660 C.3    62  THR62       0.1862
     11  C         -2.2530   11.1450   -3.8770 C.2    62  THR62       0.2287
     12  O         -2.4480   10.0270   -3.4190 O.2    62  THR62      -0.2866
     13  CB        -1.0220   12.4330   -2.1230 C.3    62  THR62       0.1770
     14  OG1       -2.1000   13.3720   -2.0020 O.3    62  THR62      -0.2211
     15  CG2        0.3030   13.0640   -1.7120 C.3    62  THR62       0.0375
     16  N         -8.6050    7.8870    0.5940 N.3    73  LEU73      -0.1231
     17  CA        -9.3800    9.1040    0.3560 C.3    73  LEU73       0.1693
     18  C        -10.7630    9.0120    0.9700 C.2    73  LEU73       0.2593
     19  O        -11.4280    7.9810    0.8570 O.2    73  LEU73      -0.2718
     20  CB        -9.5170    9.3450   -1.1390 C.3    73  LEU73       0.0284
     21  CG        -8.2270    9.7600   -1.8360 C.3    73  LEU73       0.0019
     22  CD1       -8.3800    9.6360   -3.3370 C.3    73  LEU73       0.0001
     23  CD2       -7.8590   11.1630   -1.4190 C.3    73  LEU73       0.0001
     24  N        -11.2130   10.1090    1.5810 N.am   74  THR74      -0.1939
     25  CA       -12.5950   10.2220    2.0400 C.3    74  THR74       0.2028
     26  C        -13.3680   11.2580    1.2430 C.2    74  THR74       0.2642
     27  O        -14.5040   11.5800    1.5880 O.2    74  THR74      -0.2714
     28  CB       -12.6710   10.6000    3.5330 C.3    74  THR74       0.1808
     29  OG1      -12.0280   11.8600    3.7420 O.3    74  THR74      -0.2208
     30  CG2      -11.9950    9.5390    4.3950 C.3    74  THR74       0.0379
     31  N        -12.7360   11.7750    0.1900 N.am   75  VAL75      -0.1977
     32  CA       -13.3510   12.7120   -0.7430 C.3    75  VAL75       0.1596
     33  C        -13.0490   12.2820   -2.1690 C.2    75  VAL75       0.2287
     34  O        -12.1600   11.4690   -2.4080 O.2    75  VAL75      -0.2864
     35  CB       -12.8180   14.1410   -0.5180 C.3    75  VAL75       0.0276
     36  CG1      -13.1680   14.6460    0.8770 C.3    75  VAL75       0.0022
     37  CG2      -11.3080   14.1590   -0.7230 C.3    75  VAL75       0.0022
     38  N        -10.9290   17.0010   -4.9470 N.3    79  VAL79      -0.1231
     39  CA       -10.9670   17.8390   -3.7430 C.3    79  VAL79       0.1692
     40  C         -9.5890   18.0170   -3.0970 C.2    79  VAL79       0.2591
     41  O         -9.3550   18.9780   -2.3550 O.2    79  VAL79      -0.2718
     42  CB       -11.9820   17.2470   -2.7440 C.3    79  VAL79       0.0266
     43  CG1      -11.9770   17.9900   -1.3900 C.3    79  VAL79       0.0020
     44  CG2      -13.3780   17.2530   -3.3670 C.3    79  VAL79       0.0020
     45  N         -8.6630   17.1050   -3.3620 N.am   80  VAL80      -0.1980
     46  CA        -7.3450   17.2360   -2.7360 C.3    80  VAL80       0.1595
     47  C         -6.7100   18.5330   -3.2370 C.2    80  VAL80       0.2287
     48  O         -6.0090   19.2340   -2.4920 O.2    80  VAL80      -0.2864
     49  CB        -6.4520   16.0270   -3.0270 C.3    80  VAL80       0.0276
     50  CG1       -5.0870   16.2090   -2.3610 C.3    80  VAL80       0.0022
     51  CG2       -7.1360   14.7590   -2.5330 C.3    80  VAL80       0.0022
     52  N         -8.3050   21.2700   -4.0870 N.3    82  ASN82      -0.1225
     53  CA        -9.3880   22.2480   -4.0530 C.3    82  ASN82       0.1785
     54  C         -8.8260   23.6660   -4.1870 C.2    82  ASN82       0.2597
     55  O         -9.3170   24.4560   -4.9970 O.2    82  ASN82      -0.2718
     56  CB       -10.2250   22.1250   -2.7600 C.3    82  ASN82       0.1169
     57  CG       -11.4760   23.0110   -2.7790 C.2    82  ASN82       0.2627
     58  OD1      -11.6640   23.8730   -1.9160 O.2    82  ASN82      -0.2716
     59  ND2      -12.3280   22.8110   -3.7850 N.am   82  ASN82      -0.0877
     60  N         -7.7960   23.9920   -3.4050 N.am   83  MET83      -0.1979
     61  CA        -7.2290   25.3460   -3.4450 C.3    83  MET83       0.1605
     62  C         -6.7120   25.6970   -4.8440 C.2    83  MET83       0.2287
     63  O         -6.9640   26.7980   -5.3500 O.2    83  MET83      -0.2864
     64  CB        -6.1020   25.5030   -2.4100 C.3    83  MET83       0.0413
     65  CG        -5.7380   26.9860   -2.0780 C.3    83  MET83       0.0598
     66  SD        -7.1190   28.0040   -1.4590 S.3    83  MET83      -0.1393
     67  CE        -7.9910   26.7080   -0.6030 C.3    83  MET83       0.0692
     68  N        -12.8410   12.7760    8.5580 N.3   165  PHE165     -0.1241
     69  CA       -11.4460   12.9580    8.8510 C.3   165  PHE165      0.1605
     70  C        -10.8460   11.7140    9.4840 C.2   165  PHE165      0.2264
     71  O         -9.7770   11.7640   10.0790 O.2   165  PHE165     -0.2867
     72  CB       -11.2860   14.2260    9.7110 C.3   165  PHE165      0.0534
     73  CG       -11.4640   15.4540    8.8970 C.ar  165  PHE165     -0.0203
     74  CD1      -12.7100   16.0130    8.7330 C.ar  165  PHE165     -0.0042
     75  CD2      -10.4020   15.9740    8.1960 C.ar  165  PHE165     -0.0042
     76  CE1      -12.8770   17.1130    7.9020 C.ar  165  PHE165     -0.0003
     77  CE2      -10.5770   17.0700    7.3840 C.ar  165  PHE165     -0.0003
     78  CZ       -11.8010   17.6200    7.2330 C.ar  165  PHE165     -0.0000
     79  N        -15.8260   21.7590    1.7060 N.3   226  THR226     -0.1218
     80  CA       -14.4160   21.5680    2.0540 C.3   226  THR226      0.1862
     81  C        -13.9790   22.5880    3.1000 C.2   226  THR226      0.2287
     82  O        -13.3010   22.2550    4.0680 O.2   226  THR226     -0.2866
     83  CB       -13.5020   21.6170    0.8100 C.3   226  THR226      0.1770
     84  OG1      -12.1490   21.3530    1.1920 O.3   226  THR226     -0.2211
     85  CG2      -13.5400   22.9120    0.1620 C.3   226  THR226      0.0375
     86  N        -12.8600   21.2260    6.7930 N.3   230  ALA230     -0.1231
     87  CA       -11.4620   21.3830    7.1680 C.3   230  ALA230      0.1694
     88  C        -11.3020   22.4970    8.2040 C.2   230  ALA230      0.2592
     89  O        -10.5130   22.3830    9.1390 O.2   230  ALA230     -0.2718
     90  CB       -10.6230   21.6580    5.9590 C.3   230  ALA230      0.0304
     91  N        -12.0710   23.5720    8.0670 N.am  231  GLY231     -0.1957
     92  CA       -11.9960   24.6210    9.0570 C.3   231  GLY231      0.1869
     93  C        -12.4960   24.2230   10.4380 C.2   231  GLY231      0.2309
     94  O        -11.8310   24.4870   11.4260 O.2   231  GLY231     -0.2863
     95  N        -10.1610   21.6340   12.0750 N.3   234  SER234     -0.1217
     96  CA        -8.8440   22.1530   12.3960 C.3   234  SER234      0.1889
     97  C         -8.9150   23.1060   13.6040 C.2   234  SER234      0.2288
     98  O         -8.1430   22.9610   14.5530 O.2   234  SER234     -0.2866
     99  CB        -8.2040   22.8390   11.1900 C.3   234  SER234      0.2089
    100  OG        -8.0180   21.9110   10.0970 O.3   234  SER234     -0.2183
    101  N         -2.2950   17.4870   14.6130 N.3   277  PHE277     -0.1241
    102  CA        -2.1700   16.6580   13.3940 C.3   277  PHE277      0.1605
    103  C         -1.6510   15.2860   13.7350 C.2   277  PHE277      0.2264
    104  O         -0.5780   15.1340   14.2930 O.2   277  PHE277     -0.2867
    105  CB        -1.2780   17.3210   12.3350 C.3   277  PHE277      0.0534
    106  CG        -2.0160   18.3310   11.5320 C.ar  277  PHE277     -0.0203
    107  CD1       -2.4410   19.5180   12.1240 C.ar  277  PHE277     -0.0042
    108  CD2       -2.3550   18.0790   10.2120 C.ar  277  PHE277     -0.0042
    109  CE1       -3.1570   20.4430   11.3880 C.ar  277  PHE277     -0.0003
    110  CE2       -3.0560   18.9930    9.4830 C.ar  277  PHE277     -0.0003
    111  CZ        -3.4610   20.1730   10.0710 C.ar  277  PHE277     -0.0000
    112  N          2.1950   15.4870    7.0360 N.3   281  LEU281     -0.1231
    113  CA         1.5380   15.9530    5.8220 C.3   281  LEU281      0.1678
    114  C          2.0540   15.1760    4.6220 C.2   281  LEU281      0.2434
    115  O          3.2640   15.0950    4.4160 O.2   281  LEU281     -0.2733
    116  CB         1.7960   17.4480    5.5840 C.3   281  LEU281      0.0284
    117  CG         1.4120   18.3920    6.7140 C.3   281  LEU281      0.0019
    118  CD1        1.8140   19.7810    6.2630 C.3   281  LEU281      0.0001
    119  CD2       -0.0550   18.3630    7.0620 C.3   281  LEU281      0.0001
    120  N          1.1370   14.5910    3.8050 N.am  282  PRO282     -0.2729
    121  CA         1.6530   13.7900    2.6950 C.3   282  PRO282      0.1401
    122  C          2.0000   14.5620    1.4360 C.2   282  PRO282      0.2269
    123  O          1.3470   15.5380    1.0710 O.2   282  PRO282     -0.2865
    124  CB         0.5140   12.7990    2.4000 C.3   282  PRO282      0.0296
    125  CG        -0.7160   13.4390    2.8720 C.3   282  PRO282      0.0237
    126  CD        -0.3150   14.4410    3.9780 C.3   282  PRO282      0.0939
    127  N         -1.8090   27.4230    4.9970 N.3   342  CYS342     -0.1235
    128  CA        -3.2130   27.5110    5.3600 C.3   342  CYS342      0.1677
    129  C         -3.8280   28.8900    5.0880 C.2   342  CYS342      0.2270
    130  O         -3.3590   29.9050    5.6510 O.2   342  CYS342     -0.2867
    131  CB        -3.3830   27.1710    6.8390 C.3   342  CYS342      0.0956
    132  SG        -5.0870   27.1420    7.3290 S.3   342  CYS342     -0.0801
    133  N         -7.4660   11.8400   11.5510 N.3   382  GLN382     -0.1231
    134  CA        -6.4440   12.7590   11.0240 C.3   382  GLN382      0.1698
    135  C         -6.0780   13.8680   11.9990 C.2   382  GLN382      0.2592
    136  O         -5.1810   14.6350   11.7210 O.2   382  GLN382     -0.2718
    137  CB        -6.9130   13.3490    9.7010 C.3   382  GLN382      0.0381
    138  CG        -6.9650   12.2700    8.6290 C.3   382  GLN382      0.0905
    139  CD        -7.3900   12.8100    7.3100 C.2   382  GLN382      0.2608
    140  OE1       -6.9870   13.9110    6.9230 O.2   382  GLN382     -0.2717
    141  NE2       -8.2360   12.0500    6.5970 N.am  382  GLN382     -0.0878
    142  N         -6.7880   13.9390   13.1100 N.am  383  ARG383     -0.1980
    143  CA        -6.4140   14.7800   14.2330 C.3   383  ARG383      0.1597
    144  C         -6.3050   13.9540   15.4940 C.2   383  ARG383      0.2287
    145  O         -6.8880   12.8620   15.6080 O.2   383  ARG383     -0.2864
    146  CB        -7.4240   15.9180   14.4730 C.3   383  ARG383      0.0334
    147  CG        -7.5800   16.8870   13.3410 C.3   383  ARG383      0.0492
    148  CD        -6.3030   17.6960   13.0520 C.3   383  ARG383      0.2205
    149  NE        -6.5240   18.6580   11.9760 N.pl3 383  ARG383     -0.0865
    150  CZ        -6.4990   18.3470   10.6950 C.cat 383  ARG383      0.5346
    151  NH1       -6.7670   19.2700    9.7690 N.pl3 383  ARG383      0.1354
    152  NH2       -6.2140   17.0940   10.3270 N.pl3 383  ARG383      0.1354
@<TRIPOS>BOND
     1    63    62    2
     2    55    54    2
     3    38    39    1
     4    62    61    1
     5     9    10    1
     6    54    53    1
     7    54    60   am
     8    52    53    1
     9    53    56    1
    10    11    10    1
    11    11    12    2
    12    59    57   am
    13    39    40    1
    14    39    42    1
    15     3     4    2
    16     3     2    1
    17    10    13    1
    18     1     2    1
    19    61    60    1
    20    61    64    1
    21    44    42    1
    22    45    40   am
    23    45    46    1
    24    22    21    1
    25    47    46    1
    26    47    48    2
    27    40    41    2
    28    49    46    1
    29    49    51    1
    30    49    50    1
    31    57    56    1
    32    57    58    2
    33    42    43    1
    34     2     5    1
    35    64    65    1
    36    34    33    2
    37    33    32    1
    38    13    14    1
    39    13    15    1
    40    65    66    1
    41     5     6    1
    42    21    23    1
    43    21    20    1
    44    66    67    1
    45     6     7    1
    46    20    17    1
    47     7     8    1
    48    32    35    1
    49    32    31    1
    50    37    35    1
    51    35    36    1
    52    85    83    1
    53    31    26   am
    54    17    16    1
    55    17    18    1
    56    83    84    1
    57    83    80    1
    58    19    18    2
    59    18    24   am
    60   123   122    2
    61    26    27    2
    62    26    25    1
    63   122   121    1
    64    24    25    1
    65    79    80    1
    66    25    28    1
    67    80    81    1
    68   124   121    1
    69   124   125    1
    70   121   120    1
    71   125   126    1
    72    81    82    2
    73    28    29    1
    74    28    30    1
    75   120   126    1
    76   120   114   am
    77   115   114    2
    78   114   113    1
    79   127   128    1
    80   129   128    1
    81   129   130    2
    82   128   131    1
    83   116   113    1
    84   116   117    1
    85   113   112    1
    86    90    87    1
    87   118   117    1
    88   141   139   am
    89   117   119    1
    90    86    87    1
    91   131   132    1
    92   140   139    2
    93    87    88    1
    94    78    77   ar
    95    78    76   ar
    96   139   138    1
    97    77    75   ar
    98    76    74   ar
    99    91    88   am
   100    91    92    1
   101    75    73   ar
   102    88    89    2
   103    68    69    1
   104   138   137    1
   105    74    73   ar
   106    69    70    1
   107    69    72    1
   108    73    72    1
   109    92    93    1
   110   110   111   ar
   111   110   108   ar
   112    70    71    2
   113   137   134    1
   114   151   150    1
   115   111   109   ar
   116   100    99    1
   117   108   106   ar
   118   152   150    1
   119    93    94    2
   120   150   149    2
   121   134   133    1
   122   134   135    1
   123    99    96    1
   124   109   107   ar
   125   106   107   ar
   126   106   105    1
   127   136   135    2
   128   149   148    1
   129   135   142   am
   130    95    96    1
   131   105   102    1
   132    96    97    1
   133   148   147    1
   134   142   143    1
   135   147   146    1
   136   102   103    1
   137   102   101    1
   138    97    98    2
   139   103   104    2
   140   143   146    1
   141   143   144    1
   142   144   145    2
