@<TRIPOS>MOLECULE
tmp/5ibgA01.pdb
 160 150 0 0 0
SMALL
GASTEIGER

@<TRIPOS>ATOM
      1  N         11.3330  -10.4950    1.2680 N.3    71  THR71      -0.1203
      2  CA        12.6930  -10.5830    1.7870 C.3    71  THR71       0.1994
      3  C         13.4570  -11.6850    1.0640 C.2    71  THR71       0.2617
      4  O         14.5790  -12.0330    1.4370 O.2    71  THR71      -0.2717
      5  CB        12.7090  -10.8600    3.3040 C.3    71  THR71       0.1784
      6  OG1       12.0730  -12.1160    3.5690 O.3    71  THR71      -0.2211
      7  CG2       11.9720   -9.7650    4.0520 C.3    71  THR71       0.0376
      8  N         12.8270  -12.2330    0.0300 N.am   72  VAL72      -0.1979
      9  CA        13.4150  -13.2820   -0.7920 C.3    72  VAL72       0.1595
     10  C         13.2280  -12.9250   -2.2620 C.2    72  VAL72       0.2287
     11  O         12.3930  -12.0790   -2.5870 O.2    72  VAL72      -0.2864
     12  CB        12.7730  -14.6580   -0.5050 C.3    72  VAL72       0.0276
     13  CG1       13.1220  -15.1350    0.8960 C.3    72  VAL72       0.0022
     14  CG2       11.2670  -14.5860   -0.6920 C.3    72  VAL72       0.0022
     15  N         11.2310  -17.5080   -5.0600 N.3    76  VAL76      -0.1231
     16  CA        11.2920  -18.3290   -3.8560 C.3    76  VAL76       0.1692
     17  C          9.8840  -18.5560   -3.3040 C.2    76  VAL76       0.2591
     18  O          9.6160  -19.5620   -2.6500 O.2    76  VAL76      -0.2718
     19  CB        12.1960  -17.6810   -2.7820 C.3    76  VAL76       0.0266
     20  CG1       12.2540  -18.5330   -1.5250 C.3    76  VAL76       0.0020
     21  CG2       13.5920  -17.4720   -3.3370 C.3    76  VAL76       0.0020
     22  N          8.9850  -17.6200   -3.5880 N.am   77  VAL77      -0.1980
     23  CA         7.5820  -17.7540   -3.2020 C.3    77  VAL77       0.1595
     24  C          6.9870  -19.0480   -3.7580 C.2    77  VAL77       0.2287
     25  O          6.2230  -19.7400   -3.0840 O.2    77  VAL77      -0.2864
     26  CB         6.7530  -16.5470   -3.6920 C.3    77  VAL77       0.0276
     27  CG1        5.2700  -16.7700   -3.4420 C.3    77  VAL77       0.0022
     28  CG2        7.2300  -15.2720   -3.0110 C.3    77  VAL77       0.0022
     29  N          8.7050  -21.7460   -4.4020 N.3    79  ASN79      -0.1240
     30  CA         9.8390  -22.6620   -4.2860 C.3    79  ASN79       0.1653
     31  C          9.4390  -24.1310   -4.3630 C.2    79  ASN79       0.2266
     32  O         10.0660  -24.9110   -5.0780 O.2    79  ASN79      -0.2867
     33  CB        10.6070  -22.4170   -2.9870 C.3    79  ASN79       0.1155
     34  CG        11.8600  -23.2670   -2.8860 C.2    79  ASN79       0.2627
     35  OD1       11.9750  -24.1220   -2.0090 O.2    79  ASN79      -0.2716
     36  ND2       12.8010  -23.0460   -3.8000 N.am   79  ASN79      -0.0877
     37  N         18.4630  -14.9580   10.1920 N.3   158  LEU158     -0.1245
     38  CA        17.0330  -15.1860   10.3610 C.3   158  LEU158      0.1561
     39  C         16.2880  -14.0500   11.0710 C.2   158  LEU158      0.2260
     40  O         15.1040  -13.8410   10.8120 O.2   158  LEU158     -0.2867
     41  CB        16.8020  -16.5070   11.1000 C.3   158  LEU158      0.0270
     42  CG        17.3040  -17.7650   10.3730 C.3   158  LEU158      0.0019
     43  CD1       16.8250  -19.0270   11.0770 C.3   158  LEU158      0.0001
     44  CD2       16.8850  -17.7750    8.9070 C.3   158  LEU158      0.0001
     45  N         15.7940  -12.0590    7.9180 N.3   161  ALA161     -0.1231
     46  CA        15.1400  -12.8090    6.8450 C.3   161  ALA161      0.1694
     47  C         13.6360  -12.9830    7.0550 C.2   161  ALA161      0.2592
     48  O         12.8730  -12.9710    6.0890 O.2   161  ALA161     -0.2718
     49  CB        15.7980  -14.1720    6.6820 C.3   161  ALA161      0.0304
     50  N         13.2070  -13.1420    8.3040 N.am  162  PHE162     -0.1976
     51  CA        11.7880  -13.3620    8.5780 C.3   162  PHE162      0.1639
     52  C         11.1060  -12.1600    9.2170 C.2   162  PHE162      0.2290
     53  O         10.0940  -12.3030    9.9070 O.2   162  PHE162     -0.2864
     54  CB        11.6020  -14.6020    9.4560 C.3   162  PHE162      0.0560
     55  CG        11.6060  -15.8830    8.6760 C.ar  162  PHE162     -0.0200
     56  CD1       12.7870  -16.5680    8.4440 C.ar  162  PHE162     -0.0042
     57  CD2       10.4300  -16.3810    8.1400 C.ar  162  PHE162     -0.0042
     58  CE1       12.7890  -17.7420    7.7070 C.ar  162  PHE162     -0.0003
     59  CE2       10.4230  -17.5500    7.4060 C.ar  162  PHE162     -0.0003
     60  CZ        11.6040  -18.2320    7.1900 C.ar  162  PHE162     -0.0000
     61  N         21.0380  -12.9980    1.9820 N.3   176  TRP176     -0.1241
     62  CA        20.5870  -14.0360    1.0640 C.3   176  TRP176      0.1605
     63  C         21.6840  -14.4220    0.0740 C.2   176  TRP176      0.2264
     64  O         21.9640  -15.6050   -0.1180 O.2   176  TRP176     -0.2867
     65  CB        19.3350  -13.5830    0.3100 C.3   176  TRP176      0.0550
     66  CG        18.8120  -14.6130   -0.6330 C.ar  176  TRP176      0.0003
     67  CD1       19.1060  -14.7350   -1.9620 C.ar  176  TRP176      0.0946
     68  CD2       17.9090  -15.6810   -0.3220 C.ar  176  TRP176      0.0152
     69  NE1       18.4390  -15.8090   -2.4960 N.ar  176  TRP176     -0.2442
     70  CE2       17.6970  -16.4080   -1.5120 C.ar  176  TRP176      0.0810
     71  CE3       17.2570  -16.0930    0.8450 C.ar  176  TRP176      0.0012
     72  CZ2       16.8610  -17.5210   -1.5680 C.ar  176  TRP176      0.0191
     73  CZ3       16.4270  -17.1990    0.7870 C.ar  176  TRP176      0.0001
     74  CH2       16.2370  -17.9000   -0.4100 C.ar  176  TRP176      0.0015
     75  N         24.3460  -16.4130    1.8830 N.3   179  ASP179     -0.1239
     76  CA        23.9220  -17.7660    2.2280 C.3   179  ASP179      0.1674
     77  C         23.7940  -18.6510    0.9810 C.2   179  ASP179      0.2266
     78  O         24.0550  -19.8530    1.0400 O.2   179  ASP179     -0.2867
     79  CB        22.5990  -17.7340    3.0010 C.3   179  ASP179      0.1410
     80  CG        22.7230  -17.0410    4.3580 C.2   179  ASP179      0.3668
     81  OD1       23.8590  -16.8810    4.8520 O.co2 179  ASP179     -0.2456
     82  OD2       21.6810  -16.6640    4.9370 O.co2 179  ASP179     -0.2456
     83  N         19.0930  -23.0570    1.2650 N.3   222  VAL222     -0.1231
     84  CA        18.8730  -21.8590    2.0670 C.3   222  VAL222      0.1692
     85  C         17.4360  -21.7990    2.5820 C.2   222  VAL222      0.2592
     86  O         17.2030  -21.5220    3.7590 O.2   222  VAL222     -0.2718
     87  CB        19.1730  -20.5700    1.2690 C.3   222  VAL222      0.0266
     88  CG1       18.9440  -19.3400    2.1420 C.3   222  VAL222      0.0020
     89  CG2       20.5980  -20.5870    0.7390 C.3   222  VAL222      0.0020
     90  N         16.4810  -22.0750    1.6980 N.am  223  THR223     -0.1953
     91  CA        15.0620  -21.9950    2.0430 C.3   223  THR223      0.1897
     92  C         14.6700  -22.9790    3.1400 C.2   223  THR223      0.2313
     93  O         14.0300  -22.5990    4.1220 O.2   223  THR223     -0.2863
     94  CB        14.1700  -22.2480    0.8140 C.3   223  THR223      0.1794
     95  OG1       14.4290  -21.2450   -0.1780 O.3   223  THR223     -0.2208
     96  CG2       12.7000  -22.1950    1.2010 C.3   223  THR223      0.0378
     97  N         16.2930  -22.0860    6.6380 N.3   226  GLY226     -0.1210
     98  CA        15.6870  -20.9250    7.2700 C.3   226  GLY226      0.1956
     99  C         14.2580  -21.1580    7.7250 C.2   226  GLY226      0.2612
    100  O         13.9000  -20.8670    8.8690 O.2   226  GLY226     -0.2717
    101  N         13.4410  -21.6850    6.8210 N.am  227  ALA227     -0.1965
    102  CA        12.0370  -21.9430    7.1060 C.3   227  ALA227      0.1728
    103  C         11.8760  -22.9850    8.2070 C.2   227  ALA227      0.2616
    104  O         11.0410  -22.8360    9.1000 O.2   227  ALA227     -0.2715
    105  CB        11.3210  -22.3900    5.8450 C.3   227  ALA227      0.0334
    106  N         12.6840  -24.0380    8.1380 N.am  228  GLY228     -0.1955
    107  CA        12.6310  -25.1040    9.1200 C.3   228  GLY228      0.1869
    108  C         13.1050  -24.6850   10.5010 C.2   228  GLY228      0.2309
    109  O         12.4640  -25.0030   11.5040 O.2   228  GLY228     -0.2863
    110  N         10.6600  -22.0810   12.1140 N.3   231  SER231     -0.1217
    111  CA         9.3250  -22.5870   12.4130 C.3   231  SER231      0.1889
    112  C          9.3460  -23.5300   13.6070 C.2   231  SER231      0.2288
    113  O          8.4850  -23.4480   14.4810 O.2   231  SER231     -0.2866
    114  CB         8.7250  -23.2940   11.1940 C.3   231  SER231      0.2089
    115  OG         8.5390  -22.3880   10.1190 O.3   231  SER231     -0.2183
    116  N          2.6490  -17.9640   14.5930 N.3   274  PHE274     -0.1241
    117  CA         2.4660  -17.2130   13.3500 C.3   274  PHE274      0.1605
    118  C          1.8980  -15.8260   13.6230 C.2   274  PHE274      0.2264
    119  O          0.8100  -15.6820   14.1860 O.2   274  PHE274     -0.2867
    120  CB         1.5670  -17.9780   12.3830 C.3   274  PHE274      0.0534
    121  CG         2.3040  -18.9970   11.5680 C.ar  274  PHE274     -0.0203
    122  CD1        2.7990  -20.1490   12.1580 C.ar  274  PHE274     -0.0042
    123  CD2        2.5150  -18.7970   10.2140 C.ar  274  PHE274     -0.0042
    124  CE1        3.4860  -21.0860   11.4090 C.ar  274  PHE274     -0.0003
    125  CE2        3.2010  -19.7330    9.4580 C.ar  274  PHE274     -0.0003
    126  CZ         3.6860  -20.8750   10.0550 C.ar  274  PHE274     -0.0000
    127  N         -1.8900  -16.4180    6.6890 N.3   278  LEU278     -0.1245
    128  CA        -1.2820  -16.9370    5.4710 C.3   278  LEU278      0.1561
    129  C         -1.8210  -16.1580    4.2770 C.2   278  LEU278      0.2260
    130  O         -3.0340  -16.0470    4.1010 O.2   278  LEU278     -0.2867
    131  CB        -1.5580  -18.4330    5.3110 C.3   278  LEU278      0.0270
    132  CG        -1.0940  -19.3430    6.4490 C.3   278  LEU278      0.0019
    133  CD1       -1.3490  -20.8040    6.0990 C.3   278  LEU278      0.0001
    134  CD2        0.3760  -19.1140    6.7740 C.3   278  LEU278      0.0001
    135  N          2.3720  -28.1730    4.9520 N.3   339  CYS339     -0.1235
    136  CA         3.7750  -28.1970    5.3470 C.3   339  CYS339      0.1677
    137  C          4.4350  -29.5550    5.1140 C.2   339  CYS339      0.2270
    138  O          4.0170  -30.5630    5.6870 O.2   339  CYS339     -0.2867
    139  CB         3.9250  -27.8050    6.8170 C.3   339  CYS339      0.0956
    140  SG         5.6490  -27.7230    7.3390 S.3   339  CYS339     -0.0801
    141  N          7.7030  -12.2250   11.3320 N.3   379  GLN379     -0.1231
    142  CA         6.7480  -13.2040   10.8120 C.3   379  GLN379      0.1698
    143  C          6.4120  -14.2750   11.8480 C.2   379  GLN379      0.2592
    144  O          5.4880  -15.0670   11.6560 O.2   379  GLN379     -0.2718
    145  CB         7.2870  -13.8510    9.5320 C.3   379  GLN379      0.0381
    146  CG         7.3960  -12.8800    8.3550 C.3   379  GLN379      0.0905
    147  CD         7.9630  -13.5220    7.1040 C.2   379  GLN379      0.2608
    148  OE1        8.8340  -12.9520    6.4390 O.2   379  GLN379     -0.2717
    149  NE2        7.4670  -14.7070    6.7680 N.am  379  GLN379     -0.0878
    150  N          7.1620  -14.2940   12.9450 N.am  380  ARG380     -0.1980
    151  CA         6.8400  -15.1630   14.0730 C.3   380  ARG380      0.1597
    152  C          6.6500  -14.3540   15.3510 C.2   380  ARG380      0.2287
    153  O          7.2370  -13.2880   15.5060 O.2   380  ARG380     -0.2864
    154  CB         7.9320  -16.2150   14.2950 C.3   380  ARG380      0.0334
    155  CG         8.0830  -17.2360   13.1760 C.3   380  ARG380      0.0492
    156  CD         6.8370  -18.1030   13.0120 C.3   380  ARG380      0.2205
    157  NE         7.0160  -19.0960   11.9550 N.pl3 380  ARG380     -0.0865
    158  CZ         6.8520  -18.8440   10.6590 C.cat 380  ARG380      0.5346
    159  NH1        7.0400  -19.8070    9.7650 N.pl3 380  ARG380      0.1354
    160  NH2        6.5040  -17.6280   10.2550 N.pl3 380  ARG380      0.1354
@<TRIPOS>BOND
     1    32    31    2
     2    15    16    1
     3    29    30    1
     4    31    30    1
     5    30    33    1
     6    16    17    1
     7    16    19    1
     8    36    34   am
     9    24    23    1
    10    24    25    2
    11    26    27    1
    12    26    23    1
    13    26    28    1
    14    22    17   am
    15    22    23    1
    16    21    19    1
    17    17    18    2
    18    33    34    1
    19    34    35    2
    20    19    20    1
    21    11    10    2
    22    69    67   ar
    23    69    70   ar
    24    10     9    1
    25    67    66   ar
    26    72    70   ar
    27    72    74   ar
    28    70    68   ar
    29     9    12    1
    30     9     8    1
    31    14    12    1
    32    66    68   ar
    33    66    65    1
    34    12    13    1
    35    74    73   ar
    36    68    71   ar
    37    95    94    1
    38    64    63    2
    39     8     3   am
    40    63    62    1
    41    65    62    1
    42    89    87    1
    43    73    71   ar
    44    94    96    1
    45    94    91    1
    46    77    78    2
    47    77    76    1
    48    62    61    1
    49     3     4    2
    50     3     2    1
    51    83    84    1
    52     1     2    1
    53    87    84    1
    54    87    88    1
    55    90    91    1
    56    90    85   am
    57     2     5    1
    58    75    76    1
    59    91    92    1
    60    84    85    1
    61    76    79    1
    62    85    86    2
    63    79    80    1
    64    92    93    2
    65     5     6    1
    66     5     7    1
    67   130   129    2
    68   129   128    1
    69    80    81   ar
    70    80    82   ar
    71   135   136    1
    72   137   136    1
    73   137   138    2
    74   131   128    1
    75   131   132    1
    76   136   139    1
    77   128   127    1
    78   105   102    1
    79    48    47    2
    80   133   132    1
    81   148   147    2
    82   132   134    1
    83    97    98    1
    84    49    46    1
    85   149   147   am
    86   139   140    1
    87   101   102    1
    88   101    99   am
    89    46    47    1
    90    46    45    1
    91    47    50   am
    92   147   146    1
    93   102   103    1
    94    60    59   ar
    95    60    58   ar
    96    98    99    1
    97    59    57   ar
    98    58    56   ar
    99    99   100    2
   100   106   103   am
   101   106   107    1
   102    57    55   ar
   103   103   104    2
   104    50    51    1
   105   146   145    1
   106    56    55   ar
   107    51    52    1
   108    51    54    1
   109    55    54    1
   110    44    42    1
   111   107   108    1
   112    52    53    2
   113   125   126   ar
   114   125   123   ar
   115   145   142    1
   116   159   158    1
   117   126   124   ar
   118   115   114    1
   119    37    38    1
   120   123   121   ar
   121   160   158    1
   122    38    39    1
   123    38    41    1
   124    42    43    1
   125    42    41    1
   126   108   109    2
   127   158   157    2
   128    40    39    2
   129   142   141    1
   130   142   143    1
   131   114   111    1
   132   124   122   ar
   133   121   122   ar
   134   121   120    1
   135   144   143    2
   136   143   150   am
   137   157   156    1
   138   110   111    1
   139   120   117    1
   140   111   112    1
   141   150   151    1
   142   156   155    1
   143   155   154    1
   144   117   118    1
   145   117   116    1
   146   112   113    2
   147   118   119    2
   148   151   154    1
   149   151   152    1
   150   152   153    2
