@<TRIPOS>MOLECULE
tmp/5ibgA02.pdb
 96 97 0 0 0
SMALL
GASTEIGER

@<TRIPOS>ATOM
      1  N          8.7250   -8.2700    0.3870 N.3    70  LEU70      -0.1231
      2  CA         9.4630   -9.4940    0.0950 C.3    70  LEU70       0.1693
      3  C         10.8960   -9.4250    0.6130 C.2    70  LEU70       0.2593
      4  O         11.5880   -8.4260    0.4210 O.2    70  LEU70      -0.2718
      5  CB         9.4700   -9.7680   -1.4090 C.3    70  LEU70       0.0284
      6  CG         8.2300  -10.4480   -1.9890 C.3    70  LEU70       0.0019
      7  CD1        8.2830  -10.4430   -3.5070 C.3    70  LEU70       0.0001
      8  CD2        8.1200  -11.8680   -1.4610 C.3    70  LEU70       0.0001
      9  N         11.3330  -10.4950    1.2680 N.am   71  THR71      -0.1939
     10  CA        12.6930  -10.5830    1.7870 C.3    71  THR71       0.2028
     11  C         13.4570  -11.6850    1.0640 C.2    71  THR71       0.2642
     12  O         14.5790  -12.0330    1.4370 O.2    71  THR71      -0.2714
     13  CB        12.7090  -10.8600    3.3040 C.3    71  THR71       0.1808
     14  OG1       12.0730  -12.1160    3.5690 O.3    71  THR71      -0.2208
     15  CG2       11.9720   -9.7650    4.0520 C.3    71  THR71       0.0379
     16  N         12.8270  -12.2330    0.0300 N.am   72  VAL72      -0.1963
     17  CA        13.4150  -13.2820   -0.7920 C.3    72  VAL72       0.1712
     18  C         13.2280  -12.9250   -2.2620 C.2    72  VAL72       0.2458
     19  O         12.3930  -12.0790   -2.5870 O.2    72  VAL72      -0.2730
     20  CB        12.7730  -14.6580   -0.5050 C.3    72  VAL72       0.0289
     21  CG1       13.1220  -15.1350    0.8960 C.3    72  VAL72       0.0023
     22  CG2       11.2670  -14.5860   -0.6920 C.3    72  VAL72       0.0023
     23  N         14.0160  -13.5470   -3.1560 N.am   73  PRO73      -0.2716
     24  CA        13.7260  -13.3800   -4.5850 C.3    73  PRO73       0.1521
     25  C         12.3110  -13.8570   -4.9020 C.2    73  PRO73       0.2440
     26  O         11.8580  -14.8230   -4.2940 O.2    73  PRO73      -0.2731
     27  CB        14.7770  -14.2600   -5.2660 C.3    73  PRO73       0.0310
     28  CG        15.9010  -14.3270   -4.2870 C.3    73  PRO73       0.0237
     29  CD        15.2530  -14.3170   -2.9310 C.3    73  PRO73       0.0939
     30  N         11.6200  -13.1800   -5.8320 N.am   74  PRO74      -0.2716
     31  CA        10.2160  -13.4570   -6.1650 C.3    74  PRO74       0.1536
     32  C          9.9320  -14.9280   -6.4670 C.2    74  PRO74       0.2598
     33  O          8.8230  -15.3970   -6.2170 O.2    74  PRO74      -0.2715
     34  CB         9.9800  -12.6020   -7.4130 C.3    74  PRO74       0.0310
     35  CG        10.9570  -11.4910   -7.2920 C.3    74  PRO74       0.0237
     36  CD        12.1740  -12.0860   -6.6480 C.3    74  PRO74       0.0939
     37  N         10.9250  -15.6440   -6.9860 N.am   75  GLU75      -0.1978
     38  CA        10.7280  -17.0300   -7.3930 C.3    75  GLU75       0.1602
     39  C         10.7370  -17.9840   -6.1990 C.2    75  GLU75       0.2287
     40  O         10.2980  -19.1290   -6.3060 O.2    75  GLU75      -0.2864
     41  CB        11.8000  -17.4400   -8.4070 C.3    75  GLU75       0.0415
     42  CG        11.4120  -18.6340   -9.2720 C.3    75  GLU75       0.1163
     43  CD        12.3610  -18.8460  -10.4390 C.2    75  GLU75       0.3649
     44  OE1       13.2620  -18.0020  -10.6360 O.co2  75  GLU75      -0.2457
     45  OE2       12.2070  -19.8540  -11.1600 O.co2  75  GLU75      -0.2457
     46  N         11.1420   -2.6970    1.7500 N.3   168  PRO168     -0.2102
     47  CA        12.2620   -3.5980    1.4510 C.3   168  PRO168      0.1504
     48  C         13.4190   -3.4500    2.4350 C.2   168  PRO168      0.2575
     49  O         13.6680   -2.3550    2.9440 O.2   168  PRO168     -0.2718
     50  CB        12.6870   -3.1690    0.0440 C.3   168  PRO168      0.0282
     51  CG        11.4320   -2.6500   -0.5710 C.3   168  PRO168      0.0208
     52  CD        10.6920   -1.9680    0.5500 C.3   168  PRO168      0.0893
     53  N         14.1140   -4.5530    2.6910 N.am  169  ILE169     -0.1980
     54  CA        15.1860   -4.5910    3.6770 C.3   169  ILE169      0.1595
     55  C         16.5270   -4.8810    3.0140 C.2   169  ILE169      0.2287
     56  O         16.7720   -6.0050    2.5760 O.2   169  ILE169     -0.2864
     57  CB        14.9140   -5.6640    4.7490 C.3   169  ILE169      0.0276
     58  CG1       13.4640   -5.5760    5.2360 C.3   169  ILE169      0.0022
     59  CG2       15.8950   -5.5270    5.9010 C.3   169  ILE169      0.0022
     60  CD1       13.0600   -6.7100    6.1590 C.3   169  ILE169      0.0001
     61  N         18.4670   -8.0310    3.8720 N.3   172  ALA172     -0.1231
     62  CA        17.9000   -9.3100    3.4570 C.3   172  ALA172      0.1694
     63  C         18.6000   -9.8510    2.2120 C.2   172  ALA172      0.2591
     64  O         18.9660  -11.0240    2.1630 O.2   172  ALA172     -0.2718
     65  CB        16.4040   -9.1780    3.2090 C.3   172  ALA172      0.0304
     66  N         18.7940   -8.9950    1.2130 N.am  173  LYS173     -0.1980
     67  CA        19.4910   -9.4070   -0.0040 C.3   173  LYS173      0.1596
     68  C         20.9640   -9.7060    0.2670 C.2   173  LYS173      0.2287
     69  O         21.5130  -10.6840   -0.2470 O.2   173  LYS173     -0.2864
     70  CB        19.3670   -8.3380   -1.0960 C.3   173  LYS173      0.0298
     71  CG        20.2650   -8.5880   -2.3070 C.3   173  LYS173      0.0038
     72  CD        19.6270   -8.0910   -3.5980 C.3   173  LYS173      0.0206
     73  CE        20.6720   -7.7320   -4.6530 C.3   173  LYS173      0.1093
     74  NZ        21.7250   -8.7660   -4.8390 N.3   173  LYS173     -0.1314
     75  N         21.0380  -12.9980    1.9820 N.3   176  TRP176     -0.1227
     76  CA        20.5870  -14.0360    1.0640 C.3   176  TRP176      0.1737
     77  C         21.6840  -14.4220    0.0740 C.2   176  TRP176      0.2595
     78  O         21.9640  -15.6050   -0.1180 O.2   176  TRP176     -0.2718
     79  CB        19.3350  -13.5830    0.3100 C.3   176  TRP176      0.0564
     80  CG        18.8120  -14.6130   -0.6330 C.ar  176  TRP176      0.0003
     81  CD1       19.1060  -14.7350   -1.9620 C.ar  176  TRP176      0.0946
     82  CD2       17.9090  -15.6810   -0.3220 C.ar  176  TRP176      0.0152
     83  NE1       18.4390  -15.8090   -2.4960 N.ar  176  TRP176     -0.2442
     84  CE2       17.6970  -16.4080   -1.5120 C.ar  176  TRP176      0.0810
     85  CE3       17.2570  -16.0930    0.8450 C.ar  176  TRP176      0.0012
     86  CZ2       16.8610  -17.5210   -1.5680 C.ar  176  TRP176      0.0191
     87  CZ3       16.4270  -17.1990    0.7870 C.ar  176  TRP176      0.0001
     88  CH2       16.2370  -17.9000   -0.4100 C.ar  176  TRP176      0.0015
     89  N         22.3030  -13.4210   -0.5450 N.am  177  ASP177     -0.1974
     90  CA        23.3710  -13.6670   -1.5080 C.3   177  ASP177      0.1709
     91  C         24.5230  -14.4210   -0.8620 C.2   177  ASP177      0.2293
     92  O         25.1290  -15.3000   -1.4750 O.2   177  ASP177     -0.2864
     93  CB        23.8850  -12.3560   -2.1060 C.3   177  ASP177      0.1436
     94  CG        22.9240  -11.7560   -3.1080 C.2   177  ASP177      0.3671
     95  OD1       22.0150  -12.4830   -3.5620 O.co2 177  ASP177     -0.2456
     96  OD2       23.0830  -10.5620   -3.4490 O.co2 177  ASP177     -0.2456
@<TRIPOS>BOND
     1    45    43   ar
     2    44    43   ar
     3    43    42    1
     4    42    41    1
     5    41    38    1
     6    34    35    1
     7    34    31    1
     8    38    37    1
     9    38    39    1
    10    35    36    1
    11    37    32   am
    12    36    30    1
    13    32    33    2
    14    32    31    1
    15    40    39    2
    16    31    30    1
    17    30    25   am
    18    27    24    1
    19    27    28    1
    20    25    24    1
    21    25    26    2
    22    74    73    1
    23    73    72    1
    24    24    23    1
    25    28    29    1
    26    72    71    1
    27    95    94   ar
    28     7     6    1
    29    96    94   ar
    30    23    29    1
    31    23    18   am
    32    94    93    1
    33    19    18    2
    34    83    81   ar
    35    83    84   ar
    36    71    70    1
    37    18    17    1
    38    93    90    1
    39     6     8    1
    40     6     5    1
    41    81    80   ar
    42    86    84   ar
    43    86    88   ar
    44    84    82   ar
    45    90    91    1
    46    90    89    1
    47    92    91    2
    48     5     2    1
    49    70    67    1
    50    17    20    1
    51    17    16    1
    52    22    20    1
    53    80    82   ar
    54    80    79    1
    55    51    50    1
    56    51    52    1
    57    89    77   am
    58    20    21    1
    59    88    87   ar
    60    82    85   ar
    61    69    68    2
    62    78    77    2
    63    67    68    1
    64    67    66    1
    65    16    11   am
    66    50    47    1
    67    77    76    1
    68     2     1    1
    69     2     3    1
    70    79    76    1
    71     4     3    2
    72    52    46    1
    73     3     9   am
    74    87    85   ar
    75    11    12    2
    76    11    10    1
    77    76    75    1
    78    66    63   am
    79     9    10    1
    80    47    46    1
    81    47    48    1
    82    10    13    1
    83    64    63    2
    84    63    62    1
    85    48    53   am
    86    48    49    2
    87    56    55    2
    88    53    54    1
    89    55    54    1
    90    65    62    1
    91    13    14    1
    92    13    15    1
    93    62    61    1
    94    54    57    1
    95    57    58    1
    96    57    59    1
    97    58    60    1
