@<TRIPOS>MOLECULE
tmp/5ibhA02.pdb
 179 172 0 0 0
SMALL
GASTEIGER

@<TRIPOS>ATOM
      1  N        -38.3690   71.8800   -0.3530 N.3    69  ARG69      -0.1245
      2  CA       -39.2980   72.7500    0.3650 C.3    69  ARG69       0.1563
      3  C        -39.0520   72.7720    1.8780 C.2    69  ARG69       0.2260
      4  O        -38.7850   71.7360    2.5050 O.2    69  ARG69      -0.2867
      5  CB       -40.7520   72.3240    0.0920 C.3    69  ARG69       0.0307
      6  CG       -41.1430   72.1970   -1.3960 C.3    69  ARG69       0.0489
      7  CD       -42.6370   72.4520   -1.5690 C.3    69  ARG69       0.2205
      8  NE       -42.9850   73.6680   -0.8400 N.pl3  69  ARG69      -0.0865
      9  CZ       -42.8530   74.8940   -1.3320 C.cat  69  ARG69       0.5346
     10  NH1      -43.1490   75.9430   -0.5810 N.pl3  69  ARG69       0.1354
     11  NH2      -42.4390   75.0640   -2.5840 N.pl3  69  ARG69       0.1354
     12  N        -41.6270   73.6750    3.8310 N.3    71  ASN71      -0.1225
     13  CA       -42.9230   73.1790    4.2800 C.3    71  ASN71       0.1785
     14  C        -43.8450   73.1920    3.0790 C.2    71  ASN71       0.2597
     15  O        -43.4520   73.6510    2.0090 O.2    71  ASN71      -0.2718
     16  CB       -43.5090   74.0180    5.4350 C.3    71  ASN71       0.1169
     17  CG       -43.4520   75.5320    5.1710 C.2    71  ASN71       0.2627
     18  OD1      -43.5750   75.9800    4.0360 O.2    71  ASN71      -0.2716
     19  ND2      -43.2610   76.3190    6.2350 N.am   71  ASN71      -0.0877
     20  N        -45.0570   72.6820    3.2470 N.am   72  ALA72      -0.1966
     21  CA       -46.0180   72.6510    2.1540 C.3    72  ALA72       0.1728
     22  C        -46.6320   74.0280    1.9180 C.2    72  ALA72       0.2616
     23  O        -46.8220   74.7910    2.8580 O.2    72  ALA72      -0.2715
     24  CB       -47.1100   71.6330    2.4470 C.3    72  ALA72       0.0334
     25  N        -46.9550   74.3360    0.6690 N.am   73  LEU73      -0.1963
     26  CA       -47.6670   75.5780    0.3660 C.3    73  LEU73       0.1728
     27  C        -49.0720   75.5710    0.9530 C.2    73  LEU73       0.2617
     28  O        -49.7900   74.5890    0.8320 O.2    73  LEU73      -0.2715
     29  CB       -47.7510   75.7960   -1.1500 C.3    73  LEU73       0.0311
     30  CG       -46.4600   76.1870   -1.8550 C.3    73  LEU73       0.0022
     31  CD1      -46.6740   76.1480   -3.3620 C.3    73  LEU73       0.0001
     32  CD2      -46.0500   77.5620   -1.3910 C.3    73  LEU73       0.0001
     33  N        -49.4680   76.6710    1.5790 N.am   74  THR74      -0.1937
     34  CA       -50.8570   76.8390    1.9910 C.3    74  THR74       0.2028
     35  C        -51.5100   77.9710    1.2030 C.2    74  THR74       0.2642
     36  O        -52.5820   78.4430    1.5670 O.2    74  THR74      -0.2714
     37  CB       -50.9820   77.1330    3.4900 C.3    74  THR74       0.1808
     38  OG1      -50.2480   78.3240    3.8010 O.3    74  THR74      -0.2208
     39  CG2      -50.4310   75.9580    4.3130 C.3    74  THR74       0.0379
     40  N        -50.8420   78.4140    0.1410 N.am   75  VAL75      -0.1977
     41  CA       -51.4150   79.3740   -0.8080 C.3    75  VAL75       0.1596
     42  C        -51.1610   78.8620   -2.2210 C.2    75  VAL75       0.2287
     43  O        -50.3220   77.9770   -2.4040 O.2    75  VAL75      -0.2864
     44  CB       -50.8030   80.7850   -0.6540 C.3    75  VAL75       0.0276
     45  CG1      -51.2340   81.4380    0.6720 C.3    75  VAL75       0.0022
     46  CG2      -49.2760   80.7320   -0.7650 C.3    75  VAL75       0.0022
     47  N        -48.9760   83.1400   -5.4120 N.3    79  VAL79      -0.1231
     48  CA       -49.1890   84.0460   -4.2820 C.3    79  VAL79       0.1692
     49  C        -47.9160   84.1330   -3.4140 C.2    79  VAL79       0.2591
     50  O        -47.7530   85.0530   -2.6190 O.2    79  VAL79      -0.2718
     51  CB       -50.4260   83.6010   -3.4560 C.3    79  VAL79       0.0266
     52  CG1      -50.6160   84.4350   -2.1790 C.3    79  VAL79       0.0020
     53  CG2      -51.6860   83.6580   -4.3190 C.3    79  VAL79       0.0020
     54  N        -46.9820   83.2050   -3.5980 N.am   80  VAL80      -0.1980
     55  CA       -45.6880   83.3320   -2.9230 C.3    80  VAL80       0.1595
     56  C        -44.9740   84.5910   -3.4380 C.2    80  VAL80       0.2287
     57  O        -44.1990   85.2200   -2.7230 O.2    80  VAL80      -0.2864
     58  CB       -44.8020   82.0730   -3.1320 C.3    80  VAL80       0.0276
     59  CG1      -43.3860   82.3060   -2.6470 C.3    80  VAL80       0.0022
     60  CG2      -45.3980   80.8810   -2.3980 C.3    80  VAL80       0.0022
     61  N        -46.4520   87.3550   -4.0840 N.3    82  ASN82      -0.1225
     62  CA       -47.5180   88.3420   -3.8650 C.3    82  ASN82       0.1785
     63  C        -47.0750   89.8070   -4.0690 C.2    82  ASN82       0.2597
     64  O        -47.6860   90.5400   -4.8560 O.2    82  ASN82      -0.2718
     65  CB       -48.0930   88.1570   -2.4570 C.3    82  ASN82       0.1169
     66  CG       -49.4120   88.9000   -2.2420 C.2    82  ASN82       0.2627
     67  OD1      -50.2630   88.9800   -3.1300 O.2    82  ASN82      -0.2716
     68  ND2      -49.5830   89.4330   -1.0490 N.am   82  ASN82      -0.0877
     69  N        -46.0110   90.2310   -3.3880 N.am   83  MET83      -0.1979
     70  CA       -45.5550   91.6220   -3.5180 C.3    83  MET83       0.1605
     71  C        -45.0420   91.9030   -4.9270 C.2    83  MET83       0.2287
     72  O        -45.2890   92.9750   -5.4760 O.2    83  MET83      -0.2864
     73  CB       -44.4750   91.9570   -2.4860 C.3    83  MET83       0.0413
     74  CG       -45.0320   92.3100   -1.0990 C.3    83  MET83       0.0598
     75  SD       -46.1000   93.7820   -1.0160 S.3    83  MET83      -0.1393
     76  CE       -44.9450   95.0970   -1.3940 C.3    83  MET83       0.0692
     77  N        -59.3500   81.3450   10.3330 N.3   160  SER160     -0.1202
     78  CA       -58.5730   80.6220    9.3210 C.3   160  SER160      0.2020
     79  C        -57.0960   80.4560    9.6980 C.2   160  SER160      0.2618
     80  O        -56.4210   79.5460    9.2070 O.2   160  SER160     -0.2717
     81  CB       -58.6390   81.3380    7.9660 C.3   160  SER160      0.2103
     82  OG       -59.9380   81.3040    7.4100 O.3   160  SER160     -0.2182
     83  N        -56.5970   81.3450   10.5520 N.am  161  LEU161     -0.1979
     84  CA       -55.1580   81.5630   10.6560 C.3   161  LEU161      0.1596
     85  C        -54.4030   80.4550   11.3810 C.2   161  LEU161      0.2287
     86  O        -53.2060   80.2720   11.1540 O.2   161  LEU161     -0.2864
     87  CB       -54.8750   82.9030   11.3480 C.3   161  LEU161      0.0297
     88  CG       -55.4100   84.1440   10.6130 C.3   161  LEU161      0.0022
     89  CD1      -54.9090   85.4110   11.2850 C.3   161  LEU161      0.0001
     90  CD2      -55.0350   84.1210    9.1250 C.3   161  LEU161      0.0001
     91  N        -53.9430   78.3710    8.2950 N.3   164  ALA164     -0.1231
     92  CA       -53.3320   79.0560    7.1580 C.3   164  ALA164      0.1694
     93  C        -51.8290   79.2600    7.3380 C.2   164  ALA164      0.2592
     94  O        -51.0690   79.2000    6.3660 O.2   164  ALA164     -0.2718
     95  CB       -54.0300   80.4140    6.9200 C.3   164  ALA164      0.0304
     96  N        -51.3900   79.4800    8.5780 N.am  165  PHE165     -0.1962
     97  CA       -49.9610   79.6830    8.8370 C.3   165  PHE165      0.1771
     98  C        -49.3020   78.4860    9.5080 C.2   165  PHE165      0.2619
     99  O        -48.2730   78.6040   10.1740 O.2   165  PHE165     -0.2715
    100  CB       -49.7570   80.9610    9.6560 C.3   165  PHE165      0.0574
    101  CG       -49.8670   82.1870    8.8120 C.ar  165  PHE165     -0.0200
    102  CD1      -51.0990   82.7790    8.5830 C.ar  165  PHE165     -0.0042
    103  CD2      -48.7480   82.6960    8.1710 C.ar  165  PHE165     -0.0042
    104  CE1      -51.2030   83.9010    7.7550 C.ar  165  PHE165     -0.0003
    105  CE2      -48.8440   83.8000    7.3460 C.ar  165  PHE165     -0.0003
    106  CZ       -50.0640   84.4040    7.1410 C.ar  165  PHE165     -0.0000
    107  N        -49.8880   77.3170    9.2910 N.am  166  MET166     -0.1977
    108  CA       -49.2150   76.0840    9.6510 C.3   166  MET166      0.1605
    109  C        -47.9180   75.8990    8.8560 C.2   166  MET166      0.2287
    110  O        -47.7800   76.3750    7.7220 O.2   166  MET166     -0.2864
    111  CB       -50.1310   74.8850    9.4330 C.3   166  MET166      0.0413
    112  CG       -51.0580   74.6040   10.6040 C.3   166  MET166      0.0598
    113  SD       -52.1820   73.2250   10.2790 S.3   166  MET166     -0.1393
    114  CE       -53.0360   73.1260   11.8680 C.3   166  MET166      0.0692
    115  N        -59.2150   79.1380    2.2850 N.3   179  TRP179     -0.1241
    116  CA       -58.7010   80.0650    1.2720 C.3   179  TRP179      0.1605
    117  C        -59.8280   80.4630    0.3190 C.2   179  TRP179      0.2264
    118  O        -60.0760   81.6530    0.0840 O.2   179  TRP179     -0.2867
    119  CB       -57.5270   79.4440    0.4870 C.3   179  TRP179      0.0550
    120  CG       -56.9880   80.3480   -0.6190 C.ar  179  TRP179      0.0003
    121  CD1      -57.3050   80.3050   -1.9630 C.ar  179  TRP179      0.0946
    122  CD2      -56.0710   81.4360   -0.4630 C.ar  179  TRP179      0.0152
    123  NE1      -56.6160   81.2890   -2.6440 N.ar  179  TRP179     -0.2442
    124  CE2      -55.8600   81.9990   -1.7470 C.ar  179  TRP179      0.0810
    125  CE3      -55.3970   81.9850    0.6340 C.ar  179  TRP179      0.0012
    126  CZ2      -55.0060   83.0750   -1.9560 C.ar  179  TRP179      0.0191
    127  CZ3      -54.5470   83.0580    0.4220 C.ar  179  TRP179      0.0001
    128  CH2      -54.3650   83.5970   -0.8600 C.ar  179  TRP179      0.0015
    129  N        -62.3620   82.5870    2.1070 N.3   182  ASP182     -0.1239
    130  CA       -61.8790   83.9100    2.4720 C.3   182  ASP182      0.1674
    131  C        -61.7190   84.7900    1.2420 C.2   182  ASP182      0.2266
    132  O        -62.0020   85.9900    1.2990 O.2   182  ASP182     -0.2867
    133  CB       -60.5480   83.8210    3.2300 C.3   182  ASP182      0.1410
    134  CG       -60.7180   83.2630    4.6270 C.2   182  ASP182      0.3668
    135  OD1      -61.8820   83.1640    5.0670 O.co2 182  ASP182     -0.2456
    136  OD2      -59.6950   82.9430    5.2880 O.co2 182  ASP182     -0.2456
    137  N        -56.8870   89.1670    1.4970 N.3   225  VAL225     -0.1231
    138  CA       -56.7210   87.9570    2.3010 C.3   225  VAL225      0.1692
    139  C        -55.3010   87.8670    2.8670 C.2   225  VAL225      0.2593
    140  O        -55.1170   87.6450    4.0630 O.2   225  VAL225     -0.2718
    141  CB       -57.0350   86.6900    1.4690 C.3   225  VAL225      0.0266
    142  CG1      -56.7720   85.4080    2.2840 C.3   225  VAL225      0.0020
    143  CG2      -58.4780   86.7220    0.9620 C.3   225  VAL225      0.0020
    144  N        -54.3010   88.0620    2.0120 N.am  226  THR226     -0.1939
    145  CA       -52.9180   87.8690    2.4240 C.3   226  THR226      0.2028
    146  C        -52.4500   88.9420    3.3970 C.2   226  THR226      0.2642
    147  O        -51.7190   88.6320    4.3390 O.2   226  THR226     -0.2714
    148  CB       -51.9620   87.8360    1.2220 C.3   226  THR226      0.1808
    149  OG1      -52.1890   88.9800    0.3990 O.3   226  THR226     -0.2208
    150  CG2      -52.1880   86.5750    0.3940 C.3   226  THR226      0.0379
    151  N        -52.8570   90.1940    3.1890 N.am  227  PHE227     -0.1973
    152  CA       -52.4000   91.2490    4.0880 C.3   227  PHE227      0.1639
    153  C        -53.1300   91.1550    5.4320 C.2   227  PHE227      0.2290
    154  O        -52.5420   91.4180    6.4770 O.2   227  PHE227     -0.2864
    155  CB       -52.5650   92.6390    3.4430 C.3   227  PHE227      0.0560
    156  CG       -51.3740   93.0520    2.6350 C.ar  227  PHE227     -0.0200
    157  CD1      -51.0620   92.3840    1.4620 C.ar  227  PHE227     -0.0042
    158  CD2      -50.5290   94.0600    3.0780 C.ar  227  PHE227     -0.0042
    159  CE1      -49.9470   92.7230    0.7240 C.ar  227  PHE227     -0.0003
    160  CE2      -49.4220   94.4230    2.3390 C.ar  227  PHE227     -0.0003
    161  CZ       -49.1230   93.7430    1.1590 C.ar  227  PHE227     -0.0000
    162  N        -54.1420   88.2620    6.7780 N.3   229  GLY229     -0.1210
    163  CA       -53.5560   87.0820    7.4050 C.3   229  GLY229      0.1956
    164  C        -52.1610   87.3580    7.9310 C.2   229  GLY229      0.2611
    165  O        -51.8800   87.1530    9.1060 O.2   229  GLY229     -0.2717
    166  N        -51.2880   87.8560    7.0620 N.am  230  ALA230     -0.1979
    167  CA       -49.9060   88.1280    7.4400 C.3   230  ALA230      0.1597
    168  C        -49.8180   89.1800    8.5430 C.2   230  ALA230      0.2287
    169  O        -49.0570   89.0370    9.5100 O.2   230  ALA230     -0.2864
    170  CB       -49.1060   88.5730    6.2230 C.3   230  ALA230      0.0319
    171  N        -45.8920   78.4980   11.6230 N.3   382  GLN382     -0.1245
    172  CA       -44.8970   79.4220   11.0930 C.3   382  GLN382      0.1566
    173  C        -44.5130   80.4910   12.1110 C.2   382  GLN382      0.2260
    174  O        -43.5750   81.2560   11.8950 O.2   382  GLN382     -0.2867
    175  CB       -45.4090   80.0880    9.8190 C.3   382  GLN382      0.0367
    176  CG       -45.4790   79.1340    8.6190 C.3   382  GLN382      0.0905
    177  CD       -46.0530   79.8130    7.3950 C.2   382  GLN382      0.2608
    178  OE1      -45.6750   80.9300    7.0630 O.2   382  GLN382     -0.2717
    179  NE2      -46.9990   79.1520    6.7400 N.am  382  GLN382     -0.0878
@<TRIPOS>BOND
     1    72    71    2
     2    47    48    1
     3    71    70    1
     4    64    63    2
     5    53    51    1
     6    48    51    1
     7    48    49    1
     8    61    62    1
     9    63    62    1
    10    63    69   am
    11    62    65    1
    12    54    49   am
    13    54    55    1
    14    70    69    1
    15    70    73    1
    16    51    52    1
    17    56    55    1
    18    56    57    2
    19    49    50    2
    20    31    30    1
    21    58    55    1
    22    58    59    1
    23    58    60    1
    24    67    66    2
    25   123   121   ar
    26   123   124   ar
    27    11     9    1
    28    73    74    1
    29    65    66    1
    30    43    42    2
    31    66    68   am
    32    42    41    1
    33   121   120   ar
    34   126   124   ar
    35   126   128   ar
    36    30    32    1
    37    30    29    1
    38   124   122   ar
    39     7     6    1
    40     7     8    1
    41     6     5    1
    42    76    75    1
    43     9     8    2
    44     9    10    1
    45    29    26    1
    46    74    75    1
    47   128   127   ar
    48    41    44    1
    49    41    40    1
    50    46    44    1
    51    44    45    1
    52   120   122   ar
    53   120   119    1
    54   122   125   ar
    55     1     2    1
    56   118   117    2
    57     5     2    1
    58    40    35   am
    59   117   116    1
    60     2     3    1
    61    26    25    1
    62    26    27    1
    63   150   148    1
    64   149   148    1
    65   127   125   ar
    66   119   116    1
    67    25    22   am
    68   159   161   ar
    69   159   157   ar
    70    28    27    2
    71    27    33   am
    72   143   141    1
    73   161   160   ar
    74    35    36    2
    75    35    34    1
    76   148   145    1
    77   131   132    2
    78   131   130    1
    79   116   115    1
    80   157   156   ar
    81   141   142    1
    82   141   138    1
    83   137   138    1
    84    33    34    1
    85     3     4    2
    86    22    21    1
    87    22    23    2
    88    34    37    1
    89    15    14    2
    90   144   145    1
    91   144   139   am
    92   129   130    1
    93    21    24    1
    94    21    20    1
    95   138   139    1
    96   160   158   ar
    97   145   146    1
    98   130   133    1
    99   156   158   ar
   100   156   155    1
   101   139   140    2
   102    14    20   am
   103    14    13    1
   104   151   146   am
   105   151   152    1
   106   133   134    1
   107   146   147    2
   108   155   152    1
   109    37    38    1
   110    37    39    1
   111    12    13    1
   112    18    17    2
   113   152   153    1
   114    13    16    1
   115   134   135   ar
   116   134   136   ar
   117    17    16    1
   118    17    19   am
   119   153   154    2
   120   170   167    1
   121    94    93    2
   122   179   177   am
   123   162   163    1
   124    95    92    1
   125   166   167    1
   126   166   164   am
   127   178   177    2
   128   106   105   ar
   129   106   104   ar
   130    92    93    1
   131    92    91    1
   132    93    96   am
   133   105   103   ar
   134   177   176    1
   135   163   164    1
   136    82    81    1
   137   167   168    1
   138   110   109    2
   139   104   102   ar
   140   164   165    2
   141    81    78    1
   142   103   101   ar
   143   168   169    2
   144    96    97    1
   145   102   101   ar
   146   176   175    1
   147   101   100    1
   148    97    98    1
   149    97   100    1
   150   109   108    1
   151    90    88    1
   152    80    79    2
   153   107    98   am
   154   107   108    1
   155    78    79    1
   156    78    77    1
   157   111   108    1
   158   111   112    1
   159    98    99    2
   160    79    83   am
   161   175   172    1
   162   113   112    1
   163   113   114    1
   164    83    84    1
   165    88    89    1
   166    88    87    1
   167    84    87    1
   168    84    85    1
   169   172   171    1
   170   172   173    1
   171    86    85    2
   172   174   173    2
