@<TRIPOS>MOLECULE
tmp/5ibhA01.pdb
 68 65 0 0 0
SMALL
GASTEIGER

@<TRIPOS>ATOM
      1  N        -39.0790   81.7780   -6.4640 N.3    61  GLU61      -0.1245
      2  CA       -38.7620   80.4450   -6.9640 C.3    61  GLU61       0.1567
      3  C        -38.8120   79.3300   -5.8980 C.2    61  GLU61       0.2260
      4  O        -38.7370   78.1560   -6.2550 O.2    61  GLU61      -0.2867
      5  CB       -37.3820   80.4370   -7.6390 C.3    61  GLU61       0.0388
      6  CG       -37.2260   81.4030   -8.8280 C.3    61  GLU61       0.1160
      7  CD       -38.2070   81.1480   -9.9780 C.2    61  GLU61       0.3649
      8  OE1      -38.3190   82.0210  -10.8570 O.co2  61  GLU61      -0.2457
      9  OE2      -38.8640   80.0890  -10.0170 O.co2  61  GLU61      -0.2457
     10  N        -41.4370   76.9180   -6.9350 N.3    64  ALA64      -0.1231
     11  CA       -41.3150   76.1640   -8.1830 C.3    64  ALA64       0.1694
     12  C        -41.5730   74.6590   -7.9800 C.2    64  ALA64       0.2592
     13  O        -41.2440   74.0930   -6.9290 O.2    64  ALA64      -0.2718
     14  CB       -39.9350   76.3870   -8.7910 C.3    64  ALA64       0.0304
     15  N        -42.1520   74.0180   -8.9920 N.am   65  ALA65      -0.1966
     16  CA       -42.4340   72.5870   -8.9280 C.3    65  ALA65       0.1728
     17  C        -41.1420   71.7830   -8.8010 C.2    65  ALA65       0.2617
     18  O        -40.2020   71.9810   -9.5700 O.2    65  ALA65      -0.2715
     19  CB       -43.2250   72.1460  -10.1700 C.3    65  ALA65       0.0334
     20  N        -41.0840   70.8820   -7.8250 N.am   66  GLY66      -0.1940
     21  CA       -39.9190   70.0230   -7.6760 C.3    66  GLY66       0.2014
     22  C        -38.7790   70.6080   -6.8500 C.2    66  GLY66       0.2639
     23  O        -37.7500   69.9560   -6.6500 O.2    66  GLY66      -0.2714
     24  N        -38.9550   71.8360   -6.3730 N.am   67  ALA67      -0.1963
     25  CA       -37.9600   72.4750   -5.5120 C.3    67  ALA67       0.1713
     26  C        -37.8950   71.8000   -4.1310 C.2    67  ALA67       0.2458
     27  O        -38.8910   71.2760   -3.6480 O.2    67  ALA67      -0.2730
     28  CB       -38.2780   73.9620   -5.3560 C.3    67  ALA67       0.0333
     29  N        -36.7190   71.8090   -3.4920 N.am   68  PRO68      -0.2727
     30  CA       -36.7080   71.3920   -2.0860 C.3    68  PRO68       0.1402
     31  C        -37.5260   72.3790   -1.2590 C.2    68  PRO68       0.2269
     32  O        -37.3900   73.5940   -1.4810 O.2    68  PRO68      -0.2865
     33  CB       -35.2220   71.4320   -1.7120 C.3    68  PRO68       0.0296
     34  CG       -34.5950   72.3630   -2.7190 C.3    68  PRO68       0.0237
     35  CD       -35.3720   72.1520   -3.9870 C.3    68  PRO68       0.0939
     36  N        -34.6190   80.2830   -2.6370 N.3   284  LEU284     -0.1231
     37  CA       -34.0190   79.3300   -3.5580 C.3   284  LEU284      0.1693
     38  C        -32.8580   79.9510   -4.3370 C.2   284  LEU284      0.2592
     39  O        -33.0030   81.0240   -4.9370 O.2   284  LEU284     -0.2718
     40  CB       -35.0760   78.8200   -4.5280 C.3   284  LEU284      0.0284
     41  CG       -34.6360   77.5100   -5.1730 C.3   284  LEU284      0.0019
     42  CD1      -35.1200   76.3610   -4.3150 C.3   284  LEU284      0.0001
     43  CD2      -35.1300   77.4280   -6.6060 C.3   284  LEU284      0.0001
     44  N        -31.7080   79.2850   -4.3350 N.am  285  ALA285     -0.1966
     45  CA       -30.5600   79.7620   -5.1070 C.3   285  ALA285      0.1728
     46  C        -30.8370   79.6160   -6.5960 C.2   285  ALA285      0.2616
     47  O        -31.1310   78.5140   -7.0730 O.2   285  ALA285     -0.2715
     48  CB       -29.3010   78.9960   -4.7290 C.3   285  ALA285      0.0334
     49  N        -30.7440   80.7140   -7.3390 N.am  286  THR286     -0.1951
     50  CA       -30.9780   80.6380   -8.7740 C.3   286  THR286      0.1897
     51  C        -29.6660   80.7080   -9.5370 C.2   286  THR286      0.2313
     52  O        -29.6540   80.8410  -10.7590 O.2   286  THR286     -0.2863
     53  CB       -31.8920   81.7430   -9.2540 C.3   286  THR286      0.1794
     54  OG1      -31.2650   83.0080   -9.0210 O.3   286  THR286     -0.2208
     55  CG2      -33.2110   81.6750   -8.5040 C.3   286  THR286      0.0378
     56  N        -27.1440   76.2010   -7.6170 N.3   298  LYS298     -0.1231
     57  CA       -28.4140   76.5340   -8.2320 C.3   298  LYS298      0.1693
     58  C        -29.4380   75.4350   -7.9330 C.2   298  LYS298      0.2592
     59  O        -29.1420   74.2460   -8.0740 O.2   298  LYS298     -0.2718
     60  CB       -28.2360   76.7090   -9.7430 C.3   298  LYS298      0.0285
     61  CG       -29.4410   77.2480  -10.4660 C.3   298  LYS298      0.0035
     62  CD       -29.1640   77.3290  -11.9650 C.3   298  LYS298      0.0206
     63  CE       -30.3640   77.8730  -12.7130 C.3   298  LYS298      0.1093
     64  NZ       -30.1030   77.9590  -14.1740 N.3   298  LYS298     -0.1314
     65  N        -30.6290   75.8390   -7.5010 N.am  299  GLY299     -0.1957
     66  CA       -31.6860   74.8870   -7.1750 C.3   299  GLY299      0.1869
     67  C        -31.7730   74.4780   -5.7090 C.2   299  GLY299      0.2309
     68  O        -32.7160   73.7840   -5.3090 O.2   299  GLY299     -0.2863
@<TRIPOS>BOND
     1    64    63    1
     2    63    62    1
     3    62    61    1
     4     8     7   ar
     5    52    51    2
     6    61    60    1
     7    19    16    1
     8     9     7   ar
     9     7     6    1
    10    60    57    1
    11    18    17    2
    12    51    50    1
    13    53    54    1
    14    53    50    1
    15    53    55    1
    16    15    16    1
    17    15    12   am
    18    16    17    1
    19     6     5    1
    20    17    20   am
    21    14    11    1
    22    50    49    1
    23    57    58    1
    24    57    56    1
    25    11    12    1
    26    11    10    1
    27    59    58    2
    28    12    13    2
    29    58    65   am
    30    20    21    1
    31    21    22    1
    32     5     2    1
    33    65    66    1
    34    49    46   am
    35    66    67    1
    36    47    46    2
    37     2     1    1
    38     2     3    1
    39    22    23    2
    40    22    24   am
    41    43    41    1
    42    46    45    1
    43    24    25    1
    44     4     3    2
    45    67    68    2
    46    25    28    1
    47    25    26    1
    48    41    40    1
    49    41    42    1
    50    45    48    1
    51    45    44    1
    52    39    38    2
    53    40    37    1
    54    38    44   am
    55    38    37    1
    56    26    27    2
    57    26    29   am
    58    35    29    1
    59    35    34    1
    60    37    36    1
    61    29    30    1
    62    34    33    1
    63    30    33    1
    64    30    31    1
    65    32    31    2
