@<TRIPOS>MOLECULE
tmp/5ibiA00.pdb
 198 188 0 0 0
SMALL
GASTEIGER

@<TRIPOS>ATOM
      1  N          1.1740   17.6330   -3.5310 N.3    59  MET59      -0.1245
      2  CA        -0.0480   17.2540   -2.8290 C.3    59  MET59       0.1570
      3  C         -0.9980   16.5650   -3.7980 C.2    59  MET59       0.2261
      4  O         -1.5420   15.5040   -3.4980 O.2    59  MET59      -0.2867
      5  CB        -0.7300   18.4740   -2.2020 C.3    59  MET59       0.0387
      6  CG        -2.1540   18.1930   -1.7260 C.3    59  MET59       0.0595
      7  SD        -3.0360   19.6310   -1.0810 S.3    59  MET59      -0.1393
      8  CE        -2.0540   20.0100    0.3660 C.3    59  MET59       0.0692
      9  N         -0.6730   12.9030   -4.7840 N.3    62  THR62      -0.1218
     10  CA        -0.9730   11.9250   -3.7490 C.3    62  THR62       0.1862
     11  C         -2.2900   11.2370   -4.0870 C.2    62  THR62       0.2287
     12  O         -2.5600   10.1320   -3.6150 O.2    62  THR62      -0.2866
     13  CB        -1.0600   12.5540   -2.3420 C.3    62  THR62       0.1770
     14  OG1       -2.0800   13.5600   -2.3220 O.3    62  THR62      -0.2211
     15  CG2        0.2720   13.1780   -1.9510 C.3    62  THR62       0.0375
     16  N         -0.0840    5.0070   -0.4220 N.3    69  ARG69      -0.1245
     17  CA        -1.0080    5.8520    0.3230 C.3    69  ARG69       0.1563
     18  C         -0.7630    5.9060    1.8270 C.2    69  ARG69       0.2260
     19  O         -0.4880    4.8900    2.4640 O.2    69  ARG69      -0.2867
     20  CB        -2.4440    5.3900    0.0720 C.3    69  ARG69       0.0307
     21  CG        -2.8420    5.3730   -1.3900 C.3    69  ARG69       0.0489
     22  CD        -4.3380    5.5720   -1.5310 C.3    69  ARG69       0.2205
     23  NE        -4.7320    6.8640   -0.9820 N.pl3  69  ARG69      -0.0865
     24  CZ        -4.6040    8.0200   -1.6240 C.cat  69  ARG69       0.5346
     25  NH1       -4.9800    9.1480   -1.0390 N.pl3  69  ARG69       0.1354
     26  NH2       -4.1000    8.0480   -2.8510 N.pl3  69  ARG69       0.1354
     27  N         -3.3220    6.9900    3.6890 N.3    71  ASN71      -0.1225
     28  CA        -4.6450    6.5180    4.0760 C.3    71  ASN71       0.1785
     29  C         -5.5930    6.5690    2.8830 C.2    71  ASN71       0.2597
     30  O         -5.2280    7.0740    1.8200 O.2    71  ASN71      -0.2718
     31  CB        -5.2020    7.3440    5.2430 C.3    71  ASN71       0.1169
     32  CG        -5.1870    8.8430    4.9710 C.2    71  ASN71       0.2627
     33  OD1       -5.3880    9.2880    3.8410 O.2    71  ASN71      -0.2716
     34  ND2       -4.9520    9.6280    6.0170 N.am   71  ASN71      -0.0877
     35  N         -6.8020    6.0450    3.0530 N.am   72  ALA72      -0.1966
     36  CA        -7.7630    6.0130    1.9580 C.3    72  ALA72       0.1728
     37  C         -8.3770    7.3960    1.7660 C.2    72  ALA72       0.2616
     38  O         -8.5720    8.1380    2.7290 O.2    72  ALA72      -0.2715
     39  CB        -8.8420    4.9800    2.2220 C.3    72  ALA72       0.0334
     40  N         -8.6710    7.7400    0.5160 N.am   73  LEU73      -0.1963
     41  CA        -9.4210    8.9500    0.2010 C.3    73  LEU73       0.1728
     42  C        -10.8180    8.9850    0.8200 C.2    73  LEU73       0.2617
     43  O        -11.5490    7.9960    0.7920 O.2    73  LEU73      -0.2715
     44  CB        -9.5260    9.1120   -1.3160 C.3    73  LEU73       0.0311
     45  CG        -8.2160    9.4860   -2.0120 C.3    73  LEU73       0.0022
     46  CD1       -8.3440    9.3600   -3.5210 C.3    73  LEU73       0.0001
     47  CD2       -7.7900   10.8900   -1.6210 C.3    73  LEU73       0.0001
     48  N        -11.1770   10.1380    1.3760 N.am   74  THR74      -0.1937
     49  CA       -12.5270   10.3820    1.8770 C.3    74  THR74       0.2028
     50  C        -13.2450   11.4280    1.0230 C.2    74  THR74       0.2642
     51  O        -14.3210   11.9040    1.3840 O.2    74  THR74      -0.2714
     52  CB       -12.5170   10.8310    3.3530 C.3    74  THR74       0.1808
     53  OG1      -11.8170   12.0750    3.4800 O.3    74  THR74      -0.2208
     54  CG2      -11.8350    9.7830    4.2220 C.3    74  THR74       0.0379
     55  N        -12.6360   11.7840   -0.1060 N.am   75  VAL75      -0.1977
     56  CA       -13.2030   12.7600   -1.0340 C.3    75  VAL75       0.1596
     57  C        -12.9530   12.3000   -2.4700 C.2    75  VAL75       0.2287
     58  O        -12.1320   11.4100   -2.6910 O.2    75  VAL75      -0.2864
     59  CB       -12.5690   14.1620   -0.8360 C.3    75  VAL75       0.0276
     60  CG1      -12.9590   14.7530    0.5100 C.3    75  VAL75       0.0022
     61  CG2      -11.0550   14.0810   -0.9610 C.3    75  VAL75       0.0022
     62  N        -10.7460   16.6460   -5.5340 N.3    79  VAL79      -0.1231
     63  CA       -10.8980   17.4920   -4.3630 C.3    79  VAL79       0.1692
     64  C         -9.5320   17.6160   -3.6930 C.2    79  VAL79       0.2591
     65  O         -9.2650   18.5820   -2.9850 O.2    79  VAL79      -0.2718
     66  CB       -11.9680   16.9390   -3.3990 C.3    79  VAL79       0.0266
     67  CG1      -12.0660   17.7910   -2.1440 C.3    79  VAL79       0.0020
     68  CG2      -13.3190   16.9100   -4.0970 C.3    79  VAL79       0.0020
     69  N         -8.6500   16.6540   -3.9490 N.am   80  VAL80      -0.1980
     70  CA        -7.3130   16.7140   -3.3650 C.3    80  VAL80       0.1595
     71  C         -6.6320   17.9950   -3.8700 C.2    80  VAL80       0.2287
     72  O         -5.8600   18.6270   -3.1480 O.2    80  VAL80      -0.2864
     73  CB        -6.4760   15.4670   -3.6920 C.3    80  VAL80       0.0276
     74  CG1       -5.0270   15.6620   -3.2680 C.3    80  VAL80       0.0022
     75  CG2       -7.0650   14.2580   -2.9860 C.3    80  VAL80       0.0022
     76  N         -8.1070   20.8200   -4.4610 N.3    82  ASN82      -0.1225
     77  CA        -9.1960   21.7750   -4.2640 C.3    82  ASN82       0.1785
     78  C         -8.7740   23.2290   -4.3940 C.2    82  ASN82       0.2597
     79  O         -9.3440   23.9670   -5.2080 O.2    82  ASN82      -0.2718
     80  CB        -9.8210   21.5550   -2.8820 C.3    82  ASN82       0.1169
     81  CG       -11.1270   22.2970   -2.7000 C.2    82  ASN82       0.2627
     82  OD1      -12.1490   21.9280   -3.2780 O.2    82  ASN82      -0.2716
     83  ND2      -11.1070   23.3380   -1.8760 N.am   82  ASN82      -0.0877
     84  N         -7.7060   23.6130   -3.7080 N.am   83  MET83      -0.1979
     85  CA        -7.2670   24.9970   -3.7700 C.3    83  MET83       0.1605
     86  C         -6.8270   25.3190   -5.1820 C.2    83  MET83       0.2287
     87  O         -7.1950   26.3630   -5.7380 O.2    83  MET83      -0.2864
     88  CB        -6.1200   25.2520   -2.7830 C.3    83  MET83       0.0413
     89  CG        -6.5400   25.6980   -1.3800 C.3    83  MET83       0.0598
     90  SD        -7.4430   27.2580   -1.1750 S.3    83  MET83      -0.1393
     91  CE        -7.0250   28.1870   -2.6540 C.3    83  MET83       0.0692
     92  N        -21.1940   14.9920   10.1720 N.3   160  SER160     -0.1202
     93  CA       -20.4330   14.2470    9.1710 C.3   160  SER160      0.2020
     94  C        -18.9460   14.0790    9.5230 C.2   160  SER160      0.2618
     95  O        -18.3060   13.0710    9.1600 O.2   160  SER160     -0.2717
     96  CB       -20.5540   14.9310    7.8080 C.3   160  SER160      0.2103
     97  OG       -21.8580   14.7830    7.2780 O.3   160  SER160     -0.2182
     98  N        -18.4280   14.9750   10.3560 N.am  161  LEU161     -0.1979
     99  CA       -16.9790   15.1220   10.3990 C.3   161  LEU161      0.1596
    100  C        -16.2290   14.0060   11.1090 C.2   161  LEU161      0.2287
    101  O        -15.1450   13.6200   10.6530 O.2   161  LEU161     -0.2864
    102  CB       -16.6340   16.4570   11.0600 C.3   161  LEU161      0.0297
    103  CG       -17.2170   17.6820   10.3530 C.3   161  LEU161      0.0022
    104  CD1      -16.7170   18.9680   10.9900 C.3   161  LEU161      0.0001
    105  CD2      -16.8860   17.6480    8.8690 C.3   161  LEU161      0.0001
    106  N        -15.9010   12.0450    8.2320 N.3   164  ALA164     -0.1231
    107  CA       -15.2810   12.7330    7.1010 C.3   164  ALA164      0.1694
    108  C        -13.7620   12.8250    7.2000 C.2   164  ALA164      0.2592
    109  O        -13.0590   12.7570    6.1900 O.2   164  ALA164     -0.2718
    110  CB       -15.8730   14.1240    6.9660 C.3   164  ALA164      0.0304
    111  N        -13.2580   12.9790    8.4150 N.am  165  PHE165     -0.1976
    112  CA       -11.8300   13.1450    8.6160 C.3   165  PHE165      0.1639
    113  C        -11.2010   11.9120    9.2630 C.2   165  PHE165      0.2290
    114  O        -10.1870   12.0240    9.9500 O.2   165  PHE165     -0.2864
    115  CB       -11.5640   14.4100    9.4360 C.3   165  PHE165      0.0560
    116  CG       -11.7350   15.6810    8.6430 C.ar  165  PHE165     -0.0200
    117  CD1      -12.9620   16.3200    8.5780 C.ar  165  PHE165     -0.0042
    118  CD2      -10.6670   16.2290    7.9540 C.ar  165  PHE165     -0.0042
    119  CE1      -13.1150   17.4810    7.8390 C.ar  165  PHE165     -0.0003
    120  CE2      -10.8130   17.3880    7.2150 C.ar  165  PHE165     -0.0003
    121  CZ       -12.0370   18.0150    7.1580 C.ar  165  PHE165     -0.0000
    122  N        -18.6250    7.7850    4.4130 N.3   175  ALA175     -0.1245
    123  CA       -17.9750    9.0240    4.0180 C.3   175  ALA175      0.1562
    124  C        -18.5550    9.5110    2.6980 C.2   175  ALA175      0.2260
    125  O        -18.7880   10.7040    2.5120 O.2   175  ALA175     -0.2867
    126  CB       -16.4710    8.8340    3.9070 C.3   175  ALA175      0.0290
    127  N        -20.8890   12.6670    2.1320 N.3   179  TRP179     -0.1241
    128  CA       -20.3750   13.6210    1.1640 C.3   179  TRP179      0.1605
    129  C        -21.4500   14.0100    0.1630 C.2   179  TRP179      0.2264
    130  O        -21.6960   15.2000   -0.0490 O.2   179  TRP179     -0.2867
    131  CB       -19.1710   13.0390    0.4180 C.3   179  TRP179      0.0550
    132  CG       -18.6450   13.9290   -0.6760 C.ar  179  TRP179      0.0003
    133  CD1      -18.9410   13.8330   -2.0080 C.ar  179  TRP179      0.0946
    134  CD2      -17.7610   15.0480   -0.5440 C.ar  179  TRP179      0.0152
    135  NE1      -18.2900   14.8120   -2.7120 N.ar  179  TRP179     -0.2442
    136  CE2      -17.5590   15.5740   -1.8380 C.ar  179  TRP179      0.0810
    137  CE3      -17.1180   15.6540    0.5370 C.ar  179  TRP179      0.0012
    138  CZ2      -16.7420   16.6750   -2.0780 C.ar  179  TRP179      0.0191
    139  CZ3      -16.3060   16.7490    0.2960 C.ar  179  TRP179      0.0001
    140  CH2      -16.1260   17.2480   -1.0000 C.ar  179  TRP179      0.0015
    141  N        -24.1630   16.2000    1.8560 N.3   182  ASP182     -0.1239
    142  CA       -23.7230   17.5540    2.2120 C.3   182  ASP182      0.1674
    143  C        -23.5490   18.4000    0.9610 C.2   182  ASP182      0.2266
    144  O        -23.8170   19.6060    0.9610 O.2   182  ASP182     -0.2867
    145  CB       -22.3990   17.5390    2.9850 C.3   182  ASP182      0.1410
    146  CG       -22.5220   16.9110    4.3440 C.2   182  ASP182      0.3668
    147  OD1      -23.6600   16.7960    4.8190 O.co2 182  ASP182     -0.2456
    148  OD2      -21.4900   16.5400    4.9400 O.co2 182  ASP182     -0.2456
    149  N        -18.5600   22.7390    1.2540 N.3   225  VAL225     -0.1231
    150  CA       -18.4370   21.5510    2.0970 C.3   225  VAL225      0.1692
    151  C        -17.0270   21.3700    2.6750 C.2   225  VAL225      0.2593
    152  O        -16.8600   21.1230    3.8800 O.2   225  VAL225     -0.2718
    153  CB       -18.7990   20.2710    1.3030 C.3   225  VAL225      0.0266
    154  CG1      -18.6470   19.0490    2.1680 C.3   225  VAL225      0.0020
    155  CG2      -20.2090   20.3470    0.7620 C.3   225  VAL225      0.0020
    156  N        -16.0180   21.5580    1.8280 N.am  226  THR226     -0.1939
    157  CA       -14.6280   21.3650    2.2320 C.3   226  THR226      0.2028
    158  C        -14.1670   22.4180    3.2310 C.2   226  THR226      0.2642
    159  O        -13.4650   22.1050    4.1920 O.2   226  THR226     -0.2714
    160  CB       -13.6720   21.3710    1.0230 C.3   226  THR226      0.1808
    161  OG1      -13.8310   22.5890    0.2870 O.3   226  THR226     -0.2208
    162  CG2      -13.9600   20.1940    0.1130 C.3   226  THR226      0.0379
    163  N        -14.5590   23.6690    3.0070 N.am  227  PHE227     -0.1973
    164  CA       -14.1180   24.7360    3.8940 C.3   227  PHE227      0.1639
    165  C        -14.8450   24.6440    5.2330 C.2   227  PHE227      0.2290
    166  O        -14.2320   24.8610    6.2910 O.2   227  PHE227     -0.2864
    167  CB       -14.2990   26.1050    3.2430 C.3   227  PHE227      0.0560
    168  CG       -13.1180   26.5220    2.4110 C.ar  227  PHE227     -0.0200
    169  CD1      -12.7840   25.8160    1.2650 C.ar  227  PHE227     -0.0042
    170  CD2      -12.3120   27.5790    2.7990 C.ar  227  PHE227     -0.0042
    171  CE1      -11.6880   26.1790    0.5010 C.ar  227  PHE227     -0.0003
    172  CE2      -11.2100   27.9460    2.0400 C.ar  227  PHE227     -0.0003
    173  CZ       -10.8990   27.2440    0.8890 C.ar  227  PHE227     -0.0000
    174  N        -15.9090   21.7820    6.5830 N.3   229  GLY229     -0.1210
    175  CA       -15.3480   20.6320    7.2740 C.3   229  GLY229      0.1956
    176  C        -13.9480   20.8640    7.8220 C.2   229  GLY229      0.2611
    177  O        -13.6900   20.6500    9.0190 O.2   229  GLY229     -0.2717
    178  N        -13.0510   21.3350    6.9620 N.am  230  ALA230     -0.1979
    179  CA       -11.6670   21.5520    7.3620 C.3   230  ALA230      0.1597
    180  C        -11.5810   22.6360    8.4280 C.2   230  ALA230      0.2287
    181  O        -10.8580   22.4880    9.4240 O.2   230  ALA230     -0.2864
    182  CB       -10.8170   21.9260    6.1560 C.3   230  ALA230      0.0319
    183  N          1.0980   14.6020    3.7290 N.3   282  PRO282     -0.2116
    184  CA         1.5890   13.7490    2.6430 C.3   282  PRO282      0.1372
    185  C          1.9310   14.5190    1.3670 C.2   282  PRO282      0.2244
    186  O          1.2560   15.4840    1.0150 O.2   282  PRO282     -0.2868
    187  CB         0.4150   12.7970    2.3920 C.3   282  PRO282      0.0268
    188  CG        -0.7940   13.5670    2.8190 C.3   282  PRO282      0.0207
    189  CD        -0.3640   14.5300    3.8940 C.3   282  PRO282      0.0892
    190  N         -7.6960   12.0520   11.5360 N.3   382  GLN382     -0.1245
    191  CA        -6.7530   13.0350   10.9890 C.3   382  GLN382      0.1566
    192  C         -6.3980   14.0800   12.0000 C.2   382  GLN382      0.2260
    193  O         -5.4590   14.8550   11.8130 O.2   382  GLN382     -0.2867
    194  CB        -7.3720   13.6940    9.7550 C.3   382  GLN382      0.0367
    195  CG        -6.7990   13.1660    8.4490 C.3   382  GLN382      0.0905
    196  CD        -7.4700   13.7380    7.2040 C.2   382  GLN382      0.2608
    197  OE1       -8.3980   14.5290    7.2990 O.2   382  GLN382     -0.2717
    198  NE2       -6.9600   13.3860    6.0410 N.am  382  GLN382     -0.0878
@<TRIPOS>BOND
     1    87    86    2
     2    62    63    1
     3    79    78    2
     4    86    85    1
     5     9    10    1
     6    76    77    1
     7    78    77    1
     8    78    84   am
     9    63    64    1
    10    63    66    1
    11    77    80    1
    12    68    66    1
    13    11    10    1
    14    11    12    2
    15    69    64   am
    16    69    70    1
    17    71    70    1
    18    71    72    2
    19     3     4    2
    20     3     2    1
    21    85    84    1
    22    85    88    1
    23    10    13    1
    24    64    65    2
    25    73    70    1
    26    73    74    1
    27    73    75    1
    28     1     2    1
    29    46    45    1
    30    66    67    1
    31    82    81    2
    32    80    81    1
    33    26    24    1
    34     2     5    1
    35    88    89    1
    36   135   133   ar
    37   135   136   ar
    38    81    83   am
    39    58    57    2
    40    91    90    1
    41    57    56    1
    42    13    14    1
    43    13    15    1
    44     5     6    1
    45   138   136   ar
    46   138   140   ar
    47    45    47    1
    48    45    44    1
    49   133   132   ar
    50   136   134   ar
    51     6     7    1
    52    24    25    1
    53    24    23    2
    54    22    21    1
    55    22    23    1
    56    21    20    1
    57    89    90    1
    58    44    41    1
    59     7     8    1
    60    56    59    1
    61    56    55    1
    62   140   139   ar
    63    61    59    1
    64    59    60    1
    65   132   134   ar
    66   132   131    1
    67   134   137   ar
    68    16    17    1
    69    55    50   am
    70   130   129    2
    71    20    17    1
    72   162   160    1
    73   129   128    1
    74    41    40    1
    75    41    42    1
    76   161   160    1
    77   139   137   ar
    78    17    18    1
    79   131   128    1
    80   171   173   ar
    81   171   169   ar
    82    40    37   am
    83   155   153    1
    84    43    42    2
    85    42    48   am
    86   173   172   ar
    87   144   143    2
    88   143   142    1
    89   186   185    2
    90    50    51    2
    91    50    49    1
    92   160   157    1
    93   128   127    1
    94   149   150    1
    95   169   168   ar
    96   153   150    1
    97   153   154    1
    98   185   184    1
    99    48    49    1
   100    37    36    1
   101    37    38    2
   102    30    29    2
   103    18    19    2
   104   156   157    1
   105   156   151   am
   106   141   142    1
   107    49    52    1
   108    36    39    1
   109    36    35    1
   110   172   170   ar
   111   150   151    1
   112   142   145    1
   113   157   158    1
   114   187   184    1
   115   187   188    1
   116   168   170   ar
   117   168   167    1
   118   125   124    2
   119   184   183    1
   120   151   152    2
   121   124   123    1
   122   188   189    1
   123    29    35   am
   124    29    28    1
   125   145   146    1
   126   163   158   am
   127   163   164    1
   128   158   159    2
   129   167   164    1
   130    52    53    1
   131    52    54    1
   132    27    28    1
   133   183   189    1
   134    33    32    2
   135   164   165    1
   136   126   123    1
   137   123   122    1
   138    28    31    1
   139   146   147   ar
   140   146   148   ar
   141    32    31    1
   142    32    34   am
   143   165   166    2
   144   198   196   am
   145   182   179    1
   146   109   108    2
   147   174   175    1
   148   178   179    1
   149   178   176   am
   150   110   107    1
   151   107   108    1
   152   107   106    1
   153   121   120   ar
   154   121   119   ar
   155   108   111   am
   156   196   197    2
   157   196   195    1
   158   120   118   ar
   159   175   176    1
   160    97    96    1
   161   179   180    1
   162    96    93    1
   163   176   177    2
   164   119   117   ar
   165   118   116   ar
   166   111   112    1
   167   180   181    2
   168   195   194    1
   169   117   116   ar
   170   112   113    1
   171   112   115    1
   172   116   115    1
   173   105   103    1
   174    95    94    2
   175    93    94    1
   176    93    92    1
   177   113   114    2
   178    94    98   am
   179   194   191    1
   180   103   104    1
   181   103   102    1
   182    98    99    1
   183    99   102    1
   184    99   100    1
   185   101   100    2
   186   191   190    1
   187   191   192    1
   188   193   192    2
