@<TRIPOS>MOLECULE
tmp/5ibjA01.pdb
 159 151 0 0 0
SMALL
GASTEIGER

@<TRIPOS>ATOM
      1  N          1.4080   17.6000   -3.6090 N.3    59  MET59      -0.1245
      2  CA         0.2110   17.1350   -2.9220 C.3    59  MET59       0.1570
      3  C         -0.8140   16.5970   -3.9110 C.2    59  MET59       0.2261
      4  O         -1.4420   15.5610   -3.6590 O.2    59  MET59      -0.2867
      5  CB        -0.4080   18.2600   -2.0960 C.3    59  MET59       0.0387
      6  CG        -1.7850   17.8960   -1.5560 C.3    59  MET59       0.0595
      7  SD        -2.7710   19.3260   -1.0780 S.3    59  MET59      -0.1393
      8  CE        -1.8860   19.8450    0.3890 C.3    59  MET59       0.0692
      9  N        -10.8990    9.8810    1.3220 N.3    74  THR74      -0.1203
     10  CA       -12.2570   10.1360    1.8020 C.3    74  THR74       0.1994
     11  C        -12.9710   11.2000    0.9800 C.2    74  THR74       0.2617
     12  O        -14.0790   11.6100    1.3440 O.2    74  THR74      -0.2717
     13  CB       -12.2580   10.5630    3.2810 C.3    74  THR74       0.1784
     14  OG1      -11.4160   11.7100    3.4670 O.3    74  THR74      -0.2211
     15  CG2      -11.7890    9.4300    4.1820 C.3    74  THR74       0.0376
     16  N        -12.3560   11.6620   -0.1040 N.am   75  VAL75      -0.1979
     17  CA       -12.9310   12.6680   -0.9940 C.3    75  VAL75       0.1595
     18  C        -12.7350   12.1970   -2.4230 C.2    75  VAL75       0.2287
     19  O        -11.8920   11.3230   -2.6910 O.2    75  VAL75      -0.2864
     20  CB       -12.2820   14.0570   -0.7790 C.3    75  VAL75       0.0276
     21  CG1      -12.6890   14.6300    0.5560 C.3    75  VAL75       0.0022
     22  CG2      -10.7650   13.9600   -0.8820 C.3    75  VAL75       0.0022
     23  N        -10.7230   16.5190   -5.5600 N.3    79  VAL79      -0.1231
     24  CA       -10.8400   17.4300   -4.4270 C.3    79  VAL79       0.1692
     25  C         -9.5350   17.5010   -3.6380 C.2    79  VAL79       0.2591
     26  O         -9.3430   18.4200   -2.8350 O.2    79  VAL79      -0.2718
     27  CB       -12.0360   17.0000   -3.5540 C.3    79  VAL79       0.0266
     28  CG1      -12.2630   17.9650   -2.3990 C.3    79  VAL79       0.0020
     29  CG2      -13.2920   16.9010   -4.4080 C.3    79  VAL79       0.0020
     30  N         -8.6200   16.5550   -3.8560 N.am   80  VAL80      -0.1980
     31  CA        -7.3010   16.6490   -3.2400 C.3    80  VAL80       0.1595
     32  C         -6.5870   17.9070   -3.7160 C.2    80  VAL80       0.2287
     33  O         -5.8580   18.5530   -2.9550 O.2    80  VAL80      -0.2864
     34  CB        -6.4850   15.3790   -3.5470 C.3    80  VAL80       0.0276
     35  CG1       -5.1130   15.4450   -2.8910 C.3    80  VAL80       0.0022
     36  CG2       -7.2460   14.1430   -3.0930 C.3    80  VAL80       0.0022
     37  N         -7.8320   20.7680   -4.1490 N.3    82  ASN82      -0.1225
     38  CA        -8.9520   21.6790   -3.9270 C.3    82  ASN82       0.1785
     39  C         -8.5470   23.1290   -4.1750 C.2    82  ASN82       0.2597
     40  O         -9.2030   23.8450   -4.9400 O.2    82  ASN82      -0.2718
     41  CB        -9.4970   21.4950   -2.5090 C.3    82  ASN82       0.1169
     42  CG       -10.6020   22.4780   -2.1720 C.2    82  ASN82       0.2627
     43  OD1      -10.4330   23.3430   -1.3110 O.2    82  ASN82      -0.2716
     44  ND2      -11.7370   22.3580   -2.8560 N.am   82  ASN82      -0.0877
     45  N         -7.4530   23.5760   -3.5530 N.am   83  MET83      -0.1979
     46  CA        -7.0510   24.9710   -3.7040 C.3    83  MET83       0.1605
     47  C         -6.4930   25.2610   -5.0910 C.2    83  MET83       0.2287
     48  O         -6.5950   26.3970   -5.5670 O.2    83  MET83      -0.2864
     49  CB        -6.0420   25.3490   -2.6220 C.3    83  MET83       0.0413
     50  CG        -6.7010   25.7230   -1.3010 C.3    83  MET83       0.0598
     51  SD        -6.8810   27.5040   -1.0390 S.3    83  MET83      -0.1393
     52  CE        -8.1600   27.9460   -2.2060 C.3    83  MET83       0.0692
     53  N        -24.2470   19.2080    9.9780 N.3   157  LEU157     -0.1245
     54  CA       -23.0320   19.1600    9.1730 C.3   157  LEU157      0.1561
     55  C        -21.8230   18.7600   10.0080 C.2   157  LEU157      0.2260
     56  O        -20.9280   18.0690    9.5060 O.2   157  LEU157     -0.2867
     57  CB       -22.7790   20.5120    8.5030 C.3   157  LEU157      0.0270
     58  CG       -23.5960   20.8490    7.2560 C.3   157  LEU157      0.0019
     59  CD1      -23.3450   22.2910    6.8440 C.3   157  LEU157      0.0001
     60  CD2      -23.2600   19.9080    6.1150 C.3   157  LEU157      0.0001
     61  N        -20.9470   14.8950   10.5260 N.3   160  SER160     -0.1202
     62  CA       -20.3130   14.1420    9.4510 C.3   160  SER160      0.2020
     63  C        -18.8050   14.0250    9.6370 C.2   160  SER160      0.2618
     64  O        -18.1810   13.1660    9.0070 O.2   160  SER160     -0.2717
     65  CB       -20.5960   14.7940    8.0970 C.3   160  SER160      0.2103
     66  OG       -21.9640   14.6980    7.7470 O.3   160  SER160     -0.2182
     67  N        -18.2140   14.8540   10.4980 N.am  161  LEU161     -0.1979
     68  CA       -16.7650   15.0090   10.5070 C.3   161  LEU161      0.1596
     69  C        -16.0440   13.8580   11.1990 C.2   161  LEU161      0.2287
     70  O        -14.8860   13.5800   10.8630 O.2   161  LEU161     -0.2864
     71  CB       -16.3970   16.3410   11.1590 C.3   161  LEU161      0.0297
     72  CG       -17.0310   17.5610   10.4780 C.3   161  LEU161      0.0022
     73  CD1      -16.5520   18.8420   11.1370 C.3   161  LEU161      0.0001
     74  CD2      -16.7240   17.5700    8.9890 C.3   161  LEU161      0.0001
     75  N        -15.7900   11.7730    8.1870 N.3   164  ALA164     -0.1231
     76  CA       -15.1730   12.4530    7.0490 C.3   164  ALA164      0.1694
     77  C        -13.6640   12.6080    7.1990 C.2   164  ALA164      0.2592
     78  O        -12.9410   12.6010    6.1970 O.2   164  ALA164     -0.2718
     79  CB       -15.8100   13.8270    6.8580 C.3   164  ALA164      0.0304
     80  N        -13.1650   12.7820    8.4190 N.am  165  PHE165     -0.1976
     81  CA       -11.7420   13.0190    8.6180 C.3   165  PHE165      0.1639
     82  C        -11.0550   11.8300    9.2810 C.2   165  PHE165      0.2290
     83  O        -10.0690   11.9920   10.0060 O.2   165  PHE165     -0.2864
     84  CB       -11.5230   14.3100    9.4040 C.3   165  PHE165      0.0560
     85  CG       -11.6760   15.5510    8.5610 C.ar  165  PHE165     -0.0200
     86  CD1      -12.9130   16.1590    8.4070 C.ar  165  PHE165     -0.0042
     87  CD2      -10.5850   16.0870    7.8920 C.ar  165  PHE165     -0.0042
     88  CE1      -13.0520   17.2950    7.6170 C.ar  165  PHE165     -0.0003
     89  CE2      -10.7170   17.2220    7.1020 C.ar  165  PHE165     -0.0003
     90  CZ       -11.9510   17.8250    6.9620 C.ar  165  PHE165     -0.0000
     91  N        -18.3190    7.6930    4.4260 N.3   175  ALA175     -0.1245
     92  CA       -17.7130    8.9600    4.0300 C.3   175  ALA175      0.1562
     93  C        -18.2920    9.4640    2.7150 C.2   175  ALA175      0.2260
     94  O        -18.4840   10.6730    2.5370 O.2   175  ALA175     -0.2867
     95  CB       -16.1960    8.8120    3.9230 C.3   175  ALA175      0.0290
     96  N        -22.0270   10.7150    3.4460 N.3   178  ASN178     -0.1225
     97  CA       -22.0220   12.0470    4.0430 C.3   178  ASN178      0.1785
     98  C        -21.5550   13.1020    3.0470 C.2   178  ASN178      0.2597
     99  O        -22.0840   14.2200    3.0290 O.2   178  ASN178     -0.2718
    100  CB       -21.1340   12.0670    5.2840 C.3   178  ASN178      0.1169
    101  CG       -21.7120   11.2740    6.4390 C.2   178  ASN178      0.2627
    102  OD1      -21.0090   10.9910    7.4010 O.2   178  ASN178     -0.2716
    103  ND2      -22.9930   10.9330    6.3610 N.am  178  ASN178     -0.0877
    104  N        -20.5570   12.7730    2.2190 N.am  179  TRP179     -0.1976
    105  CA       -20.0690   13.7330    1.2340 C.3   179  TRP179      0.1640
    106  C        -21.1590   14.0930    0.2310 C.2   179  TRP179      0.2290
    107  O        -21.3930   15.2740   -0.0480 O.2   179  TRP179     -0.2864
    108  CB       -18.8380   13.1790    0.5130 C.3   179  TRP179      0.0576
    109  CG       -18.4060   14.0230   -0.6560 C.ar  179  TRP179      0.0006
    110  CD1      -18.7730   13.8650   -1.9630 C.ar  179  TRP179      0.0946
    111  CD2      -17.5370   15.1610   -0.6200 C.ar  179  TRP179      0.0152
    112  NE1      -18.1820   14.8280   -2.7410 N.ar  179  TRP179     -0.2442
    113  CE2      -17.4180   15.6370   -1.9440 C.ar  179  TRP179      0.0810
    114  CE3      -16.8440   15.8210    0.4000 C.ar  179  TRP179      0.0012
    115  CZ2      -16.6340   16.7460   -2.2730 C.ar  179  TRP179      0.0191
    116  CZ3      -16.0670   16.9190    0.0740 C.ar  179  TRP179      0.0001
    117  CH2      -15.9690   17.3730   -1.2520 C.ar  179  TRP179      0.0015
    118  N        -23.8270   16.1720    1.9710 N.3   182  ASP182     -0.1239
    119  CA       -23.3670   17.5220    2.2750 C.3   182  ASP182      0.1674
    120  C        -23.1730   18.3550    1.0080 C.2   182  ASP182      0.2266
    121  O        -23.3700   19.5770    1.0430 O.2   182  ASP182     -0.2867
    122  CB       -22.0830   17.4530    3.1070 C.3   182  ASP182      0.1410
    123  CG       -22.3440   17.0200    4.5560 C.2   182  ASP182      0.3668
    124  OD1      -23.4980   16.6690    4.8830 O.co2 182  ASP182     -0.2456
    125  OD2      -21.3940   17.0230    5.3700 O.co2 182  ASP182     -0.2456
    126  N        -18.5110   22.7660    1.2260 N.3   225  VAL225     -0.1231
    127  CA       -18.3210   21.5460    2.0100 C.3   225  VAL225      0.1692
    128  C        -16.8940   21.4770    2.5420 C.2   225  VAL225      0.2592
    129  O        -16.6610   21.2100    3.7270 O.2   225  VAL225     -0.2718
    130  CB       -18.6580   20.2990    1.1670 C.3   225  VAL225      0.0266
    131  CG1      -18.3650   19.0250    1.9570 C.3   225  VAL225      0.0020
    132  CG2      -20.0970   20.3220    0.6950 C.3   225  VAL225      0.0020
    133  N        -15.9180   21.7340    1.6690 N.am  226  THR226     -0.1953
    134  CA       -14.5240   21.4840    2.0130 C.3   226  THR226      0.1897
    135  C        -13.9860   22.5170    2.9990 C.2   226  THR226      0.2313
    136  O        -13.1020   22.1960    3.8050 O.2   226  THR226     -0.2863
    137  CB       -13.7000   21.4520    0.7190 C.3   226  THR226      0.1794
    138  OG1      -13.0750   20.1720    0.5690 O.3   226  THR226     -0.2208
    139  CG2      -12.6500   22.5390    0.6960 C.3   226  THR226      0.0378
    140  N        -15.9850   24.3190    5.2670 N.3   228  PHE228     -0.1227
    141  CA       -16.6260   24.0460    6.5480 C.3   228  PHE228      0.1736
    142  C        -15.9000   22.9260    7.2860 C.2   228  PHE228      0.2596
    143  O        -15.4720   23.0960    8.4330 O.2   228  PHE228     -0.2718
    144  CB       -18.0990   23.6860    6.3340 C.3   228  PHE228      0.0547
    145  CG       -18.8700   23.5080    7.6100 C.ar  228  PHE228     -0.0202
    146  CD1      -19.4790   24.5930    8.2190 C.ar  228  PHE228     -0.0042
    147  CD2      -18.9950   22.2580    8.1990 C.ar  228  PHE228     -0.0042
    148  CE1      -20.1880   24.4420    9.3940 C.ar  228  PHE228     -0.0003
    149  CE2      -19.7060   22.0980    9.3770 C.ar  228  PHE228     -0.0003
    150  CZ       -20.3050   23.1910    9.9730 C.ar  228  PHE228     -0.0000
    151  N        -15.7320   21.7780    6.6270 N.am  229  GLY229     -0.1942
    152  CA       -15.1480   20.6250    7.2940 C.3   229  GLY229      0.2014
    153  C        -13.7170   20.8610    7.7360 C.2   229  GLY229      0.2638
    154  O        -13.3620   20.6070    8.8890 O.2   229  GLY229     -0.2714
    155  N        -12.8740   21.3460    6.8200 N.am  230  ALA230     -0.1977
    156  CA       -11.4910   21.6440    7.1780 C.3   230  ALA230      0.1597
    157  C        -11.4170   22.6520    8.3180 C.2   230  ALA230      0.2287
    158  O        -10.6050   22.5000    9.2380 O.2   230  ALA230     -0.2864
    159  CB       -10.7290   22.1660    5.9600 C.3   230  ALA230      0.0319
@<TRIPOS>BOND
     1    48    47    2
     2    23    24    1
     3    47    46    1
     4    40    39    2
     5    24    25    1
     6    24    27    1
     7    29    27    1
     8    39    38    1
     9    39    45   am
    10    37    38    1
    11    38    41    1
    12     3     4    2
    13     3     2    1
    14    30    25   am
    15    30    31    1
    16    32    31    1
    17    32    33    2
    18    46    45    1
    19    46    49    1
    20    25    26    2
    21     1     2    1
    22    27    28    1
    23    34    31    1
    24    34    36    1
    25    34    35    1
    26     2     5    1
    27    44    42   am
    28   112   110   ar
    29   112   113   ar
    30    19    18    2
    31    49    50    1
    32    41    42    1
    33    18    17    1
    34   115   113   ar
    35   115   117   ar
    36    52    51    1
    37    42    43    2
    38     5     6    1
    39   110   109   ar
    40   113   111   ar
    41     6     7    1
    42    50    51    1
    43   117   116   ar
    44     7     8    1
    45    17    20    1
    46    17    16    1
    47    22    20    1
    48    20    21    1
    49   109   111   ar
    50   109   108    1
    51   111   114   ar
    52    16    11   am
    53   107   106    2
    54   116   114   ar
    55   106   105    1
    56   108   105    1
    57   138   137    1
    58   132   130    1
    59   139   137    1
    60   137   134    1
    61    11    12    2
    62    11    10    1
    63   120   121    2
    64   120   119    1
    65   130   131    1
    66   130   127    1
    67   126   127    1
    68   105   104    1
    69     9    10    1
    70   133   134    1
    71   133   128   am
    72    10    13    1
    73   118   119    1
    74   127   128    1
    75   134   135    1
    76   104    98   am
    77   119   122    1
    78    94    93    2
    79   128   129    2
    80    93    92    1
    81   135   136    2
    82    99    98    2
    83    98    97    1
    84   122   123    1
    85    13    14    1
    86    13    15    1
    87    96    97    1
    88    95    92    1
    89    92    91    1
    90    97   100    1
    91   123   124   ar
    92   123   125   ar
    93   140   141    1
    94   100   101    1
    95   159   156    1
    96    60    58    1
    97    78    77    2
    98   144   141    1
    99   144   145    1
   100   103   101   am
   101   101   102    2
   102   141   142    1
   103   151   142   am
   104   151   152    1
   105   155   156    1
   106   155   153   am
   107    59    58    1
   108    79    76    1
   109    90    89   ar
   110    90    88   ar
   111    76    77    1
   112    76    75    1
   113    89    87   ar
   114   156   157    1
   115    77    80   am
   116    58    57    1
   117   142   143    2
   118   152   153    1
   119   145   147   ar
   120   145   146   ar
   121    88    86   ar
   122   153   154    2
   123    66    65    1
   124    87    85   ar
   125    65    62    1
   126   147   149   ar
   127   146   148   ar
   128   157   158    2
   129    86    85   ar
   130    80    81    1
   131    57    54    1
   132    85    84    1
   133    81    82    1
   134    81    84    1
   135    74    72    1
   136    64    63    2
   137    54    53    1
   138    54    55    1
   139    82    83    2
   140   149   150   ar
   141   148   150   ar
   142    62    63    1
   143    62    61    1
   144    56    55    2
   145    63    67   am
   146    72    73    1
   147    72    71    1
   148    67    68    1
   149    68    71    1
   150    68    69    1
   151    70    69    2
