@<TRIPOS>MOLECULE
tmp/5ibqA00.pdb
 115 109 0 0 0
SMALL
GASTEIGER

@<TRIPOS>ATOM
      1  N         21.4850   28.1890   25.0180 N.3    14  ASN14      -0.1240
      2  CA        21.3280   26.8210   24.5650 C.3    14  ASN14       0.1653
      3  C         21.2520   25.9490   25.8080 C.2    14  ASN14       0.2266
      4  O         22.2160   25.9090   26.5850 O.2    14  ASN14      -0.2867
      5  CB        22.5160   26.4300   23.6950 C.3    14  ASN14       0.1155
      6  CG        22.4400   25.0020   23.1860 C.2    14  ASN14       0.2627
      7  OD1       21.7690   24.1540   23.7740 O.2    14  ASN14      -0.2716
      8  ND2       23.1490   24.7210   22.0850 N.am   14  ASN14      -0.0877
      9  N         21.7040   22.9850   26.4700 N.3    16  PHE16      -0.1227
     10  CA        22.7640   22.0000   26.6220 C.3    16  PHE16       0.1736
     11  C         23.8880   22.5420   27.4960 C.2    16  PHE16       0.2595
     12  O         24.3770   21.8590   28.3950 O.2    16  PHE16      -0.2718
     13  CB        23.3080   21.6310   25.2400 C.3    16  PHE16       0.0547
     14  CG        24.1260   20.3940   25.2280 C.ar   16  PHE16      -0.0202
     15  CD1       23.4980   19.1880   25.0050 C.ar   16  PHE16      -0.0042
     16  CD2       25.4960   20.4100   25.4060 C.ar   16  PHE16      -0.0042
     17  CE1       24.1760   18.0320   24.9730 C.ar   16  PHE16      -0.0003
     18  CE2       26.2010   19.2070   25.3770 C.ar   16  PHE16      -0.0003
     19  CZ        25.5230   18.0250   25.1450 C.ar   16  PHE16      -0.0000
     20  N         24.3260   23.7710   27.2140 N.am   17  PHE17      -0.1976
     21  CA        25.4620   24.3280   27.9270 C.3    17  PHE17       0.1639
     22  C         25.0880   24.7040   29.3480 C.2    17  PHE17       0.2290
     23  O         25.8960   24.5490   30.2690 O.2    17  PHE17      -0.2864
     24  CB        26.0250   25.5240   27.1520 C.3    17  PHE17       0.0560
     25  CG        26.3230   25.2310   25.7010 C.ar   17  PHE17      -0.0200
     26  CD1       27.0030   24.0920   25.3310 C.ar   17  PHE17      -0.0042
     27  CD2       25.8960   26.0900   24.7230 C.ar   17  PHE17      -0.0042
     28  CE1       27.2580   23.8120   24.0080 C.ar   17  PHE17      -0.0003
     29  CE2       26.1580   25.8290   23.3760 C.ar   17  PHE17      -0.0003
     30  CZ        26.8420   24.6700   23.0260 C.ar   17  PHE17      -0.0000
     31  N         32.3760   17.7850   25.8650 N.3    90  ASP90      -0.1225
     32  CA        31.4890   18.0610   24.7310 C.3    90  ASP90       0.1805
     33  C         32.2320   18.2710   23.4130 C.2    90  ASP90       0.2597
     34  O         32.0090   17.5530   22.4250 O.2    90  ASP90      -0.2718
     35  CB        30.6060   19.2770   25.0520 C.3    90  ASP90       0.1424
     36  CG        29.5650   19.5730   23.9820 C.2    90  ASP90       0.3668
     37  OD1       29.2650   18.6860   23.1540 O.co2  90  ASP90      -0.2456
     38  OD2       29.0340   20.7130   23.9590 O.co2  90  ASP90      -0.2456
     39  N         33.1140   19.2670   23.3880 N.am   91  ARG91      -0.1979
     40  CA        33.8700   19.6760   22.2140 C.3    91  ARG91       0.1597
     41  C         35.3470   19.3320   22.4000 C.2    91  ARG91       0.2287
     42  O         35.9370   19.6000   23.4600 O.2    91  ARG91      -0.2864
     43  CB        33.7180   21.1830   22.0000 C.3    91  ARG91       0.0334
     44  CG        32.3300   21.5750   21.5430 C.3    91  ARG91       0.0492
     45  CD        32.1800   23.0830   21.4700 C.3    91  ARG91       0.2205
     46  NE        30.9030   23.4360   20.8660 N.pl3  91  ARG91      -0.0865
     47  CZ        30.3900   24.6560   20.8300 C.cat  91  ARG91       0.5346
     48  NH1       31.0180   25.6790   21.4020 N.pl3  91  ARG91       0.1354
     49  NH2       29.2170   24.8460   20.2380 N.pl3  91  ARG91       0.1354
     50  N         33.6080   23.7830   15.2930 N.3   137  ASP137     -0.1239
     51  CA        33.3210   22.7020   16.2210 C.3   137  ASP137      0.1674
     52  C         33.4160   21.3970   15.4400 C.2   137  ASP137      0.2266
     53  O         32.6220   21.1680   14.5200 O.2   137  ASP137     -0.2867
     54  CB        31.8990   22.9200   16.7460 C.3   137  ASP137      0.1410
     55  CG        31.4390   21.8480   17.7020 C.2   137  ASP137      0.3668
     56  OD1       32.1380   20.8440   17.9410 O.co2 137  ASP137     -0.2456
     57  OD2       30.3250   22.0230   18.2390 O.co2 137  ASP137     -0.2456
     58  N         32.4080   18.6010   16.1250 N.3   139  ASN139     -0.1240
     59  CA        31.1660   17.8370   16.1900 C.3   139  ASN139      0.1653
     60  C         30.2820   18.0870   14.9800 C.2   139  ASN139      0.2266
     61  O         29.5360   17.1900   14.5720 O.2   139  ASN139     -0.2867
     62  CB        30.3580   18.1480   17.4540 C.3   139  ASN139      0.1155
     63  CG        31.0730   17.7340   18.7190 C.2   139  ASN139      0.2627
     64  OD1       32.0250   16.9470   18.6800 O.2   139  ASN139     -0.2716
     65  ND2       30.6250   18.2560   19.8430 N.am  139  ASN139     -0.0877
     66  N         29.0460   14.7200   12.9470 N.3   143  ARG143     -0.1245
     67  CA        27.6390   14.3470   12.8570 C.3   143  ARG143      0.1563
     68  C         27.1770   14.3300   11.4110 C.2   143  ARG143      0.2260
     69  O         26.4610   13.4090   11.0100 O.2   143  ARG143     -0.2867
     70  CB        26.7540   15.2720   13.6940 C.3   143  ARG143      0.0307
     71  CG        27.0430   15.1880   15.1460 C.3   143  ARG143      0.0489
     72  CD        26.3250   16.2380   15.9570 C.3   143  ARG143      0.2205
     73  NE        26.9110   16.3390   17.2950 N.pl3 143  ARG143     -0.0865
     74  CZ        26.6980   17.3320   18.1440 C.cat 143  ARG143      0.5346
     75  NH1       25.8690   18.3180   17.8280 N.pl3 143  ARG143      0.1354
     76  NH2       27.3420   17.3280   19.3130 N.pl3 143  ARG143      0.1354
     77  N         24.5880   26.2540   15.1500 N.3   167  TRP167     -0.1241
     78  CA        24.0530   25.8520   16.4420 C.3   167  TRP167      0.1605
     79  C         23.0880   26.8810   17.0350 C.2   167  TRP167      0.2264
     80  O         22.8910   26.9100   18.2540 O.2   167  TRP167     -0.2867
     81  CB        25.1560   25.5380   17.4500 C.3   167  TRP167      0.0550
     82  CG        26.2200   24.5530   17.1150 C.ar  167  TRP167      0.0003
     83  CD1       27.5250   24.6660   17.4770 C.ar  167  TRP167      0.0946
     84  CD2       26.0950   23.2720   16.4810 C.ar  167  TRP167      0.0152
     85  NE1       28.2240   23.5600   17.1050 N.ar  167  TRP167     -0.2442
     86  CE2       27.3750   22.6760   16.5030 C.ar  167  TRP167      0.0810
     87  CE3       25.0410   22.5690   15.8920 C.ar  167  TRP167      0.0012
     88  CZ2       27.6200   21.4140   15.9830 C.ar  167  TRP167      0.0191
     89  CZ3       25.2980   21.3270   15.3610 C.ar  167  TRP167      0.0001
     90  CH2       26.5690   20.7560   15.4200 C.ar  167  TRP167      0.0015
     91  N         21.9200   19.6620   15.5470 N.3   193  ASN193     -0.1240
     92  CA        21.6550   19.8110   16.9850 C.3   193  ASN193      0.1653
     93  C         20.1950   20.1920   17.2470 C.2   193  ASN193      0.2266
     94  O         19.3820   20.3920   16.3330 O.2   193  ASN193     -0.2867
     95  CB        22.6190   20.7650   17.6930 C.3   193  ASN193      0.1155
     96  CG        22.1420   22.2050   17.6700 C.2   193  ASN193      0.2627
     97  OD1       21.4890   22.6300   16.7190 O.2   193  ASN193     -0.2716
     98  ND2       22.4410   22.9680   18.7080 N.am  193  ASN193     -0.0877
     99  N         20.7990   16.0360   20.5450 N.3   218  ASP218     -0.1239
    100  CA        21.2240   16.5490   21.8550 C.3   218  ASP218      0.1674
    101  C         20.4200   15.8830   22.9650 C.2   218  ASP218      0.2266
    102  O         20.9730   15.4760   23.9920 O.2   218  ASP218     -0.2867
    103  CB        21.0690   18.0710   22.0730 C.3   218  ASP218      0.1410
    104  CG        22.1430   18.9200   21.4400 C.2   218  ASP218      0.3668
    105  OD1       23.2800   18.4610   21.2170 O.co2 218  ASP218     -0.2456
    106  OD2       21.8130   20.1080   21.1960 O.co2 218  ASP218     -0.2456
    107  N         22.7510   13.1240   24.0930 N.3   238  GLN238     -0.1245
    108  CA        24.0970   13.2110   24.6540 C.3   238  GLN238      0.1566
    109  C         23.9570   13.3440   26.1570 C.2   238  GLN238      0.2260
    110  O         23.1570   14.1600   26.6160 O.2   238  GLN238     -0.2867
    111  CB        24.8350   14.4420   24.1800 C.3   238  GLN238      0.0367
    112  CG        25.0960   14.5270   22.7010 C.3   238  GLN238      0.0905
    113  CD        26.0130   15.6980   22.4150 C.2   238  GLN238      0.2608
    114  OE1       27.2290   15.6010   22.6230 O.2   238  GLN238     -0.2717
    115  NE2       25.4640   16.8160   22.0020 N.am  238  GLN238     -0.0878
@<TRIPOS>BOND
     1    69    68    2
     2    68    67    1
     3    67    66    1
     4    67    70    1
     5    70    71    1
     6    53    52    2
     7    61    60    2
     8    60    59    1
     9    71    72    1
    10    77    78    1
    11    50    51    1
    12    89    90   ar
    13    89    87   ar
    14    90    88   ar
    15    52    51    1
    16    91    92    1
    17    87    84   ar
    18    72    73    1
    19    88    86   ar
    20    58    59    1
    21    59    62    1
    22    51    54    1
    23    94    93    2
    24    78    79    1
    25    78    81    1
    26    84    86   ar
    27    84    82   ar
    28    86    85   ar
    29    97    96    2
    30    54    55    1
    31    92    93    1
    32    92    95    1
    33    79    80    2
    34    85    83   ar
    35    82    81    1
    36    82    83   ar
    37    73    74    2
    38    62    63    1
    39    96    95    1
    40    96    98   am
    41    55    56   ar
    42    55    57   ar
    43    75    74    1
    44    74    76    1
    45    64    63    2
    46    63    65   am
    47    49    47    1
    48    99   100    1
    49    47    46    2
    50    47    48    1
    51    46    45    1
    52   106   104   ar
    53   105   104   ar
    54   104   103    1
    55    45    44    1
    56    44    43    1
    57   100   103    1
    58   100   101    1
    59    43    40    1
    60   115   113   am
    61     8     6   am
    62    40    41    1
    63    40    39    1
    64    41    42    2
    65   113   114    2
    66   113   112    1
    67    34    33    2
    68   112   111    1
    69   101   102    2
    70    30    29   ar
    71    30    28   ar
    72    37    36   ar
    73     6     5    1
    74     6     7    2
    75    29    27   ar
    76    39    33   am
    77    33    32    1
    78     5     2    1
    79    38    36   ar
    80    36    35    1
    81    28    26   ar
    82   107   108    1
    83   111   108    1
    84     2     1    1
    85     2     3    1
    86   108   109    1
    87    27    25   ar
    88    32    35    1
    89    32    31    1
    90    17    15   ar
    91    17    19   ar
    92    15    14   ar
    93    19    18   ar
    94    14    13    1
    95    14    16   ar
    96    13    10    1
    97    26    25   ar
    98    18    16   ar
    99    25    24    1
   100     3     4    2
   101   109   110    2
   102     9    10    1
   103    10    11    1
   104    24    21    1
   105    20    11   am
   106    20    21    1
   107    11    12    2
   108    21    22    1
   109    22    23    2
