@<TRIPOS>MOLECULE
tmp/5ibzB00.pdb
 96 89 0 0 0
SMALL
GASTEIGER

@<TRIPOS>ATOM
      1  N         59.3940    0.7750  119.3800 N.3    57  PHE57      -0.1241
      2  CA        58.3410   -0.0660  118.8660 C.3    57  PHE57       0.1605
      3  C         58.0200    0.3520  117.4330 C.2    57  PHE57       0.2264
      4  O         57.6860    1.5090  117.1940 O.2    57  PHE57      -0.2867
      5  CB        57.1000    0.0180  119.7630 C.3    57  PHE57       0.0534
      6  CG        56.3780   -1.2900  119.9080 C.ar   57  PHE57      -0.0203
      7  CD1       55.9000   -1.9540  118.7980 C.ar   57  PHE57      -0.0042
      8  CD2       56.1850   -1.8570  121.1640 C.ar   57  PHE57      -0.0042
      9  CE1       55.2430   -3.1780  118.9260 C.ar   57  PHE57      -0.0003
     10  CE2       55.5370   -3.0640  121.3030 C.ar   57  PHE57      -0.0003
     11  CZ        55.0580   -3.7280  120.1760 C.ar   57  PHE57      -0.0000
     12  N         57.7510    3.2970  114.9240 N.3    60  ARG60      -0.1245
     13  CA        58.4700    4.4560  115.4330 C.3    60  ARG60       0.1563
     14  C         59.9250    4.4200  114.9540 C.2    60  ARG60       0.2260
     15  O         60.5350    3.3490  114.8810 O.2    60  ARG60      -0.2867
     16  CB        58.4180    4.5220  116.9610 C.3    60  ARG60       0.0307
     17  CG        57.0390    4.8490  117.5270 C.3    60  ARG60       0.0489
     18  CD        56.9800    4.6760  119.0500 C.3    60  ARG60       0.2205
     19  NE        55.6120    4.8830  119.5210 N.pl3  60  ARG60      -0.0865
     20  CZ        55.1050    4.3640  120.6300 C.cat  60  ARG60       0.5346
     21  NH1       55.8480    3.5960  121.4200 N.pl3  60  ARG60       0.1354
     22  NH2       53.8380    4.6130  120.9420 N.pl3  60  ARG60       0.1354
     23  N         61.0920    7.0060  128.7370 N.3   102  GLN102     -0.1245
     24  CA        59.9960    7.9490  128.5510 C.3   102  GLN102      0.1566
     25  C         58.9780    7.9540  129.6690 C.2   102  GLN102      0.2260
     26  O         58.8140    6.9570  130.3880 O.2   102  GLN102     -0.2867
     27  CB        59.2610    7.6340  127.2360 C.3   102  GLN102      0.0367
     28  CG        58.4360    6.3400  127.2840 C.3   102  GLN102      0.0905
     29  CD        58.0100    5.8790  125.9100 C.2   102  GLN102      0.2608
     30  OE1       56.8610    6.0150  125.5030 O.2   102  GLN102     -0.2717
     31  NE2       58.9610    5.3820  125.1710 N.am  102  GLN102     -0.0878
     32  N         54.8020    8.7090  129.3630 N.3   104  ASP104     -0.1239
     33  CA        53.6610    8.9570  128.4920 C.3   104  ASP104      0.1674
     34  C         52.6860    9.8220  129.2390 C.2   104  ASP104      0.2266
     35  O         52.3260    9.5170  130.3760 O.2   104  ASP104     -0.2867
     36  CB        53.0090    7.6530  128.0770 C.3   104  ASP104      0.1410
     37  CG        53.9790    6.7370  127.3470 C.2   104  ASP104      0.3668
     38  OD1       54.9590    7.2470  126.7510 O.co2 104  ASP104     -0.2456
     39  OD2       53.7730    5.5040  127.3930 O.co2 104  ASP104     -0.2456
     40  N         48.4200   10.6670  125.8090 N.3   108  HIS108     -0.1241
     41  CA        48.9930    9.6500  124.9210 C.3   108  HIS108      0.1621
     42  C         48.0270    8.5190  124.5520 C.2   108  HIS108      0.2264
     43  O         48.1770    7.9180  123.4920 O.2   108  HIS108     -0.2867
     44  CB        50.2580    9.0360  125.5530 C.3   108  HIS108      0.0745
     45  CG        50.8260    7.8800  124.7930 C.ar  108  HIS108      0.0817
     46  ND1       51.2430    7.9800  123.4830 N.ar  108  HIS108     -0.2268
     47  CD2       51.0530    6.5960  125.1600 C.ar  108  HIS108      0.1154
     48  CE1       51.6960    6.8080  123.0750 C.ar  108  HIS108      0.1986
     49  NE2       51.5910    5.9500  124.0760 N.ar  108  HIS108     -0.2212
     50  N         58.8550   -2.3630  127.0000 N.3   238  ILE238     -0.1231
     51  CA        58.5560   -1.3620  125.9850 C.3   238  ILE238      0.1692
     52  C         57.1170   -0.8550  126.1020 C.2   238  ILE238      0.2591
     53  O         56.8360    0.3050  125.8010 O.2   238  ILE238     -0.2718
     54  CB        58.7740   -1.9060  124.5450 C.3   238  ILE238      0.0266
     55  CG1       60.0620   -2.7270  124.4510 C.3   238  ILE238      0.0019
     56  CG2       58.7870   -0.7620  123.5670 C.3   238  ILE238      0.0020
     57  CD1       61.3380   -2.0190  124.8820 C.3   238  ILE238      0.0001
     58  N         56.2100   -1.7110  126.5680 N.am  239  ALA239     -0.1980
     59  CA        54.7850   -1.3810  126.5890 C.3   239  ALA239      0.1597
     60  C         54.1270   -1.3330  127.9720 C.2   239  ALA239      0.2287
     61  O         52.9130   -1.1640  128.0520 O.2   239  ALA239     -0.2864
     62  CB        54.0420   -2.3790  125.7370 C.3   239  ALA239      0.0319
     63  N         52.1200   -7.7910  126.4650 N.3   243  VAL243     -0.1245
     64  CA        51.7030   -7.6880  125.0660 C.3   243  VAL243      0.1561
     65  C         51.6490   -9.0790  124.4520 C.2   243  VAL243      0.2260
     66  O         52.6140   -9.8360  124.5670 O.2   243  VAL243     -0.2867
     67  CB        52.6810   -6.8280  124.2430 C.3   243  VAL243      0.0252
     68  CG1       52.2770   -6.8150  122.7700 C.3   243  VAL243      0.0019
     69  CG2       52.7570   -5.4210  124.8070 C.3   243  VAL243      0.0019
     70  N         44.8950   -4.0330  124.8530 N.3   247  LEU247     -0.1245
     71  CA        45.6830   -3.1770  125.7480 C.3   247  LEU247      0.1561
     72  C         44.8590   -2.4350  126.7920 C.2   247  LEU247      0.2260
     73  O         44.9610   -1.1960  126.9260 O.2   247  LEU247     -0.2867
     74  CB        46.4710   -2.1670  124.9390 C.3   247  LEU247      0.0270
     75  CG        47.4990   -2.6900  123.9470 C.3   247  LEU247      0.0019
     76  CD1       48.2300   -1.5100  123.3190 C.3   247  LEU247      0.0001
     77  CD2       48.4830   -3.6420  124.6170 C.3   247  LEU247      0.0001
     78  N         46.6470    0.1250  129.4130 N.3   250  HIS250     -0.1241
     79  CA        46.8910    1.4750  128.9090 C.3   250  HIS250      0.1621
     80  C         45.6650    2.3570  129.0820 C.2   250  HIS250      0.2264
     81  O         45.7380    3.4820  129.5790 O.2   250  HIS250     -0.2867
     82  CB        47.2400    1.4450  127.4270 C.3   250  HIS250      0.0745
     83  CG        48.6830    1.2010  127.1570 C.ar  250  HIS250      0.0817
     84  ND1       49.2460   -0.0530  127.2330 N.ar  250  HIS250     -0.2268
     85  CD2       49.6810    2.0460  126.8170 C.ar  250  HIS250      0.1154
     86  CE1       50.5310    0.0320  126.9480 C.ar  250  HIS250      0.1986
     87  NE2       50.8210    1.2950  126.6920 N.ar  250  HIS250     -0.2212
     88  N         58.1880    3.9270  130.2650 N.3   263  GLU263     -0.1245
     89  CA        58.6210    2.7790  129.4770 C.3   263  GLU263      0.1567
     90  C         60.0760    2.8910  129.0870 C.2   263  GLU263      0.2260
     91  O         60.6140    3.9970  128.9560 O.2   263  GLU263     -0.2867
     92  CB        57.7670    2.6300  128.2100 C.3   263  GLU263      0.0388
     93  CG        56.3190    2.2800  128.5380 C.3   263  GLU263      0.1160
     94  CD        55.3560    2.4410  127.3800 C.2   263  GLU263      0.3649
     95  OE1       55.6730    3.1360  126.3980 O.co2 263  GLU263     -0.2457
     96  OE2       54.2750    1.8280  127.4730 O.co2 263  GLU263     -0.2457
@<TRIPOS>BOND
     1    15    14    2
     2    12    13    1
     3    14    13    1
     4    13    16    1
     5    16    17    1
     6     4     3    2
     7     3     2    1
     8    17    18    1
     9     7     9   ar
    10     7     6   ar
    11     2     1    1
    12     2     5    1
    13     9    11   ar
    14    18    19    1
    15    19    20    2
    16     5     6    1
    17     6     8   ar
    18    11    10   ar
    19    20    22    1
    20    20    21    1
    21     8    10   ar
    22    68    67    1
    23    48    46   ar
    24    48    49   ar
    25    76    75    1
    26    46    45   ar
    27    43    42    2
    28    56    54    1
    29    75    77    1
    30    75    74    1
    31    49    47   ar
    32    67    69    1
    33    67    64    1
    34    55    54    1
    35    55    57    1
    36    65    66    2
    37    65    64    1
    38    54    51    1
    39    42    41    1
    40    45    47   ar
    41    45    44    1
    42    70    71    1
    43    41    44    1
    44    41    40    1
    45    74    71    1
    46    64    63    1
    47    31    29   am
    48    30    29    2
    49    62    59    1
    50    71    72    1
    51    53    52    2
    52    29    28    1
    53    51    52    1
    54    51    50    1
    55    52    58   am
    56    95    94   ar
    57    58    59    1
    58    59    60    1
    59    87    85   ar
    60    87    86   ar
    61    38    37   ar
    62    72    73    2
    63    85    83   ar
    64    86    84   ar
    65    83    84   ar
    66    83    82    1
    67    27    28    1
    68    27    24    1
    69    37    39   ar
    70    37    36    1
    71    94    96   ar
    72    94    93    1
    73    82    79    1
    74    60    61    2
    75    36    33    1
    76    92    93    1
    77    92    89    1
    78    33    34    1
    79    33    32    1
    80    24    23    1
    81    24    25    1
    82    79    80    1
    83    79    78    1
    84    91    90    2
    85    80    81    2
    86    90    89    1
    87    34    35    2
    88    89    88    1
    89    25    26    2
