@<TRIPOS>MOLECULE
tmp/5ic4B00.pdb
 129 132 0 0 0
SMALL
GASTEIGER

@<TRIPOS>ATOM
      1  N         42.3930  -12.0450  -10.8360 N.3    20  TYR20      -0.1227
      2  CA        41.8320  -12.1170  -12.1780 C.3    20  TYR20       0.1736
      3  C         41.1360  -13.4520  -12.4060 C.2    20  TYR20       0.2596
      4  O         41.4360  -14.4430  -11.7410 O.2    20  TYR20      -0.2718
      5  CB        42.9220  -11.9300  -13.2380 C.3    20  TYR20       0.0548
      6  CG        43.3270  -10.4990  -13.5120 C.ar   20  TYR20      -0.0200
      7  CD1       42.4460   -9.6080  -14.1080 C.ar   20  TYR20      -0.0009
      8  CD2       44.6040  -10.0490  -13.2060 C.ar   20  TYR20      -0.0009
      9  CE1       42.8170   -8.3020  -14.3700 C.ar   20  TYR20       0.0417
     10  CE2       44.9870   -8.7480  -13.4690 C.ar   20  TYR20       0.0417
     11  CZ        44.0890   -7.8790  -14.0480 C.ar   20  TYR20       0.1957
     12  OH        44.4640   -6.5800  -14.3080 O.3    20  TYR20      -0.2866
     13  N         40.2070  -13.4690  -13.3530 N.am   21  SER21      -0.1938
     14  CA        39.5990  -14.7100  -13.8080 C.3    21  SER21       0.2055
     15  C         39.9090  -14.8790  -15.2890 C.2    21  SER21       0.2643
     16  O         39.8670  -13.9120  -16.0490 O.2    21  SER21      -0.2714
     17  CB        38.0910  -14.7080  -13.5620 C.3    21  SER21       0.2130
     18  OG        37.5300  -15.9780  -13.8400 O.3    21  SER21      -0.2179
     19  N         40.2200  -16.1030  -15.7000 N.am   22  TRP22      -0.1959
     20  CA        40.7100  -16.3280  -17.0540 C.3    22  TRP22       0.1771
     21  C         39.6850  -16.9860  -17.9660 C.2    22  TRP22       0.2620
     22  O         38.8820  -17.8130  -17.5380 O.2    22  TRP22      -0.2715
     23  CB        41.9860  -17.1660  -17.0190 C.3    22  TRP22       0.0590
     24  CG        43.1590  -16.4050  -16.5030 C.ar   22  TRP22       0.0006
     25  CD1       43.5960  -16.3420  -15.2140 C.ar   22  TRP22       0.0946
     26  CD2       44.0390  -15.5750  -17.2680 C.ar   22  TRP22       0.0152
     27  NE1       44.7020  -15.5310  -15.1300 N.ar   22  TRP22      -0.2442
     28  CE2       44.9930  -15.0480  -16.3770 C.ar   22  TRP22       0.0810
     29  CE3       44.1150  -15.2310  -18.6210 C.ar   22  TRP22       0.0012
     30  CZ2       46.0110  -14.1950  -16.7960 C.ar   22  TRP22       0.0191
     31  CZ3       45.1250  -14.3850  -19.0330 C.ar   22  TRP22       0.0001
     32  CH2       46.0590  -13.8760  -18.1250 C.ar   22  TRP22       0.0015
     33  N         39.7310  -16.5960  -19.2350 N.am   23  ARG23      -0.1963
     34  CA        38.8060  -17.0920  -20.2400 C.3    23  ARG23       0.1729
     35  C         39.5180  -17.3140  -21.5670 C.2    23  ARG23       0.2616
     36  O         40.2720  -16.4550  -22.0250 O.2    23  ARG23      -0.2715
     37  CB        37.6500  -16.1070  -20.4240 C.3    23  ARG23       0.0348
     38  CG        36.7440  -16.4110  -21.6040 C.3    23  ARG23       0.0492
     39  CD        35.6670  -15.3480  -21.7580 C.3    23  ARG23       0.2205
     40  NE        36.1460  -14.0230  -21.3720 N.pl3  23  ARG23      -0.0865
     41  CZ        36.8230  -13.2080  -22.1740 C.cat  23  ARG23       0.5346
     42  NH1       37.1070  -13.5780  -23.4150 N.pl3  23  ARG23       0.1354
     43  NH2       37.2180  -12.0210  -21.7340 N.pl3  23  ARG23       0.1354
     44  N         39.2800  -18.4650  -22.1850 N.am   24  ASN24      -0.1958
     45  CA        39.8250  -18.7170  -23.5080 C.3    24  ASN24       0.1819
     46  C         38.7800  -18.3160  -24.5410 C.2    24  ASN24       0.2622
     47  O         37.6440  -18.7840  -24.4980 O.2    24  ASN24      -0.2715
     48  CB        40.2180  -20.1880  -23.6630 C.3    24  ASN24       0.1195
     49  CG        40.8550  -20.4850  -25.0070 C.2    24  ASN24       0.2630
     50  OD1       40.1790  -20.8940  -25.9500 O.2    24  ASN24      -0.2716
     51  ND2       42.1640  -20.2850  -25.0980 N.am   24  ASN24      -0.0877
     52  N         39.1730  -17.4460  -25.4660 N.am   25  SER25      -0.1936
     53  CA        38.2430  -16.8620  -26.4310 C.3    25  SER25       0.2055
     54  C         37.5260  -17.8870  -27.3200 C.2    25  SER25       0.2642
     55  O         36.4510  -17.6000  -27.8440 O.2    25  SER25      -0.2714
     56  CB        38.9670  -15.8120  -27.2800 C.3    25  SER25       0.2130
     57  OG        40.1190  -16.3420  -27.8980 O.3    25  SER25      -0.2179
     58  N         38.1160  -19.0660  -27.5060 N.am   26  LYS26      -0.1977
     59  CA        37.4840  -20.1090  -28.3220 C.3    26  LYS26       0.1596
     60  C         36.9410  -21.2720  -27.4820 C.2    26  LYS26       0.2287
     61  O         35.8790  -21.8120  -27.7940 O.2    26  LYS26      -0.2864
     62  CB        38.4240  -20.6650  -29.4180 C.3    26  LYS26       0.0298
     63  CG        39.3710  -19.6960  -30.1560 C.3    26  LYS26       0.0038
     64  CD        40.4500  -19.0260  -29.3250 C.3    26  LYS26       0.0206
     65  CE        41.1860  -17.9880  -30.1690 C.3    26  LYS26       0.1093
     66  NZ        42.1130  -17.1480  -29.3590 N.3    26  LYS26      -0.1314
     67  N         35.6050  -19.9400  -20.7770 N.3    29  SER29      -0.1202
     68  CA        36.3280  -19.6920  -19.5360 C.3    29  SER29       0.2020
     69  C         36.7550  -21.0030  -18.8860 C.2    29  SER29       0.2618
     70  O         36.0740  -22.0200  -19.0140 O.2    29  SER29      -0.2717
     71  CB        35.4760  -18.8720  -18.5680 C.3    29  SER29       0.2103
     72  OG        34.3430  -19.6020  -18.1420 O.3    29  SER29      -0.2182
     73  N         37.8890  -20.9660  -18.1950 N.am   30  TRP30      -0.1975
     74  CA        38.4650  -22.1490  -17.5620 C.3    30  TRP30       0.1640
     75  C         37.5050  -22.7720  -16.5570 C.2    30  TRP30       0.2290
     76  O         37.3180  -23.9880  -16.5230 O.2    30  TRP30      -0.2864
     77  CB        39.7760  -21.7930  -16.8600 C.3    30  TRP30       0.0576
     78  CG        40.8220  -21.1970  -17.7550 C.ar   30  TRP30       0.0006
     79  CD1       40.7510  -21.0260  -19.1080 C.ar   30  TRP30       0.0946
     80  CD2       42.1010  -20.6910  -17.3550 C.ar   30  TRP30       0.0152
     81  NE1       41.9050  -20.4460  -19.5730 N.ar   30  TRP30      -0.2442
     82  CE2       42.7500  -20.2310  -18.5170 C.ar   30  TRP30       0.0810
     83  CE3       42.7590  -20.5830  -16.1260 C.ar   30  TRP30       0.0012
     84  CZ2       44.0250  -19.6720  -18.4860 C.ar   30  TRP30       0.0191
     85  CZ3       44.0240  -20.0290  -16.0980 C.ar   30  TRP30       0.0001
     86  CH2       44.6440  -19.5800  -17.2700 C.ar   30  TRP30       0.0015
     87  N         46.9200  -23.0180  -17.7880 N.3    64  GLU64      -0.1231
     88  CA        47.9520  -22.0080  -17.6010 C.3    64  GLU64       0.1699
     89  C         47.7790  -20.9740  -18.7020 C.2    64  GLU64       0.2593
     90  O         47.5630  -21.3270  -19.8610 O.2    64  GLU64      -0.2718
     91  CB        49.3510  -22.6240  -17.6350 C.3    64  GLU64       0.0402
     92  CG        50.4750  -21.6140  -17.4680 C.3    64  GLU64       0.1161
     93  CD        51.8110  -22.2660  -17.1740 C.2    64  GLU64       0.3649
     94  OE1       52.8470  -21.7350  -17.6250 O.co2  64  GLU64      -0.2457
     95  OE2       51.8270  -23.3050  -16.4810 O.co2  64  GLU64      -0.2457
     96  N         47.8710  -19.6990  -18.3440 N.am   65  SER65      -0.1938
     97  CA        47.5290  -18.6320  -19.2750 C.3    65  SER65       0.2055
     98  C         48.5450  -18.4760  -20.3980 C.2    65  SER65       0.2643
     99  O         49.7480  -18.6320  -20.1930 O.2    65  SER65      -0.2714
    100  CB        47.3870  -17.3050  -18.5290 C.3    65  SER65       0.2130
    101  OG        48.6530  -16.8140  -18.1270 O.3    65  SER65      -0.2179
    102  N         48.0420  -18.1730  -21.5880 N.am   66  PHE66      -0.1959
    103  CA        48.8880  -17.8150  -22.7150 C.3    66  PHE66       0.1771
    104  C         48.5190  -16.4110  -23.1650 C.2    66  PHE66       0.2620
    105  O         47.3660  -16.1430  -23.5000 O.2    66  PHE66      -0.2715
    106  CB        48.7360  -18.8050  -23.8710 C.3    66  PHE66       0.0574
    107  CG        49.6190  -18.4980  -25.0500 C.ar   66  PHE66      -0.0200
    108  CD1       50.9090  -18.9990  -25.1120 C.ar   66  PHE66      -0.0042
    109  CD2       49.1650  -17.7020  -26.0900 C.ar   66  PHE66      -0.0042
    110  CE1       51.7270  -18.7180  -26.1900 C.ar   66  PHE66      -0.0003
    111  CE2       49.9800  -17.4170  -27.1690 C.ar   66  PHE66      -0.0003
    112  CZ        51.2610  -17.9260  -27.2190 C.ar   66  PHE66      -0.0000
    113  N         49.4940  -15.5120  -23.1640 N.am   67  SER67      -0.1950
    114  CA        49.2370  -14.1290  -23.5340 C.3    67  SER67       0.1924
    115  C         50.4290  -13.5210  -24.2560 C.2    67  SER67       0.2314
    116  O         51.5790  -13.8180  -23.9340 O.2    67  SER67      -0.2863
    117  CB        48.8960  -13.3020  -22.2930 C.3    67  SER67       0.2116
    118  OG        48.7480  -11.9310  -22.6180 O.3    67  SER67      -0.2180
    119  N         50.8470  -10.9020  -18.3960 N.3    72  PHE72      -0.1241
    120  CA        49.7090  -11.7900  -18.1790 C.3    72  PHE72       0.1605
    121  C         49.9770  -13.2280  -18.6180 C.2    72  PHE72       0.2264
    122  O         49.0560  -14.0390  -18.6780 O.2    72  PHE72      -0.2867
    123  CB        48.4790  -11.2670  -18.9260 C.3    72  PHE72       0.0534
    124  CG        47.8940  -10.0150  -18.3400 C.ar   72  PHE72      -0.0203
    125  CD1       48.3020   -8.7700  -18.7870 C.ar   72  PHE72      -0.0042
    126  CD2       46.9250  -10.0830  -17.3530 C.ar   72  PHE72      -0.0042
    127  CE1       47.7610   -7.6150  -18.2540 C.ar   72  PHE72      -0.0003
    128  CE2       46.3800   -8.9320  -16.8170 C.ar   72  PHE72      -0.0003
    129  CZ        46.7990   -7.6970  -17.2680 C.ar   72  PHE72      -0.0000
@<TRIPOS>BOND
     1    65    66    1
     2    65    64    1
     3    63    62    1
     4    63    64    1
     5    62    59    1
     6    59    58    1
     7    59    60    1
     8    57    56    1
     9    55    54    2
    10    61    60    2
    11    58    54   am
    12    54    53    1
    13    56    53    1
    14   112   111   ar
    15   112   110   ar
    16   111   109   ar
    17    53    52    1
    18   110   108   ar
    19   109   107   ar
    20    50    49    2
    21    52    46   am
    22   108   107   ar
    23    51    49   am
    24   107   106    1
    25    49    48    1
    26    46    47    2
    27    46    45    1
    28   115   116    2
    29   115   114    1
    30   106   103    1
    31    48    45    1
    32   114   113    1
    33   114   117    1
    34    45    44    1
    35   105   104    2
    36    42    41    1
    37   104   113   am
    38   104   103    1
    39   103   102    1
    40   118   117    1
    41    44    35   am
    42    41    43    1
    43    41    40    2
    44    36    35    2
    45    39    38    1
    46    39    40    1
    47    38    37    1
    48   102    98   am
    49    35    34    1
    50    67    68    1
    51    37    34    1
    52    98    99    2
    53    98    97    1
    54    34    33    1
    55    90    89    2
    56    81    79   ar
    57    81    82   ar
    58    68    69    1
    59    68    71    1
    60    97   100    1
    61    97    96    1
    62    33    21   am
    63    79    78   ar
    64    31    29   ar
    65    31    32   ar
    66    70    69    2
    67   123   124    1
    68   123   120    1
    69    69    73   am
    70   125   124   ar
    71   125   127   ar
    72    89    96   am
    73    89    88    1
    74   122   121    2
    75    29    26   ar
    76   121   120    1
    77    71    72    1
    78   100   101    1
    79    82    84   ar
    80    82    80   ar
    81    84    86   ar
    82   119   120    1
    83   124   126   ar
    84   127   129   ar
    85    73    74    1
    86    32    30   ar
    87    21    22    2
    88    21    20    1
    89    87    88    1
    90    78    80   ar
    91    78    77    1
    92    91    88    1
    93    91    92    1
    94    94    93   ar
    95    74    77    1
    96    74    75    1
    97    92    93    1
    98    80    83   ar
    99   126   128   ar
   100    86    85   ar
   101   129   128   ar
   102    26    24   ar
   103    26    28   ar
   104    93    95   ar
   105    20    23    1
   106    20    19    1
   107    23    24    1
   108    30    28   ar
   109    75    76    2
   110    24    25   ar
   111    28    27   ar
   112    83    85   ar
   113    16    15    2
   114    19    15   am
   115    15    14    1
   116    25    27   ar
   117     9     7   ar
   118     9    11   ar
   119    12    11    1
   120     7     6   ar
   121    11    10   ar
   122    18    17    1
   123    14    17    1
   124    14    13    1
   125     6     5    1
   126     6     8   ar
   127    10     8   ar
   128    13     3   am
   129     5     2    1
   130     3     2    1
   131     3     4    2
   132     2     1    1
