@<TRIPOS>MOLECULE
tmp/5ic4E00.pdb
 90 85 0 0 0
SMALL
GASTEIGER

@<TRIPOS>ATOM
      1  N         68.1930  -42.7180  -26.7970 N.3    28  THR28      -0.1203
      2  CA        68.4690  -42.1130  -25.5010 C.3    28  THR28       0.1994
      3  C         67.5550  -40.9350  -25.2170 C.2    28  THR28       0.2619
      4  O         67.0490  -40.2920  -26.1370 O.2    28  THR28      -0.2717
      5  CB        69.9230  -41.6110  -25.4130 C.3    28  THR28       0.1784
      6  OG1       70.1240  -40.5540  -26.3590 O.3    28  THR28      -0.2211
      7  CG2       70.8950  -42.7290  -25.7070 C.3    28  THR28       0.0376
      8  N         67.3480  -40.6600  -23.9330 N.am   29  SER29      -0.1937
      9  CA        66.5920  -39.4890  -23.5190 C.3    29  SER29       0.2055
     10  C         67.3390  -38.2440  -23.9730 C.2    29  SER29       0.2643
     11  O         68.5590  -38.1630  -23.8380 O.2    29  SER29      -0.2714
     12  CB        66.3830  -39.4770  -22.0060 C.3    29  SER29       0.2130
     13  OG        65.8770  -38.2270  -21.5740 O.3    29  SER29      -0.2179
     14  N         66.6090  -37.2750  -24.5110 N.am   30  ARG30      -0.1963
     15  CA        67.2350  -36.0790  -25.0600 C.3    30  ARG30       0.1729
     16  C         67.2940  -34.9520  -24.0380 C.2    30  ARG30       0.2616
     17  O         66.5740  -33.9640  -24.1540 O.2    30  ARG30      -0.2715
     18  CB        66.4870  -35.6180  -26.3110 C.3    30  ARG30       0.0348
     19  CG        66.4610  -36.6440  -27.4330 C.3    30  ARG30       0.0492
     20  CD        65.7370  -36.1140  -28.6630 C.3    30  ARG30       0.2205
     21  NE        66.2520  -34.8160  -29.0920 N.pl3  30  ARG30      -0.0865
     22  CZ        65.6140  -33.6640  -28.9160 C.cat  30  ARG30       0.5346
     23  NH1       64.4280  -33.6450  -28.3230 N.pl3  30  ARG30       0.1354
     24  NH2       66.1590  -32.5310  -29.3340 N.pl3  30  ARG30       0.1354
     25  N         68.1560  -35.1100  -23.0390 N.am   31  SER31      -0.1950
     26  CA        68.3120  -34.1160  -21.9820 C.3    31  SER31       0.1924
     27  C         68.6860  -32.7430  -22.5340 C.2    31  SER31       0.2314
     28  O         69.6000  -32.6180  -23.3490 O.2    31  SER31      -0.2863
     29  CB        69.3650  -34.5780  -20.9720 C.3    31  SER31       0.2116
     30  OG        69.1050  -35.9010  -20.5360 O.3    31  SER31      -0.2180
     31  N         65.1310  -26.0940  -24.7010 N.3    36  ASP36      -0.1239
     32  CA        64.8400  -25.6820  -26.0710 C.3    36  ASP36       0.1674
     33  C         63.3700  -25.3180  -26.2340 C.2    36  ASP36       0.2266
     34  O         63.0410  -24.2290  -26.7030 O.2    36  ASP36      -0.2867
     35  CB        65.2060  -26.7880  -27.0660 C.3    36  ASP36       0.1410
     36  CG        66.6980  -26.8900  -27.3090 C.2    36  ASP36       0.3668
     37  OD1       67.4350  -25.9650  -26.9100 O.co2  36  ASP36      -0.2456
     38  OD2       67.1320  -27.8950  -27.9100 O.co2  36  ASP36      -0.2456
     39  N         63.5640  -33.8310  -31.8680 N.3    86  SER86      -0.1202
     40  CA        63.6500  -35.2650  -31.6100 C.3    86  SER86       0.2020
     41  C         64.8910  -35.8850  -32.2340 C.2    86  SER86       0.2619
     42  O         65.7500  -35.1840  -32.7680 O.2    86  SER86      -0.2717
     43  CB        62.4040  -35.9770  -32.1390 C.3    86  SER86       0.2103
     44  OG        62.5130  -37.3790  -31.9760 O.3    86  SER86      -0.2182
     45  N         64.9760  -37.2100  -32.1610 N.am   87  HIS87      -0.1961
     46  CA        66.0130  -37.9430  -32.8700 C.3    87  HIS87       0.1787
     47  C         65.6450  -37.9620  -34.3400 C.2    87  HIS87       0.2620
     48  O         64.4750  -37.8140  -34.6910 O.2    87  HIS87      -0.2715
     49  CB        66.1560  -39.3710  -32.3370 C.3    87  HIS87       0.0785
     50  CG        66.8080  -39.4570  -30.9930 C.ar   87  HIS87       0.0821
     51  ND1       68.1100  -39.0660  -30.7700 N.ar   87  HIS87      -0.2267
     52  CD2       66.3390  -39.8980  -29.8010 C.ar   87  HIS87       0.1154
     53  CE1       68.4130  -39.2550  -29.4990 C.ar   87  HIS87       0.1986
     54  NE2       67.3560  -39.7590  -28.8880 N.ar   87  HIS87      -0.2212
     55  N         66.6340  -38.1300  -35.2070 N.am   88  GLY88      -0.1954
     56  CA        66.3440  -38.1690  -36.6240 C.3    88  GLY88       0.1869
     57  C         67.3330  -38.9080  -37.4970 C.2    88  GLY88       0.2309
     58  O         68.3630  -39.4020  -37.0440 O.2    88  GLY88      -0.2863
     59  N         65.1520  -29.9030  -35.4860 N.3   127  GLN127     -0.1231
     60  CA        66.3280  -30.2150  -34.6880 C.3   127  GLN127      0.1698
     61  C         66.4140  -31.7280  -34.5360 C.2   127  GLN127      0.2592
     62  O         65.7790  -32.3210  -33.6630 O.2   127  GLN127     -0.2718
     63  CB        66.2720  -29.5200  -33.3240 C.3   127  GLN127      0.0381
     64  CG        67.2430  -30.0700  -32.2810 C.3   127  GLN127      0.0905
     65  CD        68.6940  -29.8030  -32.6200 C.2   127  GLN127      0.2608
     66  OE1       69.0400  -28.7340  -33.1190 O.2   127  GLN127     -0.2717
     67  NE2       69.5540  -30.7760  -32.3450 N.am  127  GLN127     -0.0878
     68  N         67.1790  -32.3450  -35.4290 N.am  128  ALA128     -0.1966
     69  CA        67.3630  -33.7880  -35.4380 C.3   128  ALA128      0.1728
     70  C         68.5630  -34.1480  -36.2980 C.2   128  ALA128      0.2616
     71  O         69.0200  -33.3390  -37.1050 O.2   128  ALA128     -0.2715
     72  CB        66.1180  -34.4840  -35.9500 C.3   128  ALA128      0.0334
     73  N         69.0720  -35.3620  -36.1270 N.am  129  CYS129     -0.1968
     74  CA        70.1800  -35.8320  -36.9430 C.3   129  CYS129      0.1712
     75  C         69.7240  -36.0500  -38.3780 C.2   129  CYS129      0.2296
     76  O         68.5380  -36.2430  -38.6410 O.2   129  CYS129     -0.2864
     77  CB        70.7650  -37.1230  -36.3710 C.3   129  CYS129      0.0983
     78  SG        71.8500  -36.8790  -34.9530 S.3   129  CYS129     -0.0798
     79  N         71.8860  -38.1060  -40.3540 N.3   131  GLY131     -0.1225
     80  CA        72.8710  -39.1090  -40.7090 C.3   131  GLY131      0.1811
     81  C         73.9130  -39.2560  -39.6180 C.2   131  GLY131      0.2280
     82  O         73.7250  -38.7670  -38.5030 O.2   131  GLY131     -0.2866
     83  N         80.4950  -36.9570  -39.2160 N.3   134  LEU134     -0.1245
     84  CA        80.9950  -36.0170  -38.2240 C.3   134  LEU134      0.1561
     85  C         81.8070  -34.9200  -38.8880 C.2   134  LEU134      0.2260
     86  O         82.6840  -35.1920  -39.7090 O.2   134  LEU134     -0.2867
     87  CB        81.8410  -36.7370  -37.1720 C.3   134  LEU134      0.0270
     88  CG        81.0820  -37.5850  -36.1510 C.3   134  LEU134      0.0019
     89  CD1       82.0160  -38.5670  -35.4680 C.3   134  LEU134      0.0001
     90  CD2       80.4140  -36.6850  -35.1260 C.3   134  LEU134      0.0001
@<TRIPOS>BOND
     1    80    79    1
     2    80    81    1
     3    86    85    2
     4    81    82    2
     5    83    84    1
     6    85    84    1
     7    76    75    2
     8    75    74    1
     9    84    87    1
    10    57    58    2
    11    57    56    1
    12    87    88    1
    13    71    70    2
    14    74    77    1
    15    74    73    1
    16    56    55    1
    17    77    78    1
    18    70    73   am
    19    70    69    1
    20    88    89    1
    21    88    90    1
    22    72    69    1
    23    59    60    1
    24    69    68    1
    25    68    61   am
    26    55    47   am
    27    48    47    2
    28    60    61    1
    29    60    63    1
    30    61    62    2
    31    47    46    1
    32    63    64    1
    33    66    65    2
    34    46    49    1
    35    46    45    1
    36    42    41    2
    37    65    67   am
    38    65    64    1
    39    49    50    1
    40    41    45   am
    41    41    40    1
    42    43    44    1
    43    43    40    1
    44    39    40    1
    45    50    51   ar
    46    50    52   ar
    47    51    53   ar
    48    52    54   ar
    49    53    54   ar
    50    24    22    1
    51    21    22    2
    52    21    20    1
    53    22    23    1
    54    20    19    1
    55    38    36   ar
    56    19    18    1
    57    36    35    1
    58    36    37   ar
    59    35    32    1
    60     1     2    1
    61    34    33    2
    62     6     5    1
    63    18    15    1
    64    33    32    1
    65     4     3    2
    66    32    31    1
    67     7     5    1
    68     2     5    1
    69     2     3    1
    70     3     8   am
    71    15    14    1
    72    15    16    1
    73    14    10   am
    74    17    16    2
    75    16    25   am
    76    10    11    2
    77    10     9    1
    78     8     9    1
    79     9    12    1
    80    28    27    2
    81    25    26    1
    82    27    26    1
    83    12    13    1
    84    26    29    1
    85    29    30    1
