@<TRIPOS>MOLECULE
tmp/5ic6C00.pdb
 86 81 0 0 0
SMALL
GASTEIGER

@<TRIPOS>ATOM
      1  N          7.2590   -7.7270   46.1140 N.3    28  MET28      -0.1245
      2  CA         6.0690   -8.5500   45.9130 C.3    28  MET28       0.1570
      3  C          5.8400   -9.4560   47.1130 C.2    28  MET28       0.2261
      4  O          6.7830  -10.0470   47.6460 O.2    28  MET28      -0.2867
      5  CB         6.1740   -9.3930   44.6380 C.3    28  MET28       0.0387
      6  CG         6.2360   -8.5980   43.3310 C.3    28  MET28       0.0595
      7  SD         5.0460   -7.2380   43.2470 S.3    28  MET28      -0.1393
      8  CE         3.5350   -8.0640   42.7750 C.3    28  MET28       0.0692
      9  N          3.9620  -12.5730   49.5270 N.3    30  VAL30      -0.1231
     10  CA         3.7950  -14.0110   49.4010 C.3    30  VAL30       0.1692
     11  C          2.4500  -14.3120   48.7560 C.2    30  VAL30       0.2592
     12  O          1.4330  -13.7100   49.1070 O.2    30  VAL30      -0.2718
     13  CB         3.8920  -14.7190   50.7630 C.3    30  VAL30       0.0266
     14  CG1        3.5730  -16.1920   50.6170 C.3    30  VAL30       0.0020
     15  CG2        5.2790  -14.5490   51.3390 C.3    30  VAL30       0.0020
     16  N          2.4510  -15.2240   47.7910 N.am   31  ARG31      -0.1966
     17  CA         1.2160  -15.6090   47.1280 C.3    31  ARG31       0.1729
     18  C          0.5780  -16.7970   47.8490 C.2    31  ARG31       0.2616
     19  O          0.5500  -17.9140   47.3310 O.2    31  ARG31      -0.2715
     20  CB         1.4750  -15.9330   45.6540 C.3    31  ARG31       0.0348
     21  CG         1.9640  -14.7360   44.8300 C.3    31  ARG31       0.0492
     22  CD         1.9860  -15.0480   43.3400 C.3    31  ARG31       0.2205
     23  NE         0.6690  -15.4810   42.8820 N.pl3  31  ARG31      -0.0865
     24  CZ         0.3660  -16.7360   42.5660 C.cat  31  ARG31       0.5346
     25  NH1        1.2930  -17.6810   42.6510 N.pl3  31  ARG31       0.1354
     26  NH2       -0.8610  -17.0480   42.1720 N.pl3  31  ARG31       0.1354
     27  N          0.0660  -16.5350   49.0500 N.am   32  ASN32      -0.1972
     28  CA        -0.5990  -17.5500   49.8580 C.3    32  ASN32       0.1688
     29  C         -1.8330  -18.0960   49.1580 C.2    32  ASN32       0.2292
     30  O         -2.6970  -17.3310   48.7290 O.2    32  ASN32      -0.2864
     31  CB        -0.9900  -16.9780   51.2220 C.3    32  ASN32       0.1181
     32  CG         0.1750  -16.9220   52.1880 C.2    32  ASN32       0.2629
     33  OD1        1.0030  -17.8300   52.2320 O.2    32  ASN32      -0.2716
     34  ND2        0.2450  -15.8520   52.9670 N.am   32  ASN32      -0.0877
     35  N          1.9800  -16.9320   39.2620 N.3    87  SER87      -0.1202
     36  CA         2.8840  -15.9510   39.8490 C.3    87  SER87       0.2020
     37  C          2.2670  -14.5580   39.8280 C.2    87  SER87       0.2619
     38  O          1.1240  -14.3910   39.4010 O.2    87  SER87      -0.2717
     39  CB         4.2180  -15.9540   39.0970 C.3    87  SER87       0.2103
     40  OG         5.0850  -14.9480   39.5680 O.3    87  SER87      -0.2182
     41  N          3.0180  -13.5650   40.2990 N.am   88  HIS88      -0.1961
     42  CA         2.6090  -12.1710   40.1600 C.3    88  HIS88       0.1787
     43  C          2.8640  -11.7490   38.7170 C.2    88  HIS88       0.2620
     44  O          3.6170  -12.4070   37.9910 O.2    88  HIS88      -0.2715
     45  CB         3.3770  -11.2480   41.1130 C.3    88  HIS88       0.0785
     46  CG         2.9310  -11.3330   42.5380 C.ar   88  HIS88       0.0821
     47  ND1        1.6610  -10.9850   42.9440 N.ar   88  HIS88      -0.2267
     48  CD2        3.6000  -11.6940   43.6590 C.ar   88  HIS88       0.1154
     49  CE1        1.5570  -11.1570   44.2500 C.ar   88  HIS88       0.1986
     50  NE2        2.7210  -11.5820   44.7080 N.ar   88  HIS88      -0.2212
     51  N          2.2560  -10.6510   38.2920 N.am   89  GLY89      -0.1954
     52  CA         2.5080  -10.1780   36.9500 C.3    89  GLY89       0.1869
     53  C          1.8600   -8.8620   36.6130 C.2    89  GLY89       0.2309
     54  O          1.0200   -8.3560   37.3520 O.2    89  GLY89      -0.2863
     55  N         -1.9530  -17.6110   35.4150 N.3   128  GLN128     -0.1231
     56  CA        -2.6050  -16.9890   36.5580 C.3   128  GLN128      0.1698
     57  C         -1.7330  -15.8390   37.0370 C.2   128  GLN128      0.2592
     58  O         -0.7210  -16.0580   37.7050 O.2   128  GLN128     -0.2718
     59  CB        -2.8360  -17.9980   37.6900 C.3   128  GLN128      0.0381
     60  CG        -3.1330  -17.3510   39.0500 C.3   128  GLN128      0.0905
     61  CD        -4.4470  -16.5960   39.0710 C.2   128  GLN128      0.2608
     62  OE1       -5.4260  -17.0110   38.4550 O.2   128  GLN128     -0.2717
     63  NE2       -4.4770  -15.4860   39.7860 N.am  128  GLN128     -0.0878
     64  N         -2.1120  -14.6210   36.6700 N.am  129  ALA129     -0.1966
     65  CA        -1.3270  -13.4320   36.9930 C.3   129  ALA129      0.1728
     66  C         -2.1010  -12.1730   36.6390 C.2   129  ALA129      0.2616
     67  O         -3.0150  -12.2100   35.8200 O.2   129  ALA129     -0.2715
     68  CB         0.0040  -13.4510   36.2600 C.3   129  ALA129      0.0334
     69  N         -1.7390  -11.0570   37.2540 N.am  130  CYS130     -0.1968
     70  CA        -2.3400   -9.7860   36.8850 C.3   130  CYS130      0.1712
     71  C         -1.8850   -9.3680   35.4900 C.2   130  CYS130      0.2296
     72  O         -0.8680   -9.8460   34.9750 O.2   130  CYS130     -0.2864
     73  CB        -1.9970   -8.6960   37.9030 C.3   130  CYS130      0.0983
     74  SG        -2.9320   -8.7790   39.4460 S.3   130  CYS130     -0.0798
     75  N         -2.4790   -5.8830   34.7090 N.3   132  GLY132     -0.1225
     76  CA        -2.7350   -4.4630   34.8510 C.3   132  GLY132      0.1811
     77  C         -3.3640   -4.1700   36.1990 C.2   132  GLY132      0.2280
     78  O         -3.3300   -5.0050   37.1090 O.2   132  GLY132     -0.2866
     79  N        -10.0190   -2.4610   37.7800 N.3   135  LEU135     -0.1245
     80  CA       -10.9070   -3.2680   38.5990 C.3   135  LEU135      0.1561
     81  C        -12.2600   -3.4030   37.9130 C.2   135  LEU135      0.2260
     82  O        -12.7740   -2.4340   37.3380 O.2   135  LEU135     -0.2867
     83  CB       -11.0750   -2.6440   39.9850 C.3   135  LEU135      0.0270
     84  CG        -9.8560   -2.7150   40.9040 C.3   135  LEU135      0.0019
     85  CD1       -9.9520   -1.6670   42.0100 C.3   135  LEU135      0.0001
     86  CD2       -9.7010   -4.1150   41.4870 C.3   135  LEU135      0.0001
@<TRIPOS>BOND
     1    75    76    1
     2    76    77    1
     3    72    71    2
     4    55    56    1
     5    71    70    1
     6    67    66    2
     7    77    78    2
     8    68    65    1
     9    56    57    1
    10    56    59    1
    11    53    52    1
    12    53    54    2
    13    66    65    1
    14    66    69   am
    15    64    65    1
    16    64    57   am
    17    70    69    1
    18    70    73    1
    19    52    51    1
    20    57    58    2
    21    82    81    2
    22    59    60    1
    23    79    80    1
    24    73    74    1
    25    81    80    1
    26    44    43    2
    27    51    43   am
    28    62    61    2
    29    80    83    1
    30    43    42    1
    31    60    61    1
    32    61    63   am
    33    39    40    1
    34    39    36    1
    35    35    36    1
    36    38    37    2
    37    37    36    1
    38    37    41   am
    39    83    84    1
    40    42    41    1
    41    42    45    1
    42    84    86    1
    43    84    85    1
    44    45    46    1
    45    26    24    1
    46    46    47   ar
    47    46    48   ar
    48    24    25    1
    49    24    23    2
    50     8     7    1
    51    23    22    1
    52    47    49   ar
    53     7     6    1
    54     6     5    1
    55    22    21    1
    56    48    50   ar
    57    49    50   ar
    58     5     2    1
    59    21    20    1
    60    20    17    1
    61     2     1    1
    62     2     3    1
    63     3     4    2
    64    17    16    1
    65    17    18    1
    66    19    18    2
    67    16    11   am
    68    18    27   am
    69    30    29    2
    70    11    12    2
    71    11    10    1
    72    27    28    1
    73    29    28    1
    74    10     9    1
    75    10    13    1
    76    28    31    1
    77    14    13    1
    78    13    15    1
    79    31    32    1
    80    32    33    2
    81    32    34   am
