@<TRIPOS>MOLECULE
tmp/5ic6D00.pdb
 117 120 0 0 0
SMALL
GASTEIGER

@<TRIPOS>ATOM
      1  N         -6.7330   -6.5210   37.1210 N.3    19  TYR19      -0.1227
      2  CA        -6.2410   -7.3270   38.2290 C.3    19  TYR19       0.1736
      3  C         -6.7000   -8.7750   38.1000 C.2    19  TYR19       0.2596
      4  O         -7.7170   -9.0570   37.4610 O.2    19  TYR19      -0.2718
      5  CB        -6.7360   -6.7540   39.5620 C.3    19  TYR19       0.0548
      6  CG        -5.9060   -5.6330   40.1410 C.ar   19  TYR19      -0.0200
      7  CD1       -4.6070   -5.8610   40.5730 C.ar   19  TYR19      -0.0009
      8  CD2       -6.4220   -4.3480   40.2580 C.ar   19  TYR19      -0.0009
      9  CE1       -3.8450   -4.8450   41.1110 C.ar   19  TYR19       0.0417
     10  CE2       -5.6670   -3.3200   40.7950 C.ar   19  TYR19       0.0417
     11  CZ        -4.3770   -3.5760   41.2170 C.ar   19  TYR19       0.1957
     12  OH        -3.6160   -2.5620   41.7540 O.3    19  TYR19      -0.2866
     13  N         -5.9490   -9.6890   38.7060 N.am   20  SER20      -0.1938
     14  CA        -6.4010  -11.0660   38.8540 C.3    20  SER20       0.2055
     15  C         -6.5010  -11.4060   40.3520 C.2    20  SER20       0.2643
     16  O         -5.6340  -11.0230   41.1410 O.2    20  SER20      -0.2714
     17  CB        -5.4590  -12.0240   38.1170 C.3    20  SER20       0.2130
     18  OG        -5.9110  -13.3620   38.2070 O.3    20  SER20      -0.2179
     19  N         -7.5440  -12.1320   40.7430 N.am   21  TRP21      -0.1959
     20  CA        -7.8330  -12.3420   42.1580 C.3    21  TRP21       0.1771
     21  C         -7.4760  -13.7310   42.6760 C.2    21  TRP21       0.2620
     22  O         -7.5420  -14.7180   41.9460 O.2    21  TRP21      -0.2715
     23  CB        -9.3110  -12.0660   42.4230 C.3    21  TRP21       0.0590
     24  CG        -9.6290  -10.6190   42.3430 C.ar   21  TRP21       0.0006
     25  CD1      -10.0510   -9.9310   41.2430 C.ar   21  TRP21       0.0946
     26  CD2       -9.5100   -9.6570   43.3990 C.ar   21  TRP21       0.0152
     27  NE1      -10.2190   -8.6020   41.5530 N.ar   21  TRP21      -0.2442
     28  CE2       -9.8960   -8.4080   42.8710 C.ar   21  TRP21       0.0810
     29  CE3       -9.1230   -9.7330   44.7430 C.ar   21  TRP21       0.0012
     30  CZ2       -9.9060   -7.2420   43.6380 C.ar   21  TRP21       0.0191
     31  CZ3       -9.1360   -8.5790   45.5030 C.ar   21  TRP21       0.0001
     32  CH2       -9.5230   -7.3470   44.9470 C.ar   21  TRP21       0.0015
     33  N         -7.0970  -13.7850   43.9500 N.am   22  ARG22      -0.1963
     34  CA        -6.7270  -15.0270   44.6180 C.3    22  ARG22       0.1729
     35  C         -7.2100  -15.0260   46.0740 C.2    22  ARG22       0.2617
     36  O         -7.1340  -14.0060   46.7620 O.2    22  ARG22      -0.2715
     37  CB        -5.2080  -15.2270   44.5610 C.3    22  ARG22       0.0348
     38  CG        -4.6770  -16.3480   45.4520 C.3    22  ARG22       0.0492
     39  CD        -3.1650  -16.5060   45.3250 C.3    22  ARG22       0.2205
     40  NE        -2.4810  -15.2160   45.2610 N.pl3  22  ARG22      -0.0865
     41  CZ        -2.1810  -14.4690   46.3210 C.cat  22  ARG22       0.5346
     42  NH1       -2.5070  -14.8780   47.5430 N.pl3  22  ARG22       0.1354
     43  NH2       -1.5570  -13.3090   46.1590 N.pl3  22  ARG22       0.1354
     44  N         -7.7050  -16.1730   46.5350 N.am   23  SER23      -0.1936
     45  CA        -8.1140  -16.3430   47.9270 C.3    23  SER23       0.2040
     46  C         -7.0410  -17.1180   48.6700 C.2    23  SER23       0.2485
     47  O         -6.7660  -18.2650   48.3360 O.2    23  SER23      -0.2729
     48  CB        -9.4500  -17.0870   48.0330 C.3    23  SER23       0.2129
     49  OG       -10.5470  -16.2090   47.8600 O.3    23  SER23      -0.2179
     50  N         -6.4300  -16.4940   49.6850 N.am   24  PRO24      -0.2726
     51  CA        -5.3640  -17.1430   50.4580 C.3    24  PRO24       0.1402
     52  C         -5.7640  -18.5150   51.0090 C.2    24  PRO24       0.2269
     53  O         -4.9020  -19.3820   51.1880 O.2    24  PRO24      -0.2865
     54  CB        -5.0990  -16.1450   51.5980 C.3    24  PRO24       0.0296
     55  CG        -6.2580  -15.1820   51.5690 C.3    24  PRO24       0.0237
     56  CD        -6.6820  -15.1190   50.1440 C.3    24  PRO24       0.0939
     57  N         -6.3560  -19.2620   43.8220 N.3    28  SER28      -0.1202
     58  CA        -6.8000  -18.2560   42.8600 C.3    28  SER28       0.2020
     59  C         -8.1440  -18.6630   42.2540 C.2    28  SER28       0.2618
     60  O         -8.4190  -19.8560   42.0760 O.2    28  SER28      -0.2717
     61  CB        -5.7510  -18.0470   41.7690 C.3    28  SER28       0.2103
     62  OG        -5.5700  -19.2130   40.9900 O.3    28  SER28      -0.2182
     63  N         -8.9820  -17.6710   41.9630 N.am   29  TRP29      -0.1975
     64  CA       -10.3220  -17.9100   41.4340 C.3    29  TRP29       0.1640
     65  C        -10.2870  -18.7380   40.1640 C.2    29  TRP29       0.2290
     66  O        -11.0690  -19.6700   39.9990 O.2    29  TRP29      -0.2864
     67  CB       -11.0370  -16.5920   41.1510 C.3    29  TRP29       0.0576
     68  CG       -11.3240  -15.7500   42.3510 C.ar   29  TRP29       0.0006
     69  CD1      -11.0950  -16.0660   43.6590 C.ar   29  TRP29       0.0946
     70  CD2      -11.8870  -14.4330   42.3470 C.ar   29  TRP29       0.0152
     71  NE1      -11.4960  -15.0320   44.4710 N.ar   29  TRP29      -0.2442
     72  CE2      -11.9840  -14.0170   43.6920 C.ar   29  TRP29       0.0810
     73  CE3      -12.3240  -13.5670   41.3370 C.ar   29  TRP29       0.0012
     74  CZ2      -12.4960  -12.7710   44.0520 C.ar   29  TRP29       0.0191
     75  CZ3      -12.8380  -12.3290   41.6990 C.ar   29  TRP29       0.0001
     76  CH2      -12.9160  -11.9430   43.0440 C.ar   29  TRP29       0.0015
     77  N        -16.5470  -12.9580   44.1470 N.3    63  GLU63      -0.1231
     78  CA       -16.6070  -11.5220   44.4080 C.3    63  GLU63       0.1699
     79  C        -15.6130  -11.1660   45.5160 C.2    63  GLU63       0.2593
     80  O        -15.5940  -11.8030   46.5720 O.2    63  GLU63      -0.2718
     81  CB       -18.0250  -11.1050   44.7940 C.3    63  GLU63       0.0402
     82  CG       -18.2640   -9.6090   44.7920 C.3    63  GLU63       0.1161
     83  CD       -19.7270   -9.2700   44.5790 C.2    63  GLU63       0.3649
     84  OE1      -20.3320   -9.8320   43.6410 O.co2  63  GLU63      -0.2457
     85  OE2      -20.2710   -8.4390   45.3370 O.co2  63  GLU63      -0.2457
     86  N        -14.8040  -10.1390   45.2850 N.am   64  SER64      -0.1938
     87  CA       -13.6760   -9.8550   46.1640 C.3    64  SER64       0.2055
     88  C        -14.0550   -9.4300   47.5850 C.2    64  SER64       0.2643
     89  O        -14.9690   -8.6330   47.8000 O.2    64  SER64      -0.2714
     90  CB       -12.8030   -8.7680   45.5570 C.3    64  SER64       0.2130
     91  OG       -13.3650   -7.5000   45.8300 O.3    64  SER64      -0.2179
     92  N        -13.3390   -9.9950   48.5480 N.am   65  GLN65      -0.1963
     93  CA       -13.4830   -9.6290   49.9430 C.3    65  GLN65       0.1733
     94  C        -12.2380   -8.8730   50.3910 C.2    65  GLN65       0.2617
     95  O        -11.1350   -9.4270   50.3790 O.2    65  GLN65      -0.2715
     96  CB       -13.7200  -10.8580   50.8210 C.3    65  GLN65       0.0408
     97  CG       -15.0580  -11.5400   50.5780 C.3    65  GLN65       0.0908
     98  CD       -15.9870  -11.4500   51.7710 C.2    65  GLN65       0.2608
     99  OE1      -16.3580  -10.3540   52.2010 O.2    65  GLN65      -0.2717
    100  NE2      -16.3650  -12.6060   52.3210 N.am   65  GLN65      -0.0878
    101  N        -12.3990   -7.5850   50.6900 N.am   66  SER66      -0.1950
    102  CA       -11.2850   -6.7750   51.1740 C.3    66  SER66       0.1924
    103  C        -11.7010   -5.8250   52.2940 C.2    66  SER66       0.2314
    104  O        -12.8040   -5.2770   52.2840 O.2    66  SER66      -0.2863
    105  CB       -10.6700   -5.9710   50.0230 C.3    66  SER66       0.2116
    106  OG        -9.6700   -5.0860   50.4980 O.3    66  SER66      -0.2180
    107  N        -11.2040   -1.9800   47.1370 N.3    71  PHE71      -0.1241
    108  CA       -10.9400   -3.2940   46.5480 C.3    71  PHE71       0.1605
    109  C        -11.9650   -4.3860   46.8620 C.2    71  PHE71       0.2264
    110  O        -11.7420   -5.5420   46.5180 O.2    71  PHE71      -0.2867
    111  CB        -9.5650   -3.7970   46.9960 C.3    71  PHE71       0.0534
    112  CG        -8.4180   -2.9970   46.4630 C.ar   71  PHE71      -0.0203
    113  CD1       -7.8100   -2.0320   47.2490 C.ar   71  PHE71      -0.0042
    114  CD2       -7.9460   -3.2060   45.1790 C.ar   71  PHE71      -0.0042
    115  CE1       -6.7500   -1.2850   46.7650 C.ar   71  PHE71      -0.0003
    116  CE2       -6.8850   -2.4690   44.6880 C.ar   71  PHE71      -0.0003
    117  CZ        -6.2870   -1.5030   45.4810 C.ar   71  PHE71      -0.0000
@<TRIPOS>BOND
     1     1     2    1
     2     4     3    2
     3     3     2    1
     4     3    13   am
     5    17    18    1
     6    17    14    1
     7     2     5    1
     8    13    14    1
     9    14    15    1
    10     5     6    1
    11    66    65    2
    12     6     8   ar
    13     6     7   ar
    14    65    64    1
    15     8    10   ar
    16    15    19   am
    17    15    16    2
    18     7     9   ar
    19    19    20    1
    20    10    11   ar
    21    62    61    1
    22     9    11   ar
    23    67    64    1
    24    67    68    1
    25    11    12    1
    26    25    27   ar
    27    25    24   ar
    28    73    75   ar
    29    73    70   ar
    30    64    63    1
    31    27    28   ar
    32    75    76   ar
    33    61    58    1
    34    22    21    2
    35    63    59   am
    36    60    59    2
    37    20    23    1
    38    20    21    1
    39    59    58    1
    40    24    23    1
    41    24    26   ar
    42    70    68   ar
    43    70    72   ar
    44    68    69   ar
    45    21    33   am
    46    58    57    1
    47    28    26   ar
    48    28    30   ar
    49    76    74   ar
    50    26    29   ar
    51    30    32   ar
    52    84    83   ar
    53    69    71   ar
    54    72    74   ar
    55    72    71   ar
    56    33    34    1
    57    77    78    1
    58    78    81    1
    59    78    79    1
    60    37    34    1
    61    37    38    1
    62    83    82    1
    63    83    85   ar
    64    34    35    1
    65   116   114   ar
    66   116   117   ar
    67    29    31   ar
    68    82    81    1
    69    32    31   ar
    70   114   112   ar
    71    40    39    1
    72    40    41    2
    73    86    79   am
    74    86    87    1
    75    39    38    1
    76   117   115   ar
    77    79    80    2
    78    90    91    1
    79    90    87    1
    80    35    44   am
    81    35    36    2
    82    43    41    1
    83    87    88    1
    84    41    42    1
    85   112   111    1
    86   112   113   ar
    87   110   109    2
    88    44    45    1
    89   108   109    1
    90   108   111    1
    91   108   107    1
    92   115   113   ar
    93    88    89    2
    94    88    92   am
    95    49    48    1
    96    45    48    1
    97    45    46    1
    98    47    46    2
    99    92    93    1
   100    46    50   am
   101    50    56    1
   102    50    51    1
   103    93    94    1
   104    93    96    1
   105   105   106    1
   106   105   102    1
   107    56    55    1
   108    95    94    2
   109    94   101   am
   110    51    52    1
   111    51    54    1
   112    97    96    1
   113    97    98    1
   114   101   102    1
   115    52    53    2
   116   102   103    1
   117    55    54    1
   118    98    99    2
   119    98   100   am
   120   104   103    2
