@<TRIPOS>MOLECULE
tmp/5iccA00.pdb
 204 202 0 0 0
SMALL
GASTEIGER

@<TRIPOS>ATOM
      1  N        -10.1200   16.3190    7.8870 N.3   151  TRP151     -0.1241
      2  CA        -9.7720   17.6960    8.3010 C.3   151  TRP151      0.1605
      3  C         -9.4120   17.7860    9.7920 C.2   151  TRP151      0.2264
      4  O         -8.4370   18.4680   10.1480 O.2   151  TRP151     -0.2867
      5  CB       -10.9180   18.6940    7.9470 C.3   151  TRP151      0.0550
      6  CG       -11.3370   18.4810    6.4750 C.ar  151  TRP151      0.0003
      7  CD1      -12.5850   18.2140    6.0340 C.ar  151  TRP151      0.0946
      8  CD2      -10.4670   18.4440    5.3360 C.ar  151  TRP151      0.0152
      9  NE1      -12.5650   18.0470    4.6140 N.ar  151  TRP151     -0.2442
     10  CE2      -11.2870   18.1920    4.1790 C.ar  151  TRP151      0.0810
     11  CE3       -9.0910   18.5880    5.1580 C.ar  151  TRP151      0.0012
     12  CZ2      -10.7550   18.0610    2.8760 C.ar  151  TRP151      0.0191
     13  CZ3       -8.5720   18.4350    3.8590 C.ar  151  TRP151      0.0001
     14  CH2       -9.4010   18.1900    2.7450 C.ar  151  TRP151      0.0015
     15  N          0.4130   16.8190    3.6740 N.3   164  PHE164     -0.1227
     16  CA        -0.7550   16.9480    2.8260 C.3   164  PHE164      0.1736
     17  C         -0.7680   18.3320    2.1620 C.2   164  PHE164      0.2595
     18  O         -1.0230   18.4510    0.9210 O.2   164  PHE164     -0.2718
     19  CB        -2.0380   16.7250    3.6560 C.3   164  PHE164      0.0547
     20  CG        -3.2840   16.9790    2.8930 C.ar  164  PHE164     -0.0202
     21  CD1       -3.8410   15.9520    2.1380 C.ar  164  PHE164     -0.0042
     22  CD2       -3.9010   18.2290    2.9050 C.ar  164  PHE164     -0.0042
     23  CE1       -5.0470   16.1740    1.3940 C.ar  164  PHE164     -0.0003
     24  CE2       -5.0810   18.4650    2.1040 C.ar  164  PHE164     -0.0003
     25  CZ        -5.6220   17.3960    1.3970 C.ar  164  PHE164     -0.0000
     26  N         -0.5720   19.3840    2.9640 N.am  165  ASN165     -0.1974
     27  CA        -0.6040   20.7430    2.4050 C.3   165  ASN165      0.1688
     28  C          0.4260   20.9540    1.3270 C.2   165  ASN165      0.2292
     29  O          0.1870   21.6830    0.3510 O.2   165  ASN165     -0.2864
     30  CB        -0.4360   21.8300    3.4950 C.3   165  ASN165      0.1181
     31  CG        -1.5630   21.8220    4.5030 C.2   165  ASN165      0.2629
     32  OD1       -2.7000   21.4380    4.1950 O.2   165  ASN165     -0.2716
     33  ND2       -1.2740   22.3100    5.7200 N.am  165  ASN165     -0.0877
     34  N         -0.7800   19.3080   -1.9230 N.3   168  MET168     -0.1230
     35  CA        -1.7610   20.1800   -2.6140 C.3   168  MET168      0.1702
     36  C         -1.0290   21.4130   -3.1990 C.2   168  MET168      0.2592
     37  O         -1.3780   21.8790   -4.2880 O.2   168  MET168     -0.2718
     38  CB        -2.8510   20.6310   -1.6230 C.3   168  MET168      0.0401
     39  CG        -3.6710   19.4280   -1.0660 C.3   168  MET168      0.0596
     40  SD        -4.2990   18.3050   -2.3530 S.3   168  MET168     -0.1393
     41  CE        -5.2100   19.3590   -3.4760 C.3   168  MET168      0.0692
     42  N         -0.0320   21.9400   -2.4670 N.am  169  ALA169     -0.1980
     43  CA         0.7740   23.0000   -3.0090 C.3   169  ALA169      0.1597
     44  C          1.3950   22.5720   -4.3430 C.2   169  ALA169      0.2287
     45  O          1.3840   23.3410   -5.3150 O.2   169  ALA169     -0.2864
     46  CB         1.8980   23.4070   -2.0200 C.3   169  ALA169      0.0319
     47  N         -1.1100   22.4200   -7.1690 N.3   172  THR172     -0.1218
     48  CA        -1.3730   23.8160   -7.5960 C.3   172  THR172      0.1862
     49  C         -0.2700   24.3850   -8.4910 C.2   172  THR172      0.2287
     50  O         -0.5510   24.9930   -9.5630 O.2   172  THR172     -0.2866
     51  CB        -1.5870   24.7020   -6.3020 C.3   172  THR172      0.1770
     52  OG1       -2.6740   24.1570   -5.5980 O.3   172  THR172     -0.2211
     53  CG2       -1.9610   26.1890   -6.7140 C.3   172  THR172      0.0375
     54  N         -9.3620   33.1190   -2.2490 N.3   195  ASP195     -0.1239
     55  CA        -9.1930   31.6780   -2.5860 C.3   195  ASP195      0.1674
     56  C         -9.6900   30.8810   -1.3740 C.2   195  ASP195      0.2266
     57  O         -9.0090   30.7550   -0.3770 O.2   195  ASP195     -0.2867
     58  CB        -7.7360   31.3800   -2.8950 C.3   195  ASP195      0.1410
     59  CG        -7.5380   29.9710   -3.4470 C.2   195  ASP195      0.3668
     60  OD1       -8.5460   29.3030   -3.7890 O.co2 195  ASP195     -0.2456
     61  OD2       -6.3670   29.5300   -3.5210 O.co2 195  ASP195     -0.2456
     62  N        -10.6010   27.9710    0.9230 N.3   197  GLY197     -0.1210
     63  CA        -9.9180   26.6560    1.1300 C.3   197  GLY197      0.1956
     64  C         -8.5990   26.7040    0.4020 C.2   197  GLY197      0.2612
     65  O         -8.1510   25.6930   -0.1640 O.2   197  GLY197     -0.2717
     66  N         -7.9770   27.9470    0.3470 N.am  198  GLY198     -0.1942
     67  CA        -6.8100   28.2030   -0.5750 C.3   198  GLY198      0.2014
     68  C         -5.4950   27.5500   -0.1090 C.2   198  GLY198      0.2639
     69  O         -4.4400   27.7700   -0.7490 O.2   198  GLY198     -0.2714
     70  N         -5.5540   26.6920    0.9760 N.am  199  GLY199     -0.1954
     71  CA        -4.3800   25.9120    1.3700 C.3   199  GLY199      0.1869
     72  C         -3.3190   26.8480    1.9250 C.2   199  GLY199      0.2309
     73  O         -3.6520   27.8690    2.5720 O.2   199  GLY199     -0.2863
     74  N         -7.9980   31.9030    2.3160 N.3   219  TYR219     -0.1227
     75  CA        -8.9020   31.5860    3.4090 C.3   219  TYR219      0.1736
     76  C         -8.9020   30.0550    3.5670 C.2   219  TYR219      0.2595
     77  O         -9.1530   29.3270    2.6160 O.2   219  TYR219     -0.2718
     78  CB       -10.2960   32.0920    3.0040 C.3   219  TYR219      0.0548
     79  CG       -11.3920   31.7970    4.0090 C.ar  219  TYR219     -0.0200
     80  CD1      -11.2780   32.2310    5.3140 C.ar  219  TYR219     -0.0009
     81  CD2      -12.6090   31.2070    3.6080 C.ar  219  TYR219     -0.0009
     82  CE1      -12.3440   31.9980    6.2420 C.ar  219  TYR219      0.0417
     83  CE2      -13.6330   30.9940    4.4940 C.ar  219  TYR219      0.0417
     84  CZ       -13.4830   31.3860    5.8210 C.ar  219  TYR219      0.1957
     85  OH       -14.5100   31.1920    6.7050 O.3   219  TYR219     -0.2866
     86  N         -8.6600   29.5830    4.7940 N.am  220  ASP220     -0.1960
     87  CA        -8.6880   28.1490    5.0670 C.3   220  ASP220      0.1840
     88  C         -8.9200   27.9440    6.5480 C.2   220  ASP220      0.2621
     89  O         -9.1170   28.9390    7.3000 O.2   220  ASP220     -0.2715
     90  CB        -7.3470   27.5130    4.6200 C.3   220  ASP220      0.1450
     91  CG        -7.5110   26.0270    4.2160 C.2   220  ASP220      0.3671
     92  OD1       -7.8590   25.1960    5.0810 O.co2 220  ASP220     -0.2456
     93  OD2       -7.3190   25.7250    3.0270 O.co2 220  ASP220     -0.2456
     94  N         -8.8830   26.6970    7.0040 N.am  221  LEU221     -0.1977
     95  CA        -9.0310   26.4130    8.4540 C.3   221  LEU221      0.1596
     96  C         -7.8180   26.8830    9.2100 C.2   221  LEU221      0.2287
     97  O         -6.6900   26.9490    8.6550 O.2   221  LEU221     -0.2864
     98  CB        -9.2190   24.8630    8.6550 C.3   221  LEU221      0.0297
     99  CG       -10.5250   24.3250    8.0330 C.3   221  LEU221      0.0022
    100  CD1      -10.4150   22.7660    7.9500 C.3   221  LEU221      0.0001
    101  CD2      -11.7220   24.7680    8.9060 C.3   221  LEU221      0.0001
    102  N         -5.7350   25.4570   11.3020 N.3   223  HIS223     -0.1226
    103  CA        -4.5230   24.5940   11.2590 C.3   223  HIS223      0.1752
    104  C         -3.7800   24.6110    9.9360 C.2   223  HIS223      0.2595
    105  O         -2.6180   24.2270    9.8650 O.2   223  HIS223     -0.2718
    106  CB        -4.8680   23.1620   11.7020 C.3   223  HIS223      0.0759
    107  CG        -5.8330   22.4520   10.8060 C.ar  223  HIS223      0.0818
    108  ND1       -5.4460   21.8160    9.6380 N.ar  223  HIS223     -0.2268
    109  CD2       -7.1790   22.3240   10.8740 C.ar  223  HIS223      0.1154
    110  CE1       -6.5110   21.3190    9.0380 C.ar  223  HIS223      0.1986
    111  NE2       -7.5710   21.6110    9.7620 N.ar  223  HIS223     -0.2212
    112  N         -4.4470   25.0810    8.8740 N.am  224  VAL224     -0.1980
    113  CA        -3.7460   25.2490    7.5800 C.3   224  VAL224      0.1595
    114  C         -3.0930   26.6160    7.4940 C.2   224  VAL224      0.2287
    115  O         -1.9400   26.7410    7.0150 O.2   224  VAL224     -0.2864
    116  CB        -4.7370   25.0100    6.3990 C.3   224  VAL224      0.0276
    117  CG1       -4.0390   25.2980    5.0280 C.3   224  VAL224      0.0022
    118  CG2       -5.2540   23.5880    6.4290 C.3   224  VAL224      0.0022
    119  N        -10.9600   30.4140    9.0810 N.3   239  GLY239     -0.1210
    120  CA       -12.3830   30.2480    9.4070 C.3   239  GLY239      0.1956
    121  C        -12.9960   28.9800    8.8380 C.2   239  GLY239      0.2612
    122  O        -12.2810   28.0420    8.4360 O.2   239  GLY239     -0.2717
    123  N        -14.3240   28.9220    8.8420 N.am  240  ASP240     -0.1959
    124  CA       -15.0400   27.7760    8.3390 C.3   240  ASP240      0.1840
    125  C        -15.9180   28.2500    7.1860 C.2   240  ASP240      0.2622
    126  O        -16.8840   29.0260    7.3890 O.2   240  ASP240     -0.2715
    127  CB       -15.8780   27.1680    9.5040 C.3   240  ASP240      0.1450
    128  CG       -16.7980   26.0750    9.0650 C.2   240  ASP240      0.3671
    129  OD1      -16.7990   25.6200    7.8870 O.co2 240  ASP240     -0.2456
    130  OD2      -17.5770   25.6210    9.9380 O.co2 240  ASP240     -0.2456
    131  N        -15.6170   27.7490    5.9640 N.am  241  MET241     -0.1963
    132  CA       -16.3070   28.1980    4.7490 C.3   241  MET241      0.1736
    133  C        -17.8240   27.8760    4.7500 C.2   241  MET241      0.2616
    134  O        -18.5910   28.4990    4.0080 O.2   241  MET241     -0.2715
    135  CB       -15.6280   27.6110    3.5000 C.3   241  MET241      0.0427
    136  CG       -15.9140   26.0980    3.3160 C.3   241  MET241      0.0599
    137  SD       -14.8500   25.4020    2.0340 S.3   241  MET241     -0.1393
    138  CE       -15.1720   23.6270    2.2940 C.3   241  MET241      0.0692
    139  N        -18.2290   26.9110    5.5740 N.am  242  PHE242     -0.1974
    140  CA       -19.6510   26.5910    5.7040 C.3   242  PHE242      0.1639
    141  C        -20.3680   27.6690    6.4690 C.2   242  PHE242      0.2290
    142  O        -21.5970   27.7930    6.3340 O.2   242  PHE242     -0.2864
    143  CB       -19.8720   25.2310    6.3780 C.3   242  PHE242      0.0560
    144  CG       -19.5720   24.0920    5.4450 C.ar  242  PHE242     -0.0200
    145  CD1      -20.5500   23.6490    4.5540 C.ar  242  PHE242     -0.0042
    146  CD2      -18.3010   23.5110    5.4160 C.ar  242  PHE242     -0.0042
    147  CE1      -20.2720   22.5950    3.6250 C.ar  242  PHE242     -0.0003
    148  CE2      -18.0250   22.4720    4.4990 C.ar  242  PHE242     -0.0003
    149  CZ       -19.0030   22.0210    3.6250 C.ar  242  PHE242     -0.0000
    150  N        -10.2780   25.8140   -5.6510 N.3   254  LYS254     -0.1231
    151  CA        -9.6010   24.7320   -6.3500 C.3   254  LYS254      0.1693
    152  C         -9.5510   23.4900   -5.4830 C.2   254  LYS254      0.2592
    153  O         -9.1410   23.5760   -4.3230 O.2   254  LYS254     -0.2718
    154  CB        -8.1850   25.1630   -6.7200 C.3   254  LYS254      0.0285
    155  CG        -7.3520   23.9790   -7.3380 C.3   254  LYS254      0.0035
    156  CD        -5.9000   24.4560   -7.6770 C.3   254  LYS254      0.0206
    157  CE        -5.0980   23.2560   -8.0740 C.3   254  LYS254      0.1093
    158  NZ        -4.8770   22.2770   -6.9220 N.3   254  LYS254     -0.1314
    159  N         -9.9610   22.3430   -6.0300 N.am  255  CYS255     -0.1956
    160  CA        -9.9710   21.0540   -5.2800 C.3   255  CYS255      0.1843
    161  C        -10.7190   21.1980   -3.9600 C.2   255  CYS255      0.2625
    162  O        -10.3330   20.6340   -2.9280 O.2   255  CYS255     -0.2714
    163  CB        -8.5240   20.5550   -5.0630 C.3   255  CYS255      0.0997
    164  SG        -7.6900   20.1870   -6.6670 S.3   255  CYS255     -0.0797
    165  N        -11.8540   21.9010   -4.0190 N.am  256  ILE256     -0.1977
    166  CA       -12.7310   22.0670   -2.8320 C.3   256  ILE256      0.1596
    167  C        -13.9870   21.2520   -2.9930 C.2   256  ILE256      0.2287
    168  O        -14.2610   20.3760   -2.2050 O.2   256  ILE256     -0.2864
    169  CB       -13.0990   23.5650   -2.5750 C.3   256  ILE256      0.0276
    170  CG1      -11.8660   24.4540   -2.4760 C.3   256  ILE256      0.0022
    171  CG2      -14.0600   23.7330   -1.3360 C.3   256  ILE256      0.0022
    172  CD1      -10.8030   24.0000   -1.3810 C.3   256  ILE256      0.0001
    173  N        -14.8900   18.9550   -4.9460 N.3   258  HIS258     -0.1226
    174  CA       -14.7210   17.4740   -5.0940 C.3   258  HIS258      0.1752
    175  C        -14.5760   16.7800   -3.7240 C.2   258  HIS258      0.2596
    176  O        -14.6180   15.5840   -3.6690 O.2   258  HIS258     -0.2718
    177  CB       -13.5650   17.1180   -6.0210 C.3   258  HIS258      0.0759
    178  CG       -12.1970   17.2090   -5.4040 C.ar  258  HIS258      0.0818
    179  ND1      -11.1310   16.4450   -5.8440 N.ar  258  HIS258     -0.2268
    180  CD2      -11.6940   18.0200   -4.4390 C.ar  258  HIS258      0.1154
    181  CE1      -10.0510   16.7600   -5.1620 C.ar  258  HIS258      0.1986
    182  NE2      -10.3690   17.7210   -4.3190 N.ar  258  HIS258     -0.2212
    183  N        -14.3920   17.5730   -2.6540 N.am  259  ASP259     -0.1960
    184  CA       -14.3570   17.0000   -1.2560 C.3   259  ASP259      0.1840
    185  C        -15.6990   16.7210   -0.6370 C.2   259  ASP259      0.2622
    186  O        -15.7810   16.0820    0.4460 O.2   259  ASP259     -0.2715
    187  CB       -13.5860   17.9340   -0.3100 C.3   259  ASP259      0.1450
    188  CG       -12.1310   18.0930   -0.6700 C.2   259  ASP259      0.3671
    189  OD1      -11.5130   17.2080   -1.3310 O.co2 259  ASP259     -0.2456
    190  OD2      -11.5560   19.1420   -0.2640 O.co2 259  ASP259     -0.2456
    191  N        -16.7740   17.2100   -1.2270 N.am  260  TRP260     -0.1974
    192  CA       -18.0490   17.3020   -0.5390 C.3   260  TRP260      0.1640
    193  C        -19.1590   16.6790   -1.4180 C.2   260  TRP260      0.2290
    194  O        -19.0540   16.6730   -2.6460 O.2   260  TRP260     -0.2864
    195  CB       -18.4090   18.7890   -0.2580 C.3   260  TRP260      0.0576
    196  CG       -17.3170   19.4400    0.4690 C.ar  260  TRP260      0.0006
    197  CD1      -16.3730   20.2570   -0.0410 C.ar  260  TRP260      0.0946
    198  CD2      -17.0500   19.3100    1.8620 C.ar  260  TRP260      0.0152
    199  NE1      -15.4740   20.6180    0.9530 N.ar  260  TRP260     -0.2442
    200  CE2      -15.8660   20.0260    2.1300 C.ar  260  TRP260      0.0810
    201  CE3      -17.6860   18.6380    2.9030 C.ar  260  TRP260      0.0012
    202  CZ2      -15.3070   20.1210    3.4300 C.ar  260  TRP260      0.0191
    203  CZ3      -17.0910   18.7060    4.2250 C.ar  260  TRP260      0.0001
    204  CH2      -15.9480   19.4580    4.4550 C.ar  260  TRP260      0.0015
@<TRIPOS>BOND
     1    50    49    2
     2    49    48    1
     3   157   156    1
     4   157   158    1
     5   156   155    1
     6    48    47    1
     7    48    51    1
     8   155   154    1
     9   154   151    1
    10    53    51    1
    11   164   163    1
    12   151   150    1
    13   151   152    1
    14    51    52    1
    15   159   152   am
    16   159   160    1
    17   177   178    1
    18   177   174    1
    19   179   178   ar
    20   179   181   ar
    21   152   153    2
    22   178   180   ar
    23    45    44    2
    24   160   163    1
    25   160   161    1
    26   181   182   ar
    27   174   173    1
    28   174   175    1
    29   180   182   ar
    30    44    43    1
    31    37    36    2
    32   165   161   am
    33   165   166    1
    34   161   162    2
    35    60    59   ar
    36   175   176    2
    37   175   183   am
    38    61    59   ar
    39    41    40    1
    40    59    58    1
    41    36    35    1
    42    36    42   am
    43    43    42    1
    44    43    46    1
    45   167   166    1
    46   167   168    2
    47    58    55    1
    48   166   169    1
    49   183   184    1
    50   194   193    2
    51    35    34    1
    52    35    38    1
    53    55    54    1
    54    55    56    1
    55   169   170    1
    56   169   171    1
    57   170   172    1
    58    40    39    1
    59    38    39    1
    60   193   192    1
    61    56    57    2
    62   189   188   ar
    63   184   185    1
    64   184   187    1
    65   191   185   am
    66   191   192    1
    67    69    68    2
    68   188   187    1
    69   188   190   ar
    70   185   186    2
    71    67    68    1
    72    67    66    1
    73   192   195    1
    74   195   196    1
    75    65    64    2
    76    68    70   am
    77   197   196   ar
    78   197   199   ar
    79    66    64   am
    80    29    28    2
    81    64    63    1
    82   196   198   ar
    83    18    17    2
    84    62    63    1
    85   199   200   ar
    86    70    71    1
    87    28    27    1
    88    71    72    1
    89    23    25   ar
    90    23    21   ar
    91    25    24   ar
    92   198   200   ar
    93   198   201   ar
    94    72    73    2
    95   137   138    1
    96   137   136    1
    97    24    22   ar
    98   200   202   ar
    99    21    20   ar
   100    17    16    1
   101    17    26   am
   102    74    75    1
   103    27    26    1
   104    27    30    1
   105    77    76    2
   106    14    12   ar
   107    14    13   ar
   108    16    19    1
   109    16    15    1
   110    12    10   ar
   111    20    22   ar
   112    20    19    1
   113   201   203   ar
   114    78    75    1
   115    78    79    1
   116    93    91   ar
   117   136   135    1
   118    75    76    1
   119   202   204   ar
   120    30    31    1
   121   135   132    1
   122    76    86   am
   123    81    79   ar
   124    81    83   ar
   125   147   149   ar
   126   147   145   ar
   127   149   148   ar
   128    13    11   ar
   129   134   133    2
   130    79    80   ar
   131    10     9   ar
   132    10     8   ar
   133    32    31    2
   134    91    90    1
   135    91    92   ar
   136   203   204   ar
   137    83    84   ar
   138   148   146   ar
   139    31    33   am
   140   145   144   ar
   141     9     7   ar
   142    90    87    1
   143   132   133    1
   144   132   131    1
   145   133   139   am
   146    86    87    1
   147   117   116    1
   148    87    88    1
   149    11     8   ar
   150    80    82   ar
   151     8     6   ar
   152   146   144   ar
   153   144   143    1
   154   139   140    1
   155   140   143    1
   156   140   141    1
   157    84    82   ar
   158    84    85    1
   159   131   125   am
   160     7     6   ar
   161   142   141    2
   162   116   118    1
   163   116   113    1
   164     6     5    1
   165    88    94   am
   166    88    89    2
   167    94    95    1
   168   115   114    2
   169   125   126    2
   170   125   124    1
   171   114   113    1
   172   113   112    1
   173     1     2    1
   174   129   128   ar
   175     5     2    1
   176   100    99    1
   177    99    98    1
   178    99   101    1
   179     2     3    1
   180   124   123    1
   181   124   127    1
   182   122   121    2
   183    95    98    1
   184    95    96    1
   185    97    96    2
   186   121   123   am
   187   121   120    1
   188   112   104   am
   189   110   108   ar
   190   110   111   ar
   191   128   127    1
   192   128   130   ar
   193   119   120    1
   194   108   107   ar
   195   111   109   ar
   196     3     4    2
   197   105   104    2
   198   104   103    1
   199   107   109   ar
   200   107   106    1
   201   103   102    1
   202   103   106    1
