@<TRIPOS>MOLECULE
tmp/5iceA01.pdb
 183 173 0 0 0
SMALL
GASTEIGER

@<TRIPOS>ATOM
      1  N         -3.6570   15.9310    4.6270 N.3   112  ALA112     -0.1245
      2  CA        -2.4690   15.0960    4.8010 C.3   112  ALA112      0.1562
      3  C         -2.8030   13.6110    4.5750 C.2   112  ALA112      0.2260
      4  O         -2.0130   12.8690    3.9690 O.2   112  ALA112     -0.2867
      5  CB        -1.8640   15.3470    6.1980 C.3   112  ALA112      0.0290
      6  N         -3.1440   12.8660    0.8940 N.3   115  THR115     -0.1203
      7  CA        -1.8490   12.8480    0.2230 C.3   115  THR115      0.1994
      8  C         -1.0710   11.5640    0.5260 C.2   115  THR115      0.2617
      9  O         -0.5880   10.8830   -0.3840 O.2   115  THR115     -0.2717
     10  CB        -0.9600   14.0970    0.6500 C.3   115  THR115      0.1784
     11  OG1       -1.6790   15.2760    0.2900 O.3   115  THR115     -0.2211
     12  CG2        0.3980   14.0750   -0.0360 C.3   115  THR115      0.0376
     13  N         -0.9270   11.2610    1.8070 N.am  116  ILE116     -0.1979
     14  CA        -0.0260   10.1880    2.1880 C.3   116  ILE116      0.1595
     15  C         -0.5650    8.8180    1.7880 C.2   116  ILE116      0.2287
     16  O          0.2350    7.9200    1.4010 O.2   116  ILE116     -0.2864
     17  CB         0.2220   10.2620    3.7000 C.3   116  ILE116      0.0276
     18  CG1        0.9700   11.5980    4.0050 C.3   116  ILE116      0.0022
     19  CG2        1.1280    9.0610    4.1610 C.3   116  ILE116      0.0022
     20  CD1        0.9740   11.9380    5.5880 C.3   116  ILE116      0.0001
     21  N          1.2920    7.6600   -4.5490 N.3   121  PHE121     -0.1241
     22  CA         2.2750    8.2020   -3.5690 C.3   121  PHE121      0.1605
     23  C          2.7180    7.1610   -2.5480 C.2   121  PHE121      0.2264
     24  O          3.7480    7.3640   -1.8660 O.2   121  PHE121     -0.2867
     25  CB         1.6800    9.4420   -2.8380 C.3   121  PHE121      0.0534
     26  CG         1.5590   10.6760   -3.6950 C.ar  121  PHE121     -0.0203
     27  CD1        2.2440   10.8070   -4.9330 C.ar  121  PHE121     -0.0042
     28  CD2        0.7320   11.7200   -3.2650 C.ar  121  PHE121     -0.0042
     29  CE1        2.1700   11.9940   -5.6810 C.ar  121  PHE121     -0.0003
     30  CE2        0.6410   12.9190   -3.9860 C.ar  121  PHE121     -0.0003
     31  CZ         1.3200   13.0590   -5.2250 C.ar  121  PHE121     -0.0000
     32  N         11.1680    6.9790   -5.4950 N.3   142  PHE142     -0.1241
     33  CA        10.0980    7.6970   -6.1720 C.3   142  PHE142      0.1605
     34  C         10.3020    7.6080   -7.7010 C.2   142  PHE142      0.2264
     35  O          9.3530    7.3130   -8.4300 O.2   142  PHE142     -0.2867
     36  CB        10.0510    9.1670   -5.6810 C.3   142  PHE142      0.0534
     37  CG         8.8600    9.9400   -6.1570 C.ar  142  PHE142     -0.0203
     38  CD1        7.7980   10.1980   -5.3020 C.ar  142  PHE142     -0.0042
     39  CD2        8.7660   10.3460   -7.4830 C.ar  142  PHE142     -0.0042
     40  CE1        6.6500   10.9280   -5.7310 C.ar  142  PHE142     -0.0003
     41  CE2        7.5900   11.0550   -7.9090 C.ar  142  PHE142     -0.0003
     42  CZ         6.5970   11.3630   -7.0480 C.ar  142  PHE142     -0.0000
     43  N         10.7510   13.5170   -7.7490 N.3   150  ILE150     -0.1231
     44  CA         9.4530   14.0210   -7.2510 C.3   150  ILE150      0.1692
     45  C          9.0840   15.3910   -7.8560 C.2   150  ILE150      0.2592
     46  O          7.9460   15.5900   -8.2030 O.2   150  ILE150     -0.2718
     47  CB         9.4440   13.9770   -5.6850 C.3   150  ILE150      0.0266
     48  CG1        8.0830   14.4560   -5.1790 C.3   150  ILE150      0.0019
     49  CG2       10.6070   14.8740   -5.0750 C.3   150  ILE150      0.0020
     50  CD1        7.8380   14.1150   -3.6830 C.3   150  ILE150      0.0001
     51  N         10.0220   16.3540   -7.8470 N.am  151  TRP151     -0.1976
     52  CA         9.5980   17.7380   -8.1920 C.3   151  TRP151      0.1640
     53  C          9.2640   17.8450   -9.7100 C.2   151  TRP151      0.2290
     54  O          8.2810   18.5420  -10.0500 O.2   151  TRP151     -0.2864
     55  CB        10.7340   18.7300   -7.8430 C.3   151  TRP151      0.0576
     56  CG        11.1850   18.5190   -6.3690 C.ar  151  TRP151      0.0006
     57  CD1       12.4450   18.2640   -5.9850 C.ar  151  TRP151      0.0946
     58  CD2       10.3540   18.4620   -5.1950 C.ar  151  TRP151      0.0152
     59  NE1       12.4820   18.0860   -4.5840 N.ar  151  TRP151     -0.2442
     60  CE2       11.2300   18.1990   -4.1020 C.ar  151  TRP151      0.0810
     61  CE3        8.9780   18.6280   -4.9480 C.ar  151  TRP151      0.0012
     62  CZ2       10.7510   18.0740   -2.7660 C.ar  151  TRP151      0.0191
     63  CZ3        8.5010   18.4400   -3.6220 C.ar  151  TRP151      0.0001
     64  CH2        9.4160   18.2020   -2.5620 C.ar  151  TRP151      0.0015
     65  N         -0.5640   16.9410   -3.5870 N.3   164  PHE164     -0.1241
     66  CA         0.5770   17.0860   -2.7220 C.3   164  PHE164      0.1605
     67  C          0.6630   18.4800   -2.0770 C.2   164  PHE164      0.2264
     68  O          0.9070   18.5990   -0.8600 O.2   164  PHE164     -0.2867
     69  CB         1.8940   16.7880   -3.4980 C.3   164  PHE164      0.0534
     70  CG         3.1460   17.0940   -2.6810 C.ar  164  PHE164     -0.0203
     71  CD1        3.6670   16.1100   -1.8040 C.ar  164  PHE164     -0.0042
     72  CD2        3.7850   18.3280   -2.7610 C.ar  164  PHE164     -0.0042
     73  CE1        4.8020   16.3580   -1.0640 C.ar  164  PHE164     -0.0003
     74  CE2        4.9220   18.6030   -2.0110 C.ar  164  PHE164     -0.0003
     75  CZ         5.4510   17.6040   -1.1560 C.ar  164  PHE164     -0.0000
     76  N         -1.6540   18.6960    0.7340 N.3   167  GLY167     -0.1210
     77  CA        -1.1240   17.9760    1.8950 C.3   167  GLY167      0.1956
     78  C         -0.1580   18.8580    2.6800 C.2   167  GLY167      0.2611
     79  O         -0.1700   18.8720    3.9240 O.2   167  GLY167     -0.2717
     80  N          0.7220   19.5260    1.9430 N.am  168  MET168     -0.1979
     81  CA         1.6640   20.4580    2.5560 C.3   168  MET168      0.1605
     82  C          0.9340   21.6710    3.1920 C.2   168  MET168      0.2287
     83  O          1.2810   22.0890    4.2980 O.2   168  MET168     -0.2864
     84  CB         2.6780   20.9830    1.5200 C.3   168  MET168      0.0413
     85  CG         3.5810   19.9080    0.9160 C.3   168  MET168      0.0598
     86  SD         4.6150   19.0430    2.1550 S.3   168  MET168     -0.1393
     87  CE         3.6280   17.6350    2.4700 C.3   168  MET168      0.0692
     88  N         -0.2800   20.3170    6.4150 N.3   171  ASP171     -0.1239
     89  CA         0.8210   20.1780    7.3620 C.3   171  ASP171      0.1674
     90  C          1.1700   21.5300    8.0180 C.2   171  ASP171      0.2266
     91  O          1.4510   21.5900    9.2200 O.2   171  ASP171     -0.2867
     92  CB         2.0500   19.6730    6.6060 C.3   171  ASP171      0.1410
     93  CG         3.1040   19.0240    7.5700 C.2   171  ASP171      0.3668
     94  OD1        2.8460   17.9360    8.0860 O.co2 171  ASP171     -0.2456
     95  OD2        4.1140   19.6810    7.7970 O.co2 171  ASP171     -0.2456
     96  N         -1.3830   22.9090   10.5910 N.3   174  LEU174     -0.1245
     97  CA        -1.2710   22.2650   11.9120 C.3   174  LEU174      0.1561
     98  C         -0.3900   23.0780   12.8730 C.2   174  LEU174      0.2260
     99  O         -0.5390   22.9180   14.1190 O.2   174  LEU174     -0.2867
    100  CB        -0.6830   20.8350   11.7690 C.3   174  LEU174      0.0270
    101  CG        -1.4830   19.8580   10.8880 C.3   174  LEU174      0.0019
    102  CD1       -0.7040   18.5370   10.8370 C.3   174  LEU174      0.0001
    103  CD2       -2.9000   19.6450   11.3330 C.3   174  LEU174      0.0001
    104  N          9.9980   22.4190    6.1200 N.3   255  CYS255     -0.1235
    105  CA         9.9590   21.1180    5.4170 C.3   255  CYS255      0.1677
    106  C         10.7020   21.2260    4.0830 C.2   255  CYS255      0.2270
    107  O         10.3130   20.5670    3.0930 O.2   255  CYS255     -0.2867
    108  CB         8.4720   20.6550    5.1890 C.3   255  CYS255      0.0956
    109  SG         7.6700   20.2880    6.7860 S.3   255  CYS255     -0.0801
    110  N         14.8180   19.0030    5.0120 N.3   258  HIS258     -0.1226
    111  CA        14.7240   17.5280    5.1420 C.3   258  HIS258      0.1752
    112  C         14.5440   16.8400    3.7780 C.2   258  HIS258      0.2596
    113  O         14.6380   15.6150    3.7040 O.2   258  HIS258     -0.2718
    114  CB        13.6100   17.1480    6.1270 C.3   258  HIS258      0.0759
    115  CG        12.2180   17.2870    5.5500 C.ar  258  HIS258      0.0818
    116  ND1       11.1570   16.5050    6.0240 N.ar  258  HIS258     -0.2268
    117  CD2       11.6860   18.1100    4.5900 C.ar  258  HIS258      0.1154
    118  CE1       10.0630   16.8320    5.3490 C.ar  258  HIS258      0.1986
    119  NE2       10.3610   17.7920    4.4880 N.ar  258  HIS258     -0.2212
    120  N         14.3650   17.6240    2.7020 N.am  259  ASP259     -0.1974
    121  CA        14.2820   17.0500    1.3120 C.3   259  ASP259      0.1709
    122  C         15.6450   16.7660    0.6950 C.2   259  ASP259      0.2293
    123  O         15.7260   16.1330   -0.3750 O.2   259  ASP259     -0.2864
    124  CB        13.5150   18.0100    0.3920 C.3   259  ASP259      0.1436
    125  CG        12.1010   18.2050    0.7490 C.2   259  ASP259      0.3671
    126  OD1       11.4660   17.3100    1.3960 O.co2 259  ASP259     -0.2456
    127  OD2       11.5040   19.2330    0.2970 O.co2 259  ASP259     -0.2456
    128  N          6.3950    8.6730   14.2640 N.3   301  MET301     -0.1245
    129  CA         6.0540    9.4320   13.0420 C.3   301  MET301      0.1570
    130  C          7.3220    9.9860   12.3910 C.2   301  MET301      0.2261
    131  O          7.5300    9.9360   11.1830 O.2   301  MET301     -0.2867
    132  CB         5.1770   10.6290   13.4640 C.3   301  MET301      0.0387
    133  CG         3.9820   10.8550   12.5680 C.3   301  MET301      0.0595
    134  SD         4.2840   11.2890   10.8270 S.3   301  MET301     -0.1393
    135  CE         4.6210   13.0650   10.9750 C.3   301  MET301      0.0692
    136  N          9.0150    9.5610    8.8100 N.3   305  LEU305     -0.1245
    137  CA         9.4060   10.6380    7.8490 C.3   305  LEU305      0.1561
    138  C         10.8400   10.5510    7.3730 C.2   305  LEU305      0.2260
    139  O         11.1480   10.9530    6.2850 O.2   305  LEU305     -0.2867
    140  CB         9.1090   12.0230    8.4800 C.3   305  LEU305      0.0270
    141  CG         7.8550   12.7350    8.0830 C.3   305  LEU305      0.0019
    142  CD1        7.9720   13.3020    6.6560 C.3   305  LEU305      0.0001
    143  CD2        6.6310   11.8470    8.1420 C.3   305  LEU305      0.0001
    144  N         10.5130    8.1820    4.6700 N.3   308  ASP308     -0.1225
    145  CA         9.6850    8.8660    3.6460 C.3   308  ASP308      0.1805
    146  C         10.6300    9.7660    2.8260 C.2   308  ASP308      0.2597
    147  O         10.5510    9.7560    1.5560 O.2   308  ASP308     -0.2718
    148  CB         8.6170    9.6880    4.3700 C.3   308  ASP308      0.1424
    149  CG         7.5950   10.3170    3.4070 C.2   308  ASP308      0.3668
    150  OD1        7.9620   11.0560    2.4980 O.co2 308  ASP308     -0.2456
    151  OD2        6.3830   10.0300    3.5940 O.co2 308  ASP308     -0.2456
    152  N         11.4820   10.5190    3.5050 N.am  309  MET309     -0.1979
    153  CA        12.4660   11.3350    2.7580 C.3   309  MET309      0.1605
    154  C         13.4030   10.4600    1.9400 C.2   309  MET309      0.2287
    155  O         13.6960   10.7570    0.7840 O.2   309  MET309     -0.2864
    156  CB        13.2800   12.2320    3.7320 C.3   309  MET309      0.0413
    157  CG        12.4520   13.3030    4.4260 C.3   309  MET309      0.0598
    158  SD        11.5850   14.4630    3.2600 S.3   309  MET309     -0.1393
    159  CE        10.0060   13.7170    3.1840 C.3   309  MET309      0.0692
    160  N         11.3410    9.2550   -1.0920 N.3   312  ASN312     -0.1225
    161  CA        10.6520   10.2170   -1.9800 C.3   312  ASN312      0.1785
    162  C         11.4590   11.4170   -2.4470 C.2   312  ASN312      0.2597
    163  O         11.2810   11.8620   -3.5720 O.2   312  ASN312     -0.2718
    164  CB         9.4020   10.7430   -1.2720 C.3   312  ASN312      0.1169
    165  CG         8.3390    9.6590   -1.1480 C.2   312  ASN312      0.2627
    166  OD1        7.7610    9.4910   -0.0220 O.2   312  ASN312     -0.2716
    167  ND2        8.0230    9.0180   -2.1920 N.am  312  ASN312     -0.0877
    168  N         12.3590   11.8950   -1.6170 N.am  313  THR313     -0.1953
    169  CA        13.0960   13.1630   -1.8950 C.3   313  THR313      0.1897
    170  C         14.5890   12.9930   -1.9930 C.2   313  THR313      0.2313
    171  O         15.2760   13.8680   -2.6360 O.2   313  THR313     -0.2863
    172  CB        12.7790   14.2390   -0.8240 C.3   313  THR313      0.1794
    173  OG1       13.2480   13.7660    0.4740 O.3   313  THR313     -0.2208
    174  CG2       11.3010   14.5470   -0.7280 C.3   313  THR313      0.0378
    175  N          7.2930   19.1310   13.7380 N.3   344  GLN344     -0.1245
    176  CA         8.5020   19.9210   13.5290 C.3   344  GLN344      0.1566
    177  C          8.8240   20.7800   14.7150 C.2   344  GLN344      0.2260
    178  O          7.9240   21.0840   15.5460 O.2   344  GLN344     -0.2867
    179  CB         8.3850   20.8020   12.3050 C.3   344  GLN344      0.0367
    180  CG         8.0530   20.0380   10.9600 C.3   344  GLN344      0.0905
    181  CD         6.5690   19.7320   10.8220 C.2   344  GLN344      0.2608
    182  OE1        5.7120   20.3180   11.5010 O.2   344  GLN344     -0.2717
    183  NE2        6.2470   18.8600    9.8830 N.am  344  GLN344     -0.0878
@<TRIPOS>BOND
     1    54    53    2
     2    53    52    1
     3    35    34    2
     4    46    45    2
     5    52    51    1
     6    52    55    1
     7    41    39   ar
     8    41    42   ar
     9    45    51   am
    10    45    44    1
    11    55    56    1
    12    43    44    1
    13    34    33    1
    14    39    37   ar
    15    44    47    1
    16    42    40   ar
    17    56    57   ar
    18    56    58   ar
    19    33    36    1
    20    33    32    1
    21    37    36    1
    22    37    38   ar
    23    57    59   ar
    24    40    38   ar
    25    47    48    1
    26    47    49    1
    27    29    31   ar
    28    29    27   ar
    29    31    30   ar
    30    58    61   ar
    31    58    60   ar
    32    48    50    1
    33    61    63   ar
    34    27    26   ar
    35    59    60   ar
    36    21    22    1
    37    60    62   ar
    38    30    28   ar
    39    26    28   ar
    40    26    25    1
    41    63    64   ar
    42    65    66    1
    43   163   162    2
    44    22    25    1
    45    22    23    1
    46    69    66    1
    47    69    70    1
    48    62    64   ar
    49    72    70   ar
    50    72    74   ar
    51    66    67    1
    52    70    71   ar
    53   171   170    2
    54    23    24    2
    55   162   161    1
    56   162   168   am
    57   167   165   am
    58    67    68    2
    59    74    75   ar
    60   170   169    1
    61   161   164    1
    62   161   160    1
    63   169   168    1
    64   169   172    1
    65    71    73   ar
    66   164   165    1
    67    75    73   ar
    68   165   166    2
    69   172   174    1
    70   172   173    1
    71     9     8    2
    72   123   122    2
    73    12    10    1
    74     7     8    1
    75     7    10    1
    76     7     6    1
    77    11    10    1
    78   127   125   ar
    79   124   125    1
    80   124   121    1
    81     8    13   am
    82   122   121    1
    83    76    77    1
    84   125   126   ar
    85   155   154    2
    86    85    84    1
    87    85    86    1
    88   121   120    1
    89    16    15    2
    90    84    81    1
    91   147   146    2
    92    15    14    1
    93    13    14    1
    94    77    78    1
    95   154   153    1
    96    80    81    1
    97    80    78   am
    98    86    87    1
    99    14    17    1
   100   150   149   ar
   101    81    82    1
   102    78    79    2
   103   120   112   am
   104   153   152    1
   105   153   156    1
   106   146   152   am
   107   146   145    1
   108   107   106    2
   109   159   158    1
   110    82    83    2
   111   158   157    1
   112   149   151   ar
   113   149   148    1
   114   145   148    1
   115   145   144    1
   116    17    18    1
   117    17    19    1
   118   113   112    2
   119   156   157    1
   120   112   111    1
   121     4     3    2
   122    18    20    1
   123   106   105    1
   124   119   117   ar
   125   119   118   ar
   126     3     2    1
   127   117   115   ar
   128     1     2    1
   129     2     5    1
   130   110   111    1
   131   111   114    1
   132   108   105    1
   133   108   109    1
   134   118   116   ar
   135   105   104    1
   136   115   116   ar
   137   115   114    1
   138   139   138    2
   139    88    89    1
   140    92    89    1
   141    92    93    1
   142   142   141    1
   143    89    90    1
   144   138   137    1
   145    93    95   ar
   146    93    94   ar
   147   137   140    1
   148   137   136    1
   149    90    91    2
   150   141   143    1
   151   141   140    1
   152   183   181   am
   153    96    97    1
   154   181   180    1
   155   181   182    2
   156   134   135    1
   157   134   133    1
   158   102   101    1
   159   101   103    1
   160   101   100    1
   161   180   179    1
   162   131   130    2
   163   100    97    1
   164    97    98    1
   165   179   176    1
   166   130   129    1
   167   133   132    1
   168    98    99    2
   169   129   132    1
   170   129   128    1
   171   176   175    1
   172   176   177    1
   173   177   178    2
