@<TRIPOS>MOLECULE
tmp/5icfA01.pdb
 160 148 0 0 0
SMALL
GASTEIGER

@<TRIPOS>ATOM
      1  N         -3.7590   15.9080    4.4180 N.3   112  ALA112     -0.1245
      2  CA        -2.5310   15.1050    4.6060 C.3   112  ALA112      0.1562
      3  C         -2.8510   13.5740    4.4520 C.2   112  ALA112      0.2260
      4  O         -2.0850   12.8340    3.8050 O.2   112  ALA112     -0.2867
      5  CB        -1.9470   15.4050    6.0100 C.3   112  ALA112      0.0290
      6  N         -3.3310   12.7070    0.7540 N.3   115  THR115     -0.1203
      7  CA        -2.0140   12.7050    0.0550 C.3   115  THR115      0.1994
      8  C         -1.1900   11.5060    0.3880 C.2   115  THR115      0.2617
      9  O         -0.6470   10.7990   -0.4950 O.2   115  THR115     -0.2717
     10  CB        -1.1970   14.0200    0.3620 C.3   115  THR115      0.1784
     11  OG1       -2.0530   15.1460    0.0480 O.3   115  THR115     -0.2211
     12  CG2        0.0630   14.0780   -0.5640 C.3   115  THR115      0.0376
     13  N         -1.0190   11.2450    1.6790 N.am  116  ILE116     -0.1979
     14  CA        -0.0620   10.2410    2.0700 C.3   116  ILE116      0.1595
     15  C         -0.5710    8.8070    1.6550 C.2   116  ILE116      0.2287
     16  O          0.2180    7.9350    1.3160 O.2   116  ILE116     -0.2864
     17  CB         0.1690   10.3250    3.6180 C.3   116  ILE116      0.0276
     18  CG1        0.9230   11.6590    3.9040 C.3   116  ILE116      0.0022
     19  CG2        1.0230    9.1040    4.0990 C.3   116  ILE116      0.0022
     20  CD1        0.7520   12.0000    5.3910 C.3   116  ILE116      0.0001
     21  N          1.3270    7.5790   -4.5850 N.3   121  PHE121     -0.1241
     22  CA         2.3240    8.1200   -3.6240 C.3   121  PHE121      0.1605
     23  C          2.8040    7.0580   -2.6280 C.2   121  PHE121      0.2264
     24  O          3.8560    7.2430   -1.9800 O.2   121  PHE121     -0.2867
     25  CB         1.7420    9.3190   -2.8850 C.3   121  PHE121      0.0534
     26  CG         1.6390   10.6110   -3.7550 C.ar  121  PHE121     -0.0203
     27  CD1        2.3280   10.7140   -4.9870 C.ar  121  PHE121     -0.0042
     28  CD2        0.8390   11.6460   -3.3260 C.ar  121  PHE121     -0.0042
     29  CE1        2.2390   11.9020   -5.7380 C.ar  121  PHE121     -0.0003
     30  CE2        0.7570   12.8460   -4.0670 C.ar  121  PHE121     -0.0003
     31  CZ         1.4410   12.9470   -5.2730 C.ar  121  PHE121     -0.0000
     32  N          6.3930    4.0950   -4.0090 N.3   124  PRO124     -0.2116
     33  CA         7.8070    4.0390   -3.7360 C.3   124  PRO124      0.1372
     34  C          8.2170    3.1210   -2.5220 C.2   124  PRO124      0.2244
     35  O          9.3290    2.6180   -2.4950 O.2   124  PRO124     -0.2868
     36  CB         8.1490    5.5120   -3.4080 C.3   124  PRO124      0.0268
     37  CG         7.2110    6.3060   -4.3500 C.3   124  PRO124      0.0207
     38  CD         5.8810    5.4850   -4.0520 C.3   124  PRO124      0.0892
     39  N         11.2760    6.7040   -5.5640 N.3   142  PHE142     -0.1241
     40  CA        10.2060    7.4140   -6.2290 C.3   142  PHE142      0.1605
     41  C         10.3860    7.3390   -7.7910 C.2   142  PHE142      0.2264
     42  O          9.4740    7.0210   -8.4930 O.2   142  PHE142     -0.2867
     43  CB        10.1800    8.8850   -5.7310 C.3   142  PHE142      0.0534
     44  CG         8.9720    9.6660   -6.2320 C.ar  142  PHE142     -0.0203
     45  CD1        8.9090   10.1110   -7.6220 C.ar  142  PHE142     -0.0042
     46  CD2        7.9360    9.9670   -5.3910 C.ar  142  PHE142     -0.0042
     47  CE1        7.7600   10.8020   -8.0400 C.ar  142  PHE142     -0.0003
     48  CE2        6.8440   10.7160   -5.8320 C.ar  142  PHE142     -0.0003
     49  CZ         6.7690   11.1590   -7.1290 C.ar  142  PHE142     -0.0000
     50  N         10.8730   13.2970   -7.8890 N.3   150  ILE150     -0.1245
     51  CA         9.6060   13.8050   -7.4050 C.3   150  ILE150      0.1561
     52  C          9.2190   15.2280   -7.9590 C.2   150  ILE150      0.2260
     53  O          8.0630   15.4520   -8.2890 O.2   150  ILE150     -0.2867
     54  CB         9.5910   13.7660   -5.8290 C.3   150  ILE150      0.0252
     55  CG1        8.2080   14.2230   -5.2850 C.3   150  ILE150      0.0019
     56  CG2       10.7780   14.6180   -5.2620 C.3   150  ILE150      0.0019
     57  CD1        8.0210   13.8850   -3.7550 C.3   150  ILE150      0.0001
     58  N          5.9950   16.1250  -10.3110 N.3   154  MET154     -0.1245
     59  CA         4.8680   17.0690  -10.0150 C.3   154  MET154      0.1570
     60  C          4.6960   18.0510  -11.1670 C.2   154  MET154      0.2261
     61  O          3.5700   18.4450  -11.4230 O.2   154  MET154     -0.2867
     62  CB         5.1880   17.8940   -8.6850 C.3   154  MET154      0.0387
     63  CG         5.3290   16.9550   -7.4630 C.3   154  MET154      0.0595
     64  SD         3.8950   15.8580   -7.2380 S.3   154  MET154     -0.1393
     65  CE         4.5560   14.7440   -5.9610 C.3   154  MET154      0.0692
     66  N         -0.1580   16.7970   -3.7750 N.3   164  PHE164     -0.1241
     67  CA         1.0460   16.9640   -2.9410 C.3   164  PHE164      0.1605
     68  C          1.0270   18.3380   -2.2290 C.2   164  PHE164      0.2264
     69  O          1.2150   18.4480   -0.9870 O.2   164  PHE164     -0.2867
     70  CB         2.3040   16.8780   -3.7900 C.3   164  PHE164      0.0534
     71  CG         3.5830   17.1690   -2.9920 C.ar  164  PHE164     -0.0203
     72  CD1        4.2390   16.1510   -2.3130 C.ar  164  PHE164     -0.0042
     73  CD2        4.0220   18.4490   -2.8210 C.ar  164  PHE164     -0.0042
     74  CE1        5.4120   16.4040   -1.5770 C.ar  164  PHE164     -0.0003
     75  CE2        5.1460   18.7240   -2.0300 C.ar  164  PHE164     -0.0003
     76  CZ         5.8350   17.7100   -1.4510 C.ar  164  PHE164     -0.0000
     77  N         -1.4820   18.4490    0.6000 N.3   167  GLY167     -0.1210
     78  CA        -0.9770   17.6800    1.8050 C.3   167  GLY167      0.1956
     79  C          0.0070   18.5520    2.6050 C.2   167  GLY167      0.2611
     80  O         -0.0770   18.5960    3.8370 O.2   167  GLY167     -0.2717
     81  N          0.9100   19.2540    1.8980 N.am  168  MET168     -0.1979
     82  CA         1.8790   20.1380    2.5820 C.3   168  MET168      0.1605
     83  C          1.1460   21.3730    3.1430 C.2   168  MET168      0.2287
     84  O          1.4890   21.8270    4.2490 O.2   168  MET168     -0.2864
     85  CB         3.0140   20.5760    1.6320 C.3   168  MET168      0.0413
     86  CG         3.9290   19.3840    1.2160 C.3   168  MET168      0.0598
     87  SD         4.4780   18.3480    2.5930 S.3   168  MET168     -0.1393
     88  CE         5.4370   19.4850    3.6030 C.3   168  MET168      0.0692
     89  N         -0.2010   20.1410    6.3510 N.3   171  ASP171     -0.1239
     90  CA         0.8270   19.9950    7.3930 C.3   171  ASP171      0.1674
     91  C          1.1920   21.4010    7.9450 C.2   171  ASP171      0.2266
     92  O          1.4030   21.5680    9.1490 O.2   171  ASP171     -0.2867
     93  CB         2.0720   19.4070    6.7780 C.3   171  ASP171      0.1410
     94  CG         3.2060   19.2030    7.8410 C.2   171  ASP171      0.3668
     95  OD1        2.9330   18.5060    8.8420 O.co2 171  ASP171     -0.2456
     96  OD2        4.2440   19.8520    7.7320 O.co2 171  ASP171     -0.2456
     97  N         -1.3650   22.7890   10.4160 N.3   174  LEU174     -0.1245
     98  CA        -1.2110   22.1660   11.7480 C.3   174  LEU174      0.1561
     99  C         -0.2810   22.9140   12.6980 C.2   174  LEU174      0.2260
    100  O         -0.4990   22.8580   13.9200 O.2   174  LEU174     -0.2867
    101  CB        -0.6620   20.7440   11.6440 C.3   174  LEU174      0.0270
    102  CG        -1.4460   19.7750   10.7550 C.3   174  LEU174      0.0019
    103  CD1       -0.7080   18.4100   10.7250 C.3   174  LEU174      0.0001
    104  CD2       -2.8790   19.6150   11.2650 C.3   174  LEU174      0.0001
    105  N          6.5650    8.5130   14.0280 N.3   301  MET301     -0.1245
    106  CA         6.3200    9.1360   12.7130 C.3   301  MET301      0.1570
    107  C          7.5550    9.8890   12.1770 C.2   301  MET301      0.2261
    108  O          7.6940   10.0120   10.9440 O.2   301  MET301     -0.2867
    109  CB         5.0090    9.9450   12.7460 C.3   301  MET301      0.0387
    110  CG         5.0500   11.1800   13.5850 C.3   301  MET301      0.0595
    111  SD         5.7750   12.4740   12.6150 S.3   301  MET301     -0.1393
    112  CE         4.6470   12.5630   11.2500 C.3   301  MET301      0.0692
    113  N          9.1440    9.3180    8.5850 N.3   305  LEU305     -0.1245
    114  CA         9.4710   10.3960    7.6200 C.3   305  LEU305      0.1561
    115  C         10.9580   10.3240    7.2090 C.2   305  LEU305      0.2260
    116  O         11.2860   10.7500    6.1010 O.2   305  LEU305     -0.2867
    117  CB         9.1920   11.8060    8.2580 C.3   305  LEU305      0.0270
    118  CG         7.7970   12.4180    7.9710 C.3   305  LEU305      0.0019
    119  CD1        7.6810   12.9970    6.5620 C.3   305  LEU305      0.0001
    120  CD2        6.7010   11.4120    8.0600 C.3   305  LEU305      0.0001
    121  N         10.6680    7.9560    4.5150 N.3   308  ASP308     -0.1225
    122  CA         9.9220    8.6100    3.4490 C.3   308  ASP308      0.1805
    123  C         10.8450    9.4960    2.6460 C.2   308  ASP308      0.2597
    124  O         10.8400    9.4650    1.3920 O.2   308  ASP308     -0.2718
    125  CB         8.8100    9.4430    4.0580 C.3   308  ASP308      0.1424
    126  CG         7.8620   10.0220    2.9870 C.2   308  ASP308      0.3668
    127  OD1        8.2750   10.8680    2.1960 O.co2 308  ASP308     -0.2456
    128  OD2        6.7150    9.5570    2.9810 O.co2 308  ASP308     -0.2456
    129  N         11.6700   10.2860    3.3390 N.am  309  MET309     -0.1979
    130  CA        12.6840   11.1470    2.6040 C.3   309  MET309      0.1605
    131  C         13.6660   10.2610    1.8350 C.2   309  MET309      0.2287
    132  O         13.9860   10.5430    0.6920 O.2   309  MET309     -0.2864
    133  CB        13.4670   12.0630    3.5610 C.3   309  MET309      0.0413
    134  CG        12.5720   13.1230    4.2770 C.3   309  MET309      0.0598
    135  SD        11.6970   14.2190    3.1140 S.3   309  MET309     -0.1393
    136  CE        10.0660   13.5520    3.3000 C.3   309  MET309      0.0692
    137  N         11.7000    9.0420   -1.2740 N.3   312  ASN312     -0.1240
    138  CA        10.8830    9.9470   -2.1590 C.3   312  ASN312      0.1653
    139  C         11.6660   11.1620   -2.6350 C.2   312  ASN312      0.2266
    140  O         11.4400   11.6450   -3.7660 O.2   312  ASN312     -0.2867
    141  CB         9.6210   10.4480   -1.5460 C.3   312  ASN312      0.1155
    142  CG         8.6070    9.3660   -1.3190 C.2   312  ASN312      0.2627
    143  OD1        8.0890    9.2170   -0.1980 O.2   312  ASN312     -0.2716
    144  ND2        8.3710    8.5640   -2.3150 N.am  312  ASN312     -0.0877
    145  N          5.3310   17.9970   15.0070 N.3   343  VAL343     -0.1231
    146  CA         6.1910   17.0150   14.3860 C.3   343  VAL343      0.1692
    147  C          7.5970   17.6770   14.1900 C.2   343  VAL343      0.2591
    148  O          8.6480   17.1130   14.5810 O.2   343  VAL343     -0.2718
    149  CB         5.5780   16.5600   13.0530 C.3   343  VAL343      0.0266
    150  CG1        6.6450   15.6860   12.3130 C.3   343  VAL343      0.0020
    151  CG2        4.3520   15.6780   13.4270 C.3   343  VAL343      0.0020
    152  N          7.5590   18.8660   13.6210 N.am  344  GLN344     -0.1979
    153  CA         8.8060   19.6450   13.3420 C.3   344  GLN344      0.1601
    154  C          9.1450   20.5190   14.5440 C.2   344  GLN344      0.2287
    155  O          8.2880   20.8060   15.3590 O.2   344  GLN344     -0.2864
    156  CB         8.5560   20.5580   12.1350 C.3   344  GLN344      0.0394
    157  CG         8.2910   19.7940   10.7970 C.3   344  GLN344      0.0908
    158  CD         6.7610   19.5080   10.5880 C.2   344  GLN344      0.2608
    159  OE1        5.8930   20.0410   11.3080 O.2   344  GLN344     -0.2717
    160  NE2        6.4460   18.6880    9.6020 N.am  344  GLN344     -0.0878
@<TRIPOS>BOND
     1    61    60    2
     2    60    59    1
     3    58    59    1
     4    59    62    1
     5    62    63    1
     6    42    41    2
     7    53    52    2
     8    47    45   ar
     9    47    49   ar
    10    52    51    1
    11    50    51    1
    12    41    40    1
    13    45    44   ar
    14    63    64    1
    15    51    54    1
    16    64    65    1
    17    49    48   ar
    18    44    43    1
    19    44    46   ar
    20    40    43    1
    21    40    39    1
    22    48    46   ar
    23    54    55    1
    24    54    56    1
    25    29    31   ar
    26    29    27   ar
    27    55    57    1
    28    31    30   ar
    29    27    26   ar
    30    21    22    1
    31    37    38    1
    32    37    36    1
    33    30    28   ar
    34    38    32    1
    35    32    33    1
    36    70    71    1
    37    70    67    1
    38    66    67    1
    39   140   139    2
    40    26    28   ar
    41    26    25    1
    42    33    36    1
    43    33    34    1
    44    22    25    1
    45    22    23    1
    46    71    73   ar
    47    71    72   ar
    48    67    68    1
    49    73    75   ar
    50   139   138    1
    51    23    24    2
    52    34    35    2
    53   144   142   am
    54    72    74   ar
    55    68    69    2
    56   138   141    1
    57   138   137    1
    58    75    76   ar
    59    74    76   ar
    60   141   142    1
    61   142   143    2
    62    12    10    1
    63     9     8    2
    64    11    10    1
    65     7    10    1
    66     7     8    1
    67     7     6    1
    68     8    13   am
    69    77    78    1
    70   132   131    2
    71    86    85    1
    72    86    87    1
    73    16    15    2
    74   124   123    2
    75    85    82    1
    76    15    14    1
    77    13    14    1
    78    78    79    1
    79   131   130    1
    80    81    82    1
    81    81    79   am
    82    14    17    1
    83   127   126   ar
    84    82    83    1
    85    87    88    1
    86   130   129    1
    87   130   133    1
    88    79    80    2
    89   123   129   am
    90   123   122    1
    91   128   126   ar
    92   126   125    1
    93   135   136    1
    94   135   134    1
    95    83    84    2
    96   122   125    1
    97   122   121    1
    98   133   134    1
    99    17    18    1
   100    17    19    1
   101     4     3    2
   102    18    20    1
   103     1     2    1
   104     3     2    1
   105     2     5    1
   106   116   115    2
   107    89    90    1
   108   119   118    1
   109    93    90    1
   110    93    94    1
   111   115   114    1
   112    90    91    1
   113   114   117    1
   114   114   113    1
   115    96    94   ar
   116    94    95   ar
   117    91    92    2
   118   118   120    1
   119   118   117    1
   120   160   158   am
   121    97    98    1
   122   158   157    1
   123   158   159    2
   124   103   102    1
   125   102   104    1
   126   102   101    1
   127   157   156    1
   128   108   107    2
   129   112   111    1
   130   101    98    1
   131    98    99    1
   132   156   153    1
   133   107   106    1
   134   150   149    1
   135   111   110    1
   136    99   100    2
   137   106   109    1
   138   106   105    1
   139   109   110    1
   140   149   151    1
   141   149   146    1
   142   153   152    1
   143   153   154    1
   144   152   147   am
   145   147   146    1
   146   147   148    2
   147   146   145    1
   148   154   155    2
