@<TRIPOS>MOLECULE
tmp/5icjB00.pdb
 175 163 0 0 0
SMALL
GASTEIGER

@<TRIPOS>ATOM
      1  N        -17.1260   22.5340  -15.8300 N.3    59  GLU59      -0.1245
      2  CA       -18.0470   21.9840  -14.8400 C.3    59  GLU59       0.1567
      3  C        -19.1060   22.9850  -14.3910 C.2    59  GLU59       0.2260
      4  O        -20.2550   22.5840  -14.1670 O.2    59  GLU59      -0.2867
      5  CB       -17.3210   21.4240  -13.5990 C.3    59  GLU59       0.0388
      6  CG       -17.1030   19.9080  -13.6020 C.3    59  GLU59       0.1160
      7  CD       -18.4000   19.0920  -13.7300 C.2    59  GLU59       0.3649
      8  OE1      -19.2580   19.1480  -12.7940 O.co2  59  GLU59      -0.2457
      9  OE2      -18.5510   18.4020  -14.7790 O.co2  59  GLU59      -0.2457
     10  N        -23.1490   22.2240  -14.9450 N.3    63  MET63      -0.1245
     11  CA       -24.2020   22.3800  -13.9410 C.3    63  MET63       0.1570
     12  C        -25.3230   23.3370  -14.3390 C.2    63  MET63       0.2261
     13  O        -26.4860   23.0210  -14.1640 O.2    63  MET63      -0.2867
     14  CB       -23.6210   22.7780  -12.5710 C.3    63  MET63       0.0387
     15  CG       -22.7950   21.7030  -11.8870 C.3    63  MET63       0.0595
     16  SD       -23.6550   20.1070  -11.6910 S.3    63  MET63      -0.1393
     17  CE       -23.0780   19.3340  -13.1570 C.3    63  MET63       0.0692
     18  N        -27.3140   21.5540  -16.9210 N.3    66  MET66      -0.1245
     19  CA       -28.1390   20.5620  -16.2080 C.3    66  MET66       0.1570
     20  C        -29.4110   21.2230  -15.6480 C.2    66  MET66       0.2261
     21  O        -30.5030   20.7420  -15.8970 O.2    66  MET66      -0.2867
     22  CB       -27.3530   19.9010  -15.0390 C.3    66  MET66       0.0387
     23  CG       -26.3260   18.8420  -15.4370 C.3    66  MET66       0.0595
     24  SD       -26.9990   17.3560  -16.1740 S.3    66  MET66      -0.1393
     25  CE       -28.0970   16.8150  -14.8770 C.3    66  MET66       0.0692
     26  N        -35.9530   13.9380  -11.2030 N.3    78  ILE78      -0.1245
     27  CA       -34.8890   12.9340  -11.0670 C.3    78  ILE78       0.1561
     28  C        -34.6550   12.1590  -12.3650 C.2    78  ILE78       0.2260
     29  O        -33.4880   12.0000  -12.7970 O.2    78  ILE78      -0.2867
     30  CB       -35.1410   11.9930   -9.8620 C.3    78  ILE78       0.0252
     31  CG1      -34.8000   12.7340   -8.5880 C.3    78  ILE78       0.0019
     32  CG2      -34.3060   10.7150   -9.9660 C.3    78  ILE78       0.0019
     33  CD1      -35.2140   12.0390   -7.3180 C.3    78  ILE78       0.0001
     34  N        -33.2030   14.6080  -14.8720 N.3    81  ALA81      -0.1231
     35  CA       -31.7840   14.8520  -14.5550 C.3    81  ALA81       0.1694
     36  C        -30.8990   13.7530  -15.0850 C.2    81  ALA81       0.2591
     37  O        -29.8580   14.0310  -15.6740 O.2    81  ALA81      -0.2718
     38  CB       -31.5730   15.0230  -13.0720 C.3    81  ALA81       0.0304
     39  N        -31.3070   12.5010  -14.9240 N.am   82  VAL82      -0.1980
     40  CA       -30.5280   11.4130  -15.5410 C.3    82  VAL82       0.1595
     41  C        -30.3820   11.6280  -17.0470 C.2    82  VAL82       0.2287
     42  O        -29.2680   11.6250  -17.5430 O.2    82  VAL82      -0.2864
     43  CB       -31.1040   10.0190  -15.2580 C.3    82  VAL82       0.0276
     44  CG1      -30.3930    8.9680  -16.1090 C.3    82  VAL82       0.0022
     45  CG2      -30.9500    9.6960  -13.7760 C.3    82  VAL82       0.0022
     46  N        -28.0110   14.6140  -17.9060 N.3    85  TRP85      -0.1241
     47  CA       -26.5820   14.2710  -17.7420 C.3    85  TRP85       0.1605
     48  C        -26.0480   13.4410  -18.8890 C.2    85  TRP85       0.2264
     49  O        -24.9290   13.6630  -19.3210 O.2    85  TRP85      -0.2867
     50  CB       -26.3150   13.5810  -16.4040 C.3    85  TRP85       0.0550
     51  CG       -24.9330   12.9250  -16.2800 C.ar   85  TRP85       0.0003
     52  CD1      -24.6710   11.5990  -16.0370 C.ar   85  TRP85       0.0946
     53  CD2      -23.6540   13.5510  -16.4400 C.ar   85  TRP85       0.0152
     54  NE1      -23.3240   11.3830  -15.9930 N.ar   85  TRP85      -0.2442
     55  CE2      -22.6740   12.5540  -16.2530 C.ar   85  TRP85       0.0810
     56  CE3      -23.2400   14.8480  -16.7290 C.ar   85  TRP85       0.0012
     57  CZ2      -21.3070   12.8210  -16.3450 C.ar   85  TRP85       0.0191
     58  CZ3      -21.8800   15.1180  -16.7780 C.ar   85  TRP85       0.0001
     59  CH2      -20.9330   14.1060  -16.6010 C.ar   85  TRP85       0.0015
     60  N        -13.6070   16.5570  -19.4010 N.3    98  ILE98      -0.1231
     61  CA       -14.1030   16.1280  -18.0830 C.3    98  ILE98       0.1692
     62  C        -14.0360   14.6070  -17.9050 C.2    98  ILE98       0.2591
     63  O        -13.5250   14.1250  -16.9110 O.2    98  ILE98      -0.2718
     64  CB       -15.5470   16.6110  -17.8420 C.3    98  ILE98       0.0266
     65  CG1      -15.6530   18.1400  -17.9880 C.3    98  ILE98       0.0019
     66  CG2      -16.0630   16.1620  -16.4760 C.3    98  ILE98       0.0020
     67  CD1      -14.6720   18.9410  -17.1450 C.3    98  ILE98       0.0001
     68  N        -14.5320   13.8600  -18.8810 N.am   99  LEU99      -0.1980
     69  CA       -14.5730   12.3900  -18.7850 C.3    99  LEU99       0.1596
     70  C        -13.2070   11.7600  -19.0510 C.2    99  LEU99       0.2287
     71  O        -12.8020   10.9070  -18.2970 O.2    99  LEU99      -0.2864
     72  CB       -15.6660   11.7870  -19.6830 C.3    99  LEU99       0.0297
     73  CG       -17.0720   12.3880  -19.4440 C.3    99  LEU99       0.0022
     74  CD1      -18.1050   11.7680  -20.3660 C.3    99  LEU99       0.0001
     75  CD2      -17.5170   12.3520  -17.9810 C.3    99  LEU99       0.0001
     76  N        -10.0880   14.6800   -9.1600 N.3   111  PHE111     -0.1241
     77  CA       -11.2790   14.5180   -9.9690 C.3   111  PHE111      0.1605
     78  C        -12.5480   14.3480   -9.1700 C.2   111  PHE111      0.2264
     79  O        -13.5740   14.9050   -9.5300 O.2   111  PHE111     -0.2867
     80  CB       -11.1510   13.3310  -10.9400 C.3   111  PHE111      0.0534
     81  CG       -12.3410   13.1860  -11.8260 C.ar  111  PHE111     -0.0203
     82  CD1      -12.4910   14.0310  -12.9110 C.ar  111  PHE111     -0.0042
     83  CD2      -13.3690   12.2910  -11.5240 C.ar  111  PHE111     -0.0042
     84  CE1      -13.6110   13.9400  -13.7230 C.ar  111  PHE111     -0.0003
     85  CE2      -14.5010   12.2080  -12.3290 C.ar  111  PHE111     -0.0003
     86  CZ       -14.6200   13.0330  -13.4350 C.ar  111  PHE111     -0.0000
     87  N        -13.5700   17.6970   -7.4420 N.3   114  VAL114     -0.1231
     88  CA       -14.2130   18.6360   -8.3500 C.3   114  VAL114      0.1692
     89  C        -15.6490   18.2080   -8.6560 C.2   114  VAL114      0.2591
     90  O        -16.6120   18.9680   -8.4530 O.2   114  VAL114     -0.2718
     91  CB       -13.3840   18.9510   -9.6440 C.3   114  VAL114      0.0266
     92  CG1      -12.8060   17.7700  -10.3880 C.3   114  VAL114      0.0020
     93  CG2      -14.2270   19.7260  -10.6480 C.3   114  VAL114      0.0020
     94  N        -15.7780   16.9760   -9.1060 N.am  115  ALA115     -0.1980
     95  CA       -17.0570   16.3910   -9.4550 C.3   115  ALA115      0.1597
     96  C        -18.0660   16.4350   -8.3240 C.2   115  ALA115      0.2287
     97  O        -19.2460   16.6780   -8.5740 O.2   115  ALA115     -0.2864
     98  CB       -16.8490   14.9680   -9.9120 C.3   115  ALA115      0.0319
     99  N        -21.5050   18.7870   -8.1800 N.3   119  SER119     -0.1217
    100  CA       -22.6640   17.9070   -8.3260 C.3   119  SER119      0.1889
    101  C        -23.4610   17.6840   -7.0550 C.2   119  SER119      0.2288
    102  O        -24.6810   17.5120   -7.1160 O.2   119  SER119     -0.2866
    103  CB       -22.2420   16.5380   -8.8270 C.3   119  SER119      0.2089
    104  OG       -21.5070   16.6430  -10.0070 O.3   119  SER119     -0.2183
    105  N        -26.9520   19.9190   -6.1830 N.3   122  MET122     -0.1230
    106  CA       -28.0950   19.5520   -7.0170 C.3   122  MET122      0.1702
    107  C        -28.6020   18.1400   -6.6830 C.2   122  MET122      0.2593
    108  O        -29.7890   17.9070   -6.5380 O.2   122  MET122     -0.2718
    109  CB       -27.7180   19.6030   -8.4950 C.3   122  MET122      0.0401
    110  CG       -28.8750   19.2260   -9.4090 C.3   122  MET122      0.0596
    111  SD       -28.3740   19.0640  -11.1210 S.3   122  MET122     -0.1393
    112  CE       -29.8840   19.5870  -11.9360 C.3   122  MET122      0.0692
    113  N        -27.6830   17.1980   -6.5720 N.am  123  THR123     -0.1953
    114  CA       -28.0230   15.8260   -6.2410 C.3   123  THR123      0.1897
    115  C        -28.7620   15.6780   -4.8980 C.2   123  THR123      0.2313
    116  O        -29.7900   15.0050   -4.8360 O.2   123  THR123     -0.2863
    117  CB       -26.7680   14.9650   -6.2770 C.3   123  THR123      0.1794
    118  OG1      -26.1260   15.1600   -7.5340 O.3   123  THR123     -0.2208
    119  CG2      -27.1160   13.4990   -6.1200 C.3   123  THR123      0.0378
    120  N        -32.4440   17.2640   -5.2350 N.3   126  LEU126     -0.1231
    121  CA       -33.3840   16.3680   -5.9390 C.3   126  LEU126      0.1693
    122  C        -33.8750   15.2360   -5.0730 C.2   126  LEU126      0.2591
    123  O        -35.0700   14.9130   -5.1020 O.2   126  LEU126     -0.2718
    124  CB       -32.7480   15.7610   -7.1960 C.3   126  LEU126      0.0284
    125  CG       -32.5550   16.7460   -8.3500 C.3   126  LEU126      0.0019
    126  CD1      -31.6670   16.1410   -9.4340 C.3   126  LEU126      0.0001
    127  CD2      -33.8950   17.1610   -8.9280 C.3   126  LEU126      0.0001
    128  N        -32.9420   14.6480   -4.3090 N.am  127  ILE127     -0.1980
    129  CA       -33.2440   13.5880   -3.3430 C.3   127  ILE127      0.1595
    130  C        -34.1770   14.1270   -2.2660 C.2   127  ILE127      0.2287
    131  O        -35.1910   13.5170   -1.9740 O.2   127  ILE127     -0.2864
    132  CB       -31.9430   13.0230   -2.7140 C.3   127  ILE127      0.0276
    133  CG1      -31.2220   12.1290   -3.7210 C.3   127  ILE127      0.0022
    134  CG2      -32.1930   12.2630   -1.4160 C.3   127  ILE127      0.0022
    135  CD1      -29.7540   11.8940   -3.4190 C.3   127  ILE127      0.0001
    136  N        -25.1460    7.7580   -6.1210 N.3   148  LEU148     -0.1231
    137  CA       -25.6980    8.0950   -7.4390 C.3   148  LEU148      0.1693
    138  C        -24.7030    8.7970   -8.2980 C.2   148  LEU148      0.2591
    139  O        -24.5730    8.4640   -9.4930 O.2   148  LEU148     -0.2718
    140  CB       -26.9510    8.9410   -7.3420 C.3   148  LEU148      0.0284
    141  CG       -28.1660    8.2560   -6.7490 C.3   148  LEU148      0.0019
    142  CD1      -29.2980    9.2780   -6.6070 C.3   148  LEU148      0.0001
    143  CD2      -28.5930    7.0710   -7.6000 C.3   148  LEU148      0.0001
    144  N        -24.0030    9.7640   -7.7150 N.am  149  ILE149     -0.1980
    145  CA       -22.9180   10.4560   -8.4430 C.3   149  ILE149      0.1595
    146  C        -21.8780    9.4450   -8.9700 C.2   149  ILE149      0.2287
    147  O        -21.4770    9.5210  -10.1090 O.2   149  ILE149     -0.2864
    148  CB       -22.2830   11.5850   -7.5990 C.3   149  ILE149      0.0276
    149  CG1      -23.2450   12.7710   -7.5200 C.3   149  ILE149      0.0022
    150  CG2      -20.9920   12.0860   -8.2210 C.3   149  ILE149      0.0022
    151  CD1      -23.0120   13.6610   -6.3220 C.3   149  ILE149      0.0001
    152  N        -23.5080    7.5130  -11.8560 N.3   152  LEU152     -0.1231
    153  CA       -23.7400    8.3570  -13.0490 C.3   152  LEU152      0.1693
    154  C        -22.4650    8.7950  -13.7520 C.2   152  LEU152      0.2592
    155  O        -22.4250    8.8070  -14.9820 O.2   152  LEU152     -0.2718
    156  CB       -24.5810    9.5660  -12.6830 C.3   152  LEU152      0.0284
    157  CG       -26.0260    9.2360  -12.3260 C.3   152  LEU152      0.0019
    158  CD1      -26.6340   10.3430  -11.4890 C.3   152  LEU152      0.0001
    159  CD2      -26.7980    9.0510  -13.6100 C.3   152  LEU152      0.0001
    160  N        -21.4370    9.1270  -12.9770 N.am  153  ASP153     -0.1974
    161  CA       -20.0890    9.3940  -13.5280 C.3   153  ASP153      0.1709
    162  C        -19.5110    8.1910  -14.2660 C.2   153  ASP153      0.2293
    163  O        -18.9190    8.3280  -15.3250 O.2   153  ASP153     -0.2864
    164  CB       -19.1110    9.8310  -12.4070 C.3   153  ASP153      0.1436
    165  CG       -19.4250   11.1910  -11.8830 C.2   153  ASP153      0.3671
    166  OD1      -20.2580   11.8630  -12.5480 O.co2 153  ASP153     -0.2456
    167  OD2      -18.8840   11.5800  -10.8110 O.co2 153  ASP153     -0.2456
    168  N        -33.0940    3.7550  -11.1210 N.3   180  ILE180     -0.1245
    169  CA       -33.8140    4.9070  -10.5850 C.3   180  ILE180      0.1561
    170  C        -35.2760    4.5660  -10.2540 C.2   180  ILE180      0.2260
    171  O        -35.7860    4.9590   -9.1970 O.2   180  ILE180     -0.2867
    172  CB       -33.6890    6.0950  -11.5980 C.3   180  ILE180      0.0252
    173  CG1      -32.2200    6.5910  -11.6570 C.3   180  ILE180      0.0019
    174  CG2      -34.6480    7.2330  -11.3180 C.3   180  ILE180      0.0019
    175  CD1      -31.8150    7.4510  -10.4850 C.3   180  ILE180      0.0001
@<TRIPOS>BOND
     1    74    73    1
     2    72    73    1
     3    72    69    1
     4    73    75    1
     5    60    61    1
     6    49    48    2
     7    70    69    1
     8    70    71    2
     9    48    47    1
    10    68    69    1
    11    68    62   am
    12    61    62    1
    13    61    64    1
    14    65    64    1
    15    65    67    1
    16    46    47    1
    17    62    63    2
    18    64    66    1
    19    47    50    1
    20    42    41    2
    21    41    40    1
    22    18    19    1
    23    58    56   ar
    24    58    59   ar
    25    56    53   ar
    26    59    57   ar
    27    53    51   ar
    28    53    55   ar
    29    50    51    1
    30    57    55   ar
    31    51    52   ar
    32    55    54   ar
    33    19    20    1
    34    19    22    1
    35    24    23    1
    36    24    25    1
    37    44    43    1
    38    52    54   ar
    39    21    20    2
    40     1     2    1
    41    37    36    2
    42    40    43    1
    43    40    39    1
    44    23    22    1
    45   163   162    2
    46    43    45    1
    47    36    39   am
    48    36    35    1
    49   155   154    2
    50    10    11    1
    51    34    35    1
    52     2     3    1
    53     2     5    1
    54     9     7   ar
    55    35    38    1
    56     3     4    2
    57    12    13    2
    58    12    11    1
    59   162   161    1
    60    11    14    1
    61   154   153    1
    62   154   160   am
    63     7     6    1
    64     7     8   ar
    65    84    86   ar
    66    84    82   ar
    67   159   157    1
    68     6     5    1
    69   161   160    1
    70   161   164    1
    71    86    85   ar
    72    17    16    1
    73   153   156    1
    74   153   152    1
    75    82    81   ar
    76    29    28    2
    77   156   157    1
    78    14    15    1
    79   166   165   ar
    80   164   165    1
    81    28    27    1
    82    85    83   ar
    83   157   158    1
    84   112   111    1
    85    15    16    1
    86   165   167   ar
    87    81    83   ar
    88    81    80    1
    89   173   172    1
    90   173   175    1
    91   172   174    1
    92   172   169    1
    93    26    27    1
    94   111   110    1
    95   168   169    1
    96    27    30    1
    97    80    77    1
    98    93    91    1
    99   169   170    1
   100    92    91    1
   101   170   171    2
   102   147   146    2
   103   104   103    1
   104    77    78    1
   105    77    76    1
   106    32    30    1
   107    98    95    1
   108    30    31    1
   109    91    88    1
   110    79    78    2
   111   139   138    2
   112    95    94    1
   113    95    96    1
   114   126   125    1
   115   110   109    1
   116    94    89   am
   117   146   145    1
   118   127   125    1
   119   103   100    1
   120    89    90    2
   121    89    88    1
   122    31    33    1
   123    97    96    2
   124   109   106    1
   125   145   144    1
   126   145   148    1
   127   125   124    1
   128    88    87    1
   129   100    99    1
   130   100   101    1
   131   138   144   am
   132   138   137    1
   133   150   148    1
   134   143   141    1
   135   148   149    1
   136   118   117    1
   137   149   151    1
   138   137   140    1
   139   137   136    1
   140   140   141    1
   141   124   121    1
   142   102   101    2
   143   106   107    1
   144   106   105    1
   145   141   142    1
   146   107   113   am
   147   107   108    2
   148   113   114    1
   149   117   114    1
   150   117   119    1
   151   114   115    1
   152   121   120    1
   153   121   122    1
   154   123   122    2
   155   122   128   am
   156   115   116    2
   157   128   129    1
   158   133   135    1
   159   133   132    1
   160   129   132    1
   161   129   130    1
   162   132   134    1
   163   130   131    2
