@<TRIPOS>MOLECULE
tmp/5ickB01.pdb
 172 164 0 0 0
SMALL
GASTEIGER

@<TRIPOS>ATOM
      1  N         -0.5940  -17.2080   11.8970 N.3    22  MET22      -0.1231
      2  CA         0.2600  -16.6820   12.9580 C.3    22  MET22       0.1687
      3  C          1.5120  -17.4880   13.1200 C.2    22  MET22       0.2434
      4  O          1.6180  -18.3270   14.0410 O.2    22  MET22      -0.2733
      5  CB        -0.4710  -16.5970   14.2900 C.3    22  MET22       0.0400
      6  CG        -0.9540  -15.1930   14.6060 C.3    22  MET22       0.0596
      7  SD        -2.7110  -15.1580   14.5020 S.3    22  MET22      -0.1393
      8  CE        -3.1380  -16.2420   15.8840 C.3    22  MET22       0.0692
      9  N          2.4880  -17.2100   12.2540 N.am   23  PRO23      -0.2718
     10  CA         3.7410  -17.9220   12.4320 C.3    23  PRO23       0.1535
     11  C          4.3420  -17.6830   13.8320 C.2    23  PRO23       0.2598
     12  O          4.3160  -16.5530   14.3730 O.2    23  PRO23      -0.2715
     13  CB         4.6300  -17.3970   11.2760 C.3    23  PRO23       0.0310
     14  CG         3.9850  -16.1460   10.7550 C.3    23  PRO23       0.0237
     15  CD         2.5400  -16.1920   11.1740 C.3    23  PRO23       0.0939
     16  N          4.8110  -18.7630   14.4420 N.am   24  GLN24      -0.1978
     17  CA         5.3770  -18.7210   15.8170 C.3    24  GLN24       0.1601
     18  C          6.8880  -18.8690   15.8700 C.2    24  GLN24       0.2287
     19  O          7.4700  -18.8070   16.9740 O.2    24  GLN24      -0.2864
     20  CB         4.6940  -19.7500   16.7530 C.3    24  GLN24       0.0394
     21  CG         3.2150  -19.4530   17.0360 C.3    24  GLN24       0.0908
     22  CD         2.9320  -17.9780   17.4110 C.2    24  GLN24       0.2608
     23  OE1        2.0810  -17.3200   16.8110 O.2    24  GLN24      -0.2717
     24  NE2        3.6540  -17.4680   18.4010 N.am   24  GLN24      -0.0878
     25  N          8.9490  -16.5350   14.7230 N.3    26  ILE26      -0.1231
     26  CA         9.2660  -15.1990   15.2270 C.3    26  ILE26       0.1692
     27  C          9.2940  -15.1840   16.7850 C.2    26  ILE26       0.2592
     28  O         10.2450  -14.6850   17.3890 O.2    26  ILE26      -0.2718
     29  CB         8.2980  -14.1510   14.5870 C.3    26  ILE26       0.0266
     30  CG1        8.7520  -12.7080   14.7840 C.3    26  ILE26       0.0019
     31  CG2        6.9000  -14.2900   15.1390 C.3    26  ILE26       0.0020
     32  CD1       10.1020  -12.3570   14.1960 C.3    26  ILE26       0.0001
     33  N          8.3010  -15.8050   17.4170 N.am   27  THR27      -0.1953
     34  CA         8.1900  -15.8260   18.8650 C.3    27  THR27       0.1897
     35  C          9.1340  -16.8110   19.5430 C.2    27  THR27       0.2313
     36  O          9.7000  -16.5240   20.5820 O.2    27  THR27      -0.2863
     37  CB         6.7700  -16.2310   19.3140 C.3    27  THR27       0.1794
     38  OG1        5.7870  -15.7180   18.4110 O.3    27  THR27      -0.2208
     39  CG2        6.5190  -15.7620   20.7270 C.3    27  THR27       0.0378
     40  N         12.2730  -14.9540   19.7040 N.3    30  ILE30      -0.1245
     41  CA        12.3660  -14.0190   20.8580 C.3    30  ILE30       0.1561
     42  C         12.4850  -14.7250   22.2170 C.2    30  ILE30       0.2260
     43  O         13.0310  -14.1380   23.1440 O.2    30  ILE30      -0.2867
     44  CB        11.2630  -12.9030   20.9150 C.3    30  ILE30       0.0252
     45  CG1       11.7200  -11.7480   21.8260 C.3    30  ILE30       0.0019
     46  CG2        9.9220  -13.4030   21.4490 C.3    30  ILE30       0.0019
     47  CD1       11.0170  -10.4270   21.6180 C.3    30  ILE30       0.0001
     48  N          9.2230   -6.9860   17.5370 N.3    44  LEU44      -0.1245
     49  CA         7.9260   -6.4530   17.8640 C.3    44  LEU44       0.1561
     50  C          7.2410   -5.7070   16.6970 C.2    44  LEU44       0.2260
     51  O          6.0130   -5.7800   16.5440 O.2    44  LEU44      -0.2867
     52  CB         8.0050   -5.5280   19.0840 C.3    44  LEU44       0.0270
     53  CG         8.5040   -6.0690   20.4450 C.3    44  LEU44       0.0019
     54  CD1        7.8520   -5.2970   21.5860 C.3    44  LEU44       0.0001
     55  CD2        8.2550   -7.5630   20.6190 C.3    44  LEU44       0.0001
     56  N          5.7200   -8.2110   14.4580 N.3    47  MET47      -0.1245
     57  CA         4.5430   -8.7920   15.1080 C.3    47  MET47       0.1570
     58  C          3.2990   -7.8770   14.9500 C.2    47  MET47       0.2261
     59  O          2.1970   -8.3370   14.6800 O.2    47  MET47      -0.2867
     60  CB         4.8470   -9.0770   16.5740 C.3    47  MET47       0.0387
     61  CG         5.6060  -10.3660   16.8300 C.3    47  MET47       0.0595
     62  SD         5.9910  -10.5690   18.6070 S.3    47  MET47      -0.1393
     63  CE         6.8890  -12.1080   18.5380 C.3    47  MET47       0.0692
     64  N          2.1950   -8.0860   11.3190 N.3    50  ASN50      -0.1225
     65  CA         1.3290   -9.2230   11.0330 C.3    50  ASN50       0.1785
     66  C         -0.0610   -9.0300   11.7010 C.2    50  ASN50       0.2597
     67  O         -1.0740   -9.5070   11.1660 O.2    50  ASN50      -0.2718
     68  CB         2.0000  -10.5620   11.3920 C.3    50  ASN50       0.1169
     69  CG         1.2970  -11.7700   10.7660 C.2    50  ASN50       0.2627
     70  OD1        0.9480  -11.7650    9.5690 O.2    50  ASN50      -0.2716
     71  ND2        1.0660  -12.8190   11.5720 N.am   50  ASN50      -0.0877
     72  N         -0.1410   -8.3490   12.8520 N.am   51  HIS51      -0.1975
     73  CA        -1.4410   -8.0780   13.4730 C.3    51  HIS51       0.1656
     74  C         -2.3840   -7.1940   12.6490 C.2    51  HIS51       0.2291
     75  O         -3.5780   -7.4450   12.5840 O.2    51  HIS51      -0.2864
     76  CB        -1.2610   -7.3720   14.8100 C.3    51  HIS51       0.0771
     77  CG        -1.0990   -8.2990   15.9660 C.ar   51  HIS51       0.0820
     78  ND1       -2.1230   -9.0820   16.4280 N.ar   51  HIS51      -0.2267
     79  CD2       -0.0660   -8.5070   16.8010 C.ar   51  HIS51       0.1154
     80  CE1       -1.7150   -9.7780   17.4730 C.ar   51  HIS51       0.1986
     81  NE2       -0.4670   -9.4420   17.7180 N.ar   51  HIS51      -0.2212
     82  N         -3.4520  -10.9720   20.6180 N.3    89  SER89      -0.1217
     83  CA        -2.3310  -11.1770   21.4840 C.3    89  SER89       0.1889
     84  C         -2.7200  -12.1400   22.6390 C.2    89  SER89       0.2288
     85  O         -2.0870  -13.1990   22.8150 O.2    89  SER89      -0.2866
     86  CB        -1.7980   -9.8440   21.9610 C.3    89  SER89       0.2089
     87  OG        -1.0340   -9.2450   20.9340 O.3    89  SER89      -0.2183
     88  N         -2.7190  -15.6670   21.5690 N.3    92  ILE92      -0.1231
     89  CA        -1.4470  -16.2650   21.2320 C.3    92  ILE92       0.1692
     90  C         -0.7590  -16.6770   22.5270 C.2    92  ILE92       0.2592
     91  O         -0.2340  -17.7860   22.6060 O.2    92  ILE92      -0.2718
     92  CB        -0.5850  -15.3430   20.3390 C.3    92  ILE92       0.0266
     93  CG1       -1.1750  -15.2830   18.9430 C.3    92  ILE92       0.0019
     94  CG2        0.8560  -15.8330   20.2210 C.3    92  ILE92       0.0020
     95  CD1       -0.5040  -14.2040   18.1050 C.3    92  ILE92       0.0001
     96  N         -0.8190  -15.7910   23.5220 N.am   93  PHE93      -0.1976
     97  CA        -0.2680  -16.0110   24.8790 C.3    93  PHE93       0.1639
     98  C         -0.8150  -17.2710   25.4850 C.2    93  PHE93       0.2290
     99  O         -0.0680  -18.0390   26.0530 O.2    93  PHE93      -0.2864
    100  CB        -0.6580  -14.8480   25.7930 C.3    93  PHE93       0.0560
    101  CG        -0.0060  -14.8500   27.1420 C.ar   93  PHE93      -0.0200
    102  CD1        1.1900  -14.2120   27.3390 C.ar   93  PHE93      -0.0042
    103  CD2       -0.6490  -15.4180   28.2410 C.ar   93  PHE93      -0.0042
    104  CE1        1.7600  -14.1750   28.5990 C.ar   93  PHE93      -0.0003
    105  CE2       -0.0920  -15.3730   29.4930 C.ar   93  PHE93      -0.0003
    106  CZ         1.1120  -14.7360   29.6800 C.ar   93  PHE93      -0.0000
    107  N          1.7460  -20.5440   22.7670 N.3    97  LEU97      -0.1245
    108  CA         3.0250  -20.5450   23.4340 C.3    97  LEU97       0.1561
    109  C          3.1410  -21.6760   24.4520 C.2    97  LEU97       0.2260
    110  O          2.1500  -22.0440   25.0650 O.2    97  LEU97      -0.2867
    111  CB         3.2350  -19.2100   24.1520 C.3    97  LEU97       0.0270
    112  CG         3.3580  -17.9410   23.3020 C.3    97  LEU97       0.0019
    113  CD1        3.6860  -16.7920   24.2220 C.3    97  LEU97       0.0001
    114  CD2        4.4320  -18.0270   22.2310 C.3    97  LEU97       0.0001
    115  N          8.9360  -13.5450   28.7440 N.3   105  LEU105     -0.1245
    116  CA         8.2760  -12.6290   27.7930 C.3   105  LEU105      0.1561
    117  C          8.0880  -11.1830   28.3530 C.2   105  LEU105      0.2260
    118  O          8.3750  -10.1960   27.6430 O.2   105  LEU105     -0.2867
    119  CB         6.9270  -13.2070   27.3460 C.3   105  LEU105      0.0270
    120  CG         7.0740  -14.4950   26.5300 C.3   105  LEU105      0.0019
    121  CD1        5.7700  -15.2420   26.3590 C.3   105  LEU105      0.0001
    122  CD2        7.7450  -14.2500   25.1910 C.3   105  LEU105      0.0001
    123  N         11.3180   -9.6790   27.9710 N.3   108  ARG108     -0.1231
    124  CA        11.5540   -9.4000   26.5420 C.3   108  ARG108      0.1694
    125  C         10.9170   -8.1020   26.1010 C.2   108  ARG108      0.2591
    126  O         11.5530   -7.3180   25.4520 O.2   108  ARG108     -0.2718
    127  CB        11.0680  -10.5370   25.6350 C.3   108  ARG108      0.0321
    128  CG        11.8760  -11.8190   25.7650 C.3   108  ARG108      0.0489
    129  CD        13.2820  -11.7330   25.1730 C.3   108  ARG108      0.2205
    130  NE        14.3120  -12.5530   25.8520 N.pl3 108  ARG108     -0.0865
    131  CZ        14.2940  -13.8760   26.0570 C.cat 108  ARG108      0.5346
    132  NH1       13.2540  -14.6340   25.7300 N.pl3 108  ARG108      0.1354
    133  NH2       15.3350  -14.4560   26.6610 N.pl3 108  ARG108      0.1354
    134  N          9.6850   -7.8500   26.5150 N.am  109  ILE109     -0.1980
    135  CA         8.9790   -6.6150   26.1440 C.3   109  ILE109      0.1595
    136  C          9.4480   -5.3750   26.8640 C.2   109  ILE109      0.2287
    137  O          9.5570   -4.3160   26.2550 O.2   109  ILE109     -0.2864
    138  CB         7.5390   -6.7310   26.5620 C.3   109  ILE109      0.0276
    139  CG1        6.9390   -7.8990   25.8520 C.3   109  ILE109      0.0022
    140  CG2        6.6970   -5.5270   26.1770 C.3   109  ILE109      0.0022
    141  CD1        5.8730   -8.4020   26.7180 C.3   109  ILE109      0.0001
    142  N         -1.2520   -5.0830   30.6600 N.3   122  MET122     -0.1230
    143  CA        -1.1960   -5.9370   29.4810 C.3   122  MET122      0.1702
    144  C         -1.1720   -7.4090   29.8660 C.2   122  MET122      0.2592
    145  O         -1.9930   -8.2050   29.4120 O.2   122  MET122     -0.2718
    146  CB         0.0470   -5.5850   28.6430 C.3   122  MET122      0.0401
    147  CG         0.2000   -6.3730   27.3670 C.3   122  MET122      0.0596
    148  SD         1.8560   -6.2510   26.7020 S.3   122  MET122     -0.1393
    149  CE         2.1500   -4.4770   26.6550 C.3   122  MET122      0.0692
    150  N         -0.2170   -7.7880   30.6970 N.am  123  PHE123     -0.1976
    151  CA        -0.0970   -9.1990   31.0890 C.3   123  PHE123      0.1639
    152  C         -1.1890   -9.6290   32.0640 C.2   123  PHE123      0.2290
    153  O         -1.7370  -10.7000   31.9360 O.2   123  PHE123     -0.2864
    154  CB         1.2950   -9.4820   31.6290 C.3   123  PHE123      0.0560
    155  CG         2.2960   -9.7030   30.5460 C.ar  123  PHE123     -0.0200
    156  CD1        2.6630   -8.6570   29.7160 C.ar  123  PHE123     -0.0042
    157  CD2        2.8350  -10.9670   30.3370 C.ar  123  PHE123     -0.0042
    158  CE1        3.5650   -8.8550   28.7170 C.ar  123  PHE123     -0.0003
    159  CE2        3.7360  -11.1930   29.3460 C.ar  123  PHE123     -0.0003
    160  CZ         4.1090  -10.1360   28.5340 C.ar  123  PHE123     -0.0000
    161  N         -3.7550  -10.5490   29.7530 N.3   126  TYR126     -0.1241
    162  CA        -3.4940  -11.8280   29.1070 C.3   126  TYR126      0.1605
    163  C         -3.8170  -12.9620   30.0790 C.2   126  TYR126      0.2264
    164  O         -4.5710  -13.8900   29.7220 O.2   126  TYR126     -0.2867
    165  CB        -2.0580  -11.9720   28.6470 C.3   126  TYR126      0.0534
    166  CG        -1.5620  -11.0410   27.5520 C.ar  126  TYR126     -0.0201
    167  CD1       -2.4140  -10.5040   26.5760 C.ar  126  TYR126     -0.0009
    168  CD2       -0.2130  -10.7730   27.4530 C.ar  126  TYR126     -0.0009
    169  CE1       -1.9130   -9.6910   25.5910 C.ar  126  TYR126      0.0417
    170  CE2        0.2820   -9.9710   26.4740 C.ar  126  TYR126      0.0417
    171  CZ        -0.5670   -9.4390   25.5510 C.ar  126  TYR126      0.1957
    172  OH        -0.0350   -8.6390   24.5860 O.3   126  TYR126     -0.2866
@<TRIPOS>BOND
     1    70    69    2
     2    14    15    1
     3    14    13    1
     4    69    68    1
     5    69    71   am
     6    65    64    1
     7    65    68    1
     8    65    66    1
     9    67    66    2
    10    15     9    1
    11    13    10    1
    12    66    72   am
    13     1     2    1
    14     9    10    1
    15     9     3   am
    16    10    11    1
    17    75    74    2
    18    74    73    1
    19    72    73    1
    20     2     3    1
    21     2     5    1
    22     3     4    2
    23    73    76    1
    24    11    12    2
    25    11    16   am
    26    32    30    1
    27     5     6    1
    28    16    17    1
    29    56    57    1
    30     7     6    1
    31     7     8    1
    32    29    30    1
    33    29    31    1
    34    29    26    1
    35    59    58    2
    36    25    26    1
    37    76    77    1
    38    58    57    1
    39    57    60    1
    40    26    27    1
    41    17    18    1
    42    17    20    1
    43    18    19    2
    44    77    78   ar
    45    77    79   ar
    46    78    80   ar
    47    51    50    2
    48    60    61    1
    49    50    49    1
    50    20    21    1
    51    27    28    2
    52    27    33   am
    53    79    81   ar
    54    23    22    2
    55    61    62    1
    56    21    22    1
    57    22    24   am
    58    33    34    1
    59    80    81   ar
    60    48    49    1
    61    49    52    1
    62    95    93    1
    63    38    37    1
    64    63    62    1
    65    34    37    1
    66    34    35    1
    67    93    92    1
    68    52    53    1
    69    37    39    1
    70    35    36    2
    71    40    41    1
    72    94    92    1
    73    92    89    1
    74    53    55    1
    75    53    54    1
    76    82    83    1
    77    41    44    1
    78    41    42    1
    79    44    46    1
    80    44    45    1
    81    87    86    1
    82    89    88    1
    83    89    90    1
    84    83    86    1
    85    83    84    1
    86    47    45    1
    87    42    43    2
    88   114   112    1
    89    90    91    2
    90    90    96   am
    91    84    85    2
    92   107   108    1
    93   112   111    1
    94   112   113    1
    95   108   111    1
    96   108   109    1
    97    96    97    1
    98   109   110    2
    99   172   171    1
   100    97    98    1
   101    97   100    1
   102   129   128    1
   103   129   130    1
   104   122   120    1
   105   126   125    2
   106    98    99    2
   107   171   169   ar
   108   171   170   ar
   109   169   167   ar
   110   127   128    1
   111   127   124    1
   112   132   131    1
   113   100   101    1
   114   139   138    1
   115   139   141    1
   116   130   131    2
   117   131   133    1
   118   125   134   am
   119   125   124    1
   120   135   134    1
   121   135   138    1
   122   135   136    1
   123   140   138    1
   124   137   136    2
   125   121   120    1
   126   170   168   ar
   127   120   119    1
   128   124   123    1
   129   167   166   ar
   130   149   148    1
   131   148   147    1
   132   101   102   ar
   133   101   103   ar
   134   102   104   ar
   135   119   116    1
   136   147   146    1
   137   168   166   ar
   138   166   165    1
   139   118   117    2
   140   116   117    1
   141   116   115    1
   142   103   105   ar
   143   160   158   ar
   144   160   159   ar
   145   104   106   ar
   146   146   143    1
   147   165   162    1
   148   158   156   ar
   149   162   161    1
   150   162   163    1
   151   159   157   ar
   152   145   144    2
   153   143   144    1
   154   143   142    1
   155   105   106   ar
   156   156   155   ar
   157   164   163    2
   158   144   150   am
   159   157   155   ar
   160   155   154    1
   161   150   151    1
   162   151   154    1
   163   151   152    1
   164   153   152    2
