@<TRIPOS>MOLECULE
tmp/5ickA01.pdb
 200 193 0 0 0
SMALL
GASTEIGER

@<TRIPOS>ATOM
      1  N         35.4420   -4.5400   44.4700 N.3    41  PHE41      -0.1241
      2  CA        34.7780   -5.3700   45.4730 C.3    41  PHE41       0.1605
      3  C         34.8290   -4.7570   46.8820 C.2    41  PHE41       0.2264
      4  O         33.8260   -4.7570   47.6060 O.2    41  PHE41      -0.2867
      5  CB        35.3910   -6.7750   45.5000 C.3    41  PHE41       0.0534
      6  CG        34.8030   -7.6550   46.5390 C.ar   41  PHE41      -0.0203
      7  CD1       33.5100   -8.2010   46.3670 C.ar   41  PHE41      -0.0042
      8  CD2       35.5050   -7.9370   47.7170 C.ar   41  PHE41      -0.0042
      9  CE1       32.9610   -9.0380   47.3430 C.ar   41  PHE41      -0.0003
     10  CE2       34.9420   -8.7540   48.6870 C.ar   41  PHE41      -0.0003
     11  CZ        33.6750   -9.3060   48.4970 C.ar   41  PHE41      -0.0000
     12  N         32.1340   -2.1570   47.1400 N.3    44  LEU44      -0.1231
     13  CA        30.8300   -2.7660   47.2360 C.3    44  LEU44       0.1693
     14  C         30.6130   -3.3100   48.6330 C.2    44  LEU44       0.2592
     15  O         29.5280   -3.1550   49.1740 O.2    44  LEU44      -0.2718
     16  CB        30.6990   -3.8800   46.2270 C.3    44  LEU44       0.0284
     17  CG        30.8340   -3.5540   44.7560 C.3    44  LEU44       0.0019
     18  CD1       30.4300   -4.7760   43.9060 C.3    44  LEU44       0.0001
     19  CD2       30.0880   -2.3190   44.3430 C.3    44  LEU44       0.0001
     20  N         31.6350   -3.9170   49.2270 N.am   45  THR45      -0.1953
     21  CA        31.5650   -4.3200   50.6080 C.3    45  THR45       0.1897
     22  C         31.1780   -3.1390   51.5150 C.2    45  THR45       0.2313
     23  O         30.2820   -3.2720   52.3700 O.2    45  THR45      -0.2863
     24  CB        32.8770   -4.9720   51.0720 C.3    45  THR45       0.1794
     25  OG1       33.1330   -6.1910   50.3380 O.3    45  THR45      -0.2208
     26  CG2       32.8230   -5.3090   52.5400 C.3    45  THR45       0.0378
     27  N         29.6140   -0.2550   50.5670 N.3    47  MET47      -0.1230
     28  CA        28.2090    0.1170   50.3020 C.3    47  MET47       0.1702
     29  C         27.2330   -0.8600   50.9750 C.2    47  MET47       0.2592
     30  O         26.2920   -0.4300   51.5960 O.2    47  MET47      -0.2718
     31  CB        27.8820    0.1140   48.8140 C.3    47  MET47       0.0401
     32  CG        28.7090    1.0880   48.0510 C.3    47  MET47       0.0596
     33  SD        28.2220    1.2250   46.3440 S.3    47  MET47      -0.1393
     34  CE        29.4060    2.5040   46.0270 C.3    47  MET47       0.0692
     35  N         27.5020   -2.1460   50.8430 N.am   48  ALA48      -0.1980
     36  CA        26.6970   -3.1840   51.4280 C.3    48  ALA48       0.1597
     37  C         26.6360   -3.0400   52.9100 C.2    48  ALA48       0.2287
     38  O         25.5950   -3.0970   53.4960 O.2    48  ALA48      -0.2864
     39  CB        27.2160   -4.5440   51.0580 C.3    48  ALA48       0.0319
     40  N         24.4100   -0.0360   53.5260 N.3    51  HIS51      -0.1241
     41  CA        22.9910   -0.4300   53.2910 C.3    51  HIS51       0.1621
     42  C         22.3620   -1.2040   54.4490 C.2    51  HIS51       0.2264
     43  O         21.2800   -0.9410   54.8890 O.2    51  HIS51      -0.2867
     44  CB        22.9120   -1.3450   52.0780 C.3    51  HIS51       0.0745
     45  CG        23.1120   -0.6500   50.7930 C.ar   51  HIS51       0.0817
     46  ND1       22.2910    0.3650   50.3710 N.ar   51  HIS51      -0.2268
     47  CD2       23.9930   -0.8670   49.7950 C.ar   51  HIS51       0.1154
     48  CE1       22.6850    0.7680   49.1760 C.ar   51  HIS51       0.1986
     49  NE2       23.7250    0.0460   48.8090 N.ar   51  HIS51      -0.2212
     50  N         17.9370   -3.6480   50.5360 N.3    85  MET85      -0.1230
     51  CA        19.1990   -3.2050   49.9440 C.3    85  MET85       0.1702
     52  C         19.1400   -2.9580   48.4440 C.2    85  MET85       0.2592
     53  O         19.5520   -1.9020   48.0060 O.2    85  MET85      -0.2718
     54  CB        20.2770   -4.2720   50.1620 C.3    85  MET85       0.0401
     55  CG        21.5390   -4.0240   49.3810 C.3    85  MET85       0.0596
     56  SD        22.8980   -4.8810   50.1560 S.3    85  MET85      -0.1393
     57  CE        22.8330   -6.4510   49.3130 C.3    85  MET85       0.0692
     58  N         18.6760   -3.9410   47.6570 N.am   86  PHE86      -0.1976
     59  CA        18.5680   -3.7500   46.2210 C.3    86  PHE86       0.1639
     60  C         17.6960   -2.5500   45.8830 C.2    86  PHE86       0.2290
     61  O         17.9310   -1.9280   44.8740 O.2    86  PHE86      -0.2864
     62  CB        18.0270   -4.9790   45.4880 C.3    86  PHE86       0.0560
     63  CG        19.0830   -5.9550   45.1230 C.ar   86  PHE86      -0.0200
     64  CD1       19.6840   -6.7310   46.0860 C.ar   86  PHE86      -0.0042
     65  CD2       19.5000   -6.0800   43.8180 C.ar   86  PHE86      -0.0042
     66  CE1       20.6750   -7.6290   45.7590 C.ar   86  PHE86      -0.0003
     67  CE2       20.4860   -6.9700   43.4750 C.ar   86  PHE86      -0.0003
     68  CZ        21.0680   -7.7580   44.4420 C.ar   86  PHE86      -0.0000
     69  N         19.5750    0.6180   46.6840 N.3    89  SER89      -0.1217
     70  CA        20.6960    0.7610   45.7760 C.3    89  SER89       0.1889
     71  C         20.2390    1.2000   44.4190 C.2    89  SER89       0.2288
     72  O         21.0260    1.7330   43.6720 O.2    89  SER89      -0.2866
     73  CB        21.4290   -0.5320   45.6170 C.3    89  SER89       0.2089
     74  OG        20.6480   -1.3870   44.7860 O.3    89  SER89      -0.2183
     75  N         30.0160    3.7580   38.7900 N.3   105  LEU105     -0.1245
     76  CA        29.5280    2.7470   39.7280 C.3   105  LEU105      0.1561
     77  C         29.2060    1.4880   38.9660 C.2   105  LEU105      0.2260
     78  O         29.7250    0.4020   39.2790 O.2   105  LEU105     -0.2867
     79  CB        28.3160    3.1940   40.5430 C.3   105  LEU105      0.0270
     80  CG        27.7370    2.1080   41.5040 C.3   105  LEU105      0.0019
     81  CD1       28.7770    1.4670   42.4460 C.3   105  LEU105      0.0001
     82  CD2       26.5720    2.6680   42.2960 C.3   105  LEU105      0.0001
     83  N         30.6910   -2.3870   39.4190 N.3   109  ILE109     -0.1245
     84  CA        29.8220   -3.5400   39.6370 C.3   109  ILE109      0.1561
     85  C         30.0560   -4.6280   38.5870 C.2   109  ILE109      0.2260
     86  O         30.0300   -5.8260   38.8810 O.2   109  ILE109     -0.2867
     87  CB        28.3620   -3.0640   39.6640 C.3   109  ILE109      0.0252
     88  CG1       28.1130   -2.3670   41.0070 C.3   109  ILE109      0.0019
     89  CG2       27.4190   -4.2230   39.4550 C.3   109  ILE109      0.0019
     90  CD1       26.8790   -1.5010   41.0690 C.3   109  ILE109      0.0001
     91  N         30.9030  -10.5570   39.9380 N.3   114  ILE114     -0.1245
     92  CA        29.5040  -10.9410   39.7410 C.3   114  ILE114      0.1561
     93  C         29.2300  -11.3940   38.2740 C.2   114  ILE114      0.2260
     94  O         29.4800  -10.6670   37.3320 O.2   114  ILE114     -0.2867
     95  CB        28.5520   -9.7790   40.0920 C.3   114  ILE114      0.0252
     96  CG1       28.8140   -9.2430   41.5000 C.3   114  ILE114      0.0019
     97  CG2       27.1010  -10.2460   40.0130 C.3   114  ILE114      0.0019
     98  CD1       28.4230   -7.7860   41.6810 C.3   114  ILE114      0.0001
     99  N         19.6270   -7.2490   37.5000 N.3   122  MET122     -0.1245
    100  CA        19.8380   -6.1580   38.4040 C.3   122  MET122      0.1570
    101  C         19.6420   -4.8560   37.6920 C.2   122  MET122      0.2261
    102  O         18.7610   -4.1040   38.0910 O.2   122  MET122     -0.2867
    103  CB        21.2060   -6.2280   39.0230 C.3   122  MET122      0.0387
    104  CG        21.4290   -5.2270   40.1330 C.3   122  MET122      0.0595
    105  SD        23.1540   -5.3930   40.6190 S.3   122  MET122     -0.1393
    106  CE        23.4010   -7.1870   40.6690 C.3   122  MET122      0.0692
    107  N         16.9560   -1.7030   37.9080 N.3   126  TYR126     -0.1241
    108  CA        17.3260   -0.2680   38.0010 C.3   126  TYR126      0.1605
    109  C         16.7370    0.6000   36.9020 C.2   126  TYR126      0.2264
    110  O         16.2100    1.6750   37.2040 O.2   126  TYR126     -0.2867
    111  CB        18.8430   -0.0570   37.9610 C.3   126  TYR126      0.0534
    112  CG        19.6230   -0.6140   39.1320 C.ar  126  TYR126     -0.0201
    113  CD1       18.9900   -1.1370   40.2730 C.ar  126  TYR126     -0.0009
    114  CD2       21.0100   -0.6160   39.0990 C.ar  126  TYR126     -0.0009
    115  CE1       19.7210   -1.6350   41.3080 C.ar  126  TYR126      0.0417
    116  CE2       21.7450   -1.1120   40.1500 C.ar  126  TYR126      0.0417
    117  CZ        21.0840   -1.6090   41.2330 C.ar  126  TYR126      0.1957
    118  OH        21.8140   -2.0600   42.2620 O.3   126  TYR126     -0.2866
    119  N         21.3360  -13.0390   44.8530 N.3   204  HIS204     -0.1241
    120  CA        22.2820  -12.6810   45.9120 C.3   204  HIS204      0.1621
    121  C         22.9290  -13.8970   46.5950 C.2   204  HIS204      0.2264
    122  O         24.1620  -13.9600   46.7670 O.2   204  HIS204     -0.2867
    123  CB        21.5500  -11.8420   46.9630 C.3   204  HIS204      0.0745
    124  CG        22.4680  -11.1790   47.9210 C.ar  204  HIS204      0.0817
    125  ND1       22.7940  -11.7440   49.1340 N.ar  204  HIS204     -0.2268
    126  CD2       23.1570  -10.0170   47.8310 C.ar  204  HIS204      0.1154
    127  CE1       23.6290  -10.9410   49.7640 C.ar  204  HIS204      0.1986
    128  NE2       23.8620   -9.8870   48.9960 N.ar  204  HIS204     -0.2212
    129  N         25.3340  -15.1430   44.1940 N.3   207  MET207     -0.1230
    130  CA        26.4450  -14.1920   44.1190 C.3   207  MET207      0.1702
    131  C         27.4230  -14.3790   45.2760 C.2   207  MET207      0.2592
    132  O         28.6270  -14.4090   45.0730 O.2   207  MET207     -0.2718
    133  CB        25.9480  -12.7540   44.1650 C.3   207  MET207      0.0401
    134  CG        25.1490  -12.2720   42.9750 C.3   207  MET207      0.0596
    135  SD        24.2650  -10.7470   43.3790 S.3   207  MET207     -0.1393
    136  CE        25.6330   -9.7860   44.0390 C.3   207  MET207      0.0692
    137  N         26.8840  -14.4800   46.4920 N.am  208  LEU208     -0.1980
    138  CA        27.7010  -14.7320   47.6870 C.3   208  LEU208      0.1596
    139  C         28.3970  -16.0780   47.5850 C.2   208  LEU208      0.2287
    140  O         29.5570  -16.2010   47.9860 O.2   208  LEU208     -0.2864
    141  CB        26.8610  -14.7100   48.9880 C.3   208  LEU208      0.0297
    142  CG        26.8250  -13.4680   49.8890 C.3   208  LEU208      0.0022
    143  CD1       26.7050  -12.1720   49.0970 C.3   208  LEU208      0.0001
    144  CD2       25.6850  -13.5880   50.9010 C.3   208  LEU208      0.0001
    145  N         31.5060  -15.6700   45.2420 N.3   211  TRP211     -0.1241
    146  CA        32.5740  -14.8940   45.8950 C.3   211  TRP211      0.1605
    147  C         33.3030  -15.7760   46.8870 C.2   211  TRP211      0.2264
    148  O         34.5350  -15.7180   47.0130 O.2   211  TRP211     -0.2867
    149  CB        32.0230  -13.6720   46.6480 C.3   211  TRP211      0.0550
    150  CG        31.7160  -12.4630   45.8080 C.ar  211  TRP211      0.0003
    151  CD1       32.4110  -12.0180   44.7280 C.ar  211  TRP211      0.0946
    152  CD2       30.6610  -11.5180   46.0120 C.ar  211  TRP211      0.0152
    153  NE1       31.8580  -10.8730   44.2330 N.ar  211  TRP211     -0.2442
    154  CE2       30.7770  -10.5380   45.0010 C.ar  211  TRP211      0.0810
    155  CE3       29.6300  -11.3950   46.9570 C.ar  211  TRP211      0.0012
    156  CZ2       29.9000   -9.4390   44.9030 C.ar  211  TRP211      0.0191
    157  CZ3       28.7480  -10.2820   46.8600 C.ar  211  TRP211      0.0001
    158  CH2       28.8910   -9.3320   45.8320 C.ar  211  TRP211      0.0015
    159  N         36.6590  -11.9190   51.3210 N.3   217  LYS217     -0.1231
    160  CA        36.2090  -11.7420   52.7060 C.3   217  LYS217      0.1693
    161  C         35.0930  -10.7000   52.8740 C.2   217  LYS217      0.2592
    162  O         34.9990   -9.7370   52.1010 O.2   217  LYS217     -0.2718
    163  CB        37.4250  -11.4760   53.6010 C.3   217  LYS217      0.0285
    164  CG        38.1450  -12.7900   53.8970 C.3   217  LYS217      0.0035
    165  CD        39.6410  -12.6490   54.1000 C.3   217  LYS217      0.0206
    166  CE        40.2990  -14.0160   54.0440 C.3   217  LYS217      0.1093
    167  NZ        41.7610  -13.8540   54.0150 N.3   217  LYS217     -0.1314
    168  N         34.2340  -10.9320   53.8680 N.am  218  PHE218     -0.1976
    169  CA        33.1340  -10.0300   54.1820 C.3   218  PHE218      0.1639
    170  C         33.2200   -9.5990   55.6390 C.2   218  PHE218      0.2290
    171  O         33.8610  -10.2660   56.4460 O.2   218  PHE218     -0.2864
    172  CB        31.8020  -10.7420   54.0400 C.3   218  PHE218      0.0560
    173  CG        31.6760  -11.6380   52.8560 C.ar  218  PHE218     -0.0200
    174  CD1       31.8920  -11.1700   51.5920 C.ar  218  PHE218     -0.0042
    175  CD2       31.2120  -12.9110   52.9980 C.ar  218  PHE218     -0.0042
    176  CE1       31.6940  -11.9600   50.4680 C.ar  218  PHE218     -0.0003
    177  CE2       30.9980  -13.7180   51.8810 C.ar  218  PHE218     -0.0003
    178  CZ        31.2530  -13.2440   50.6130 C.ar  218  PHE218     -0.0000
    179  N         27.8260   -8.3710   57.8870 N.3   222  LEU222     -0.1245
    180  CA        27.3020   -8.9680   56.6680 C.3   222  LEU222      0.1561
    181  C         27.2080  -10.4870   56.8180 C.2   222  LEU222      0.2260
    182  O         26.2120  -11.0810   56.4030 O.2   222  LEU222     -0.2867
    183  CB        28.1410   -8.5920   55.4480 C.3   222  LEU222      0.0270
    184  CG        28.0580   -7.0990   55.0700 C.3   222  LEU222      0.0019
    185  CD1       28.8100   -6.8300   53.7780 C.3   222  LEU222      0.0001
    186  CD2       26.6270   -6.5950   54.9710 C.3   222  LEU222      0.0001
    187  N         23.4410  -12.4860   56.7090 N.3   226  TRP226     -0.1241
    188  CA        23.1850  -13.5540   55.7310 C.3   226  TRP226      0.1605
    189  C         23.6680  -14.9420   56.0850 C.2   226  TRP226      0.2264
    190  O         23.7360  -15.7780   55.1930 O.2   226  TRP226     -0.2867
    191  CB        23.7110  -13.1480   54.3310 C.3   226  TRP226      0.0550
    192  CG        22.9420  -12.0280   53.8050 C.ar  226  TRP226      0.0003
    193  CD1       21.5560  -11.9390   53.7470 C.ar  226  TRP226      0.0946
    194  CD2       23.4400  -10.7970   53.3160 C.ar  226  TRP226      0.0152
    195  NE1       21.1840  -10.7240   53.2420 N.ar  226  TRP226     -0.2442
    196  CE2       22.3110   -9.9980   52.9640 C.ar  226  TRP226      0.0810
    197  CE3       24.7160  -10.2740   53.1380 C.ar  226  TRP226      0.0012
    198  CZ2       22.4380   -8.7430   52.4280 C.ar  226  TRP226      0.0191
    199  CZ3       24.8400   -9.0000   52.6160 C.ar  226  TRP226      0.0001
    200  CH2       23.7200   -8.2570   52.2670 C.ar  226  TRP226      0.0015
@<TRIPOS>BOND
     1   109   110    2
     2   109   108    1
     3    94    93    2
     4    99   100    1
     5   101   102    2
     6   101   100    1
     7   107   108    1
     8   111   108    1
     9   111   112    1
    10    93    92    1
    11   100   103    1
    12    85    86    2
    13    85    84    1
    14    75    76    1
    15    77    78    2
    16    77    76    1
    17   103   104    1
    18   114   112   ar
    19   114   116   ar
    20   112   113   ar
    21    83    84    1
    22    89    87    1
    23    84    87    1
    24    87    88    1
    25    76    79    1
    26    92    91    1
    27    92    95    1
    28    97    95    1
    29    95    96    1
    30   104   105    1
    31   116   117   ar
    32   113   115   ar
    33    79    80    1
    34   105   106    1
    35    88    90    1
    36   117   115   ar
    37   117   118    1
    38    96    98    1
    39    80    82    1
    40    80    81    1
    41   134   135    1
    42   134   133    1
    43   135   136    1
    44    67    65   ar
    45    67    68   ar
    46    72    71    2
    47    65    63   ar
    48    18    17    1
    49   130   133    1
    50   130   129    1
    51   130   131    1
    52   153   151   ar
    53   153   154   ar
    54    19    17    1
    55    71    70    1
    56    68    66   ar
    57     1     2    1
    58   151   150   ar
    59    17    16    1
    60    74    73    1
    61   119   120    1
    62    61    60    2
    63   156   154   ar
    64   156   158   ar
    65   154   152   ar
    66   132   131    2
    67    63    62    1
    68    63    64   ar
    69   145   146    1
    70   131   137   am
    71     2     5    1
    72     2     3    1
    73    62    59    1
    74     5     6    1
    75    73    70    1
    76    66    64   ar
    77    70    69    1
    78   150   152   ar
    79   150   149    1
    80   158   157   ar
    81    60    59    1
    82   146   149    1
    83   146   147    1
    84   120   121    1
    85   120   123    1
    86   152   155   ar
    87    34    33    1
    88    59    58    1
    89    16    13    1
    90    33    32    1
    91     7     6   ar
    92     7     9   ar
    93   137   138    1
    94     6     8   ar
    95   121   122    2
    96   157   155   ar
    97     3     4    2
    98   147   148    2
    99   123   124    1
   100    12    13    1
   101    13    14    1
   102     9    11   ar
   103   139   138    1
   104   139   140    2
   105    58    52   am
   106   138   141    1
   107     8    10   ar
   108   126   124   ar
   109   126   128   ar
   110   124   125   ar
   111    53    52    2
   112    32    31    1
   113    52    51    1
   114    11    10   ar
   115    14    15    2
   116    14    20   am
   117    49    48   ar
   118    49    47   ar
   119    31    28    1
   120   141   142    1
   121   128   127   ar
   122   143   142    1
   123   125   127   ar
   124    48    46   ar
   125    20    21    1
   126    57    56    1
   127    55    56    1
   128    55    54    1
   129    47    45   ar
   130   142   144    1
   131    51    54    1
   132    51    50    1
   133    28    27    1
   134    28    29    1
   135    25    24    1
   136    46    45   ar
   137   176   178   ar
   138   176   174   ar
   139    21    24    1
   140    21    22    1
   141   178   177   ar
   142    45    44    1
   143    35    29   am
   144    35    36    1
   145    29    30    2
   146    39    36    1
   147    24    26    1
   148   159   160    1
   149    36    37    1
   150    22    23    2
   151   174   173   ar
   152   177   175   ar
   153    44    41    1
   154   162   161    2
   155   200   198   ar
   156   200   199   ar
   157   198   196   ar
   158   199   197   ar
   159   160   161    1
   160   160   163    1
   161   173   175   ar
   162   173   172    1
   163   161   168   am
   164    37    38    2
   165   196   195   ar
   166   196   194   ar
   167   197   194   ar
   168   195   193   ar
   169    41    40    1
   170    41    42    1
   171   194   192   ar
   172   163   164    1
   173   193   192   ar
   174   185   184    1
   175   192   191    1
   176   168   169    1
   177   164   165    1
   178   167   166    1
   179   172   169    1
   180   166   165    1
   181   169   170    1
   182   191   188    1
   183    42    43    2
   184   186   184    1
   185   184   183    1
   186   190   189    2
   187   183   180    1
   188   170   171    2
   189   188   189    1
   190   188   187    1
   191   182   181    2
   192   180   181    1
   193   180   179    1
