@<TRIPOS>MOLECULE
tmp/5icnB00.pdb
 219 217 0 0 0
SMALL
GASTEIGER

@<TRIPOS>ATOM
      1  N        -49.3780   26.1470    4.4150 N.3    17  TYR17      -0.1227
      2  CA       -48.0840   25.4470    4.4770 C.3    17  TYR17       0.1736
      3  C        -46.9420   26.3180    4.9330 C.2    17  TYR17       0.2596
      4  O        -45.9990   25.8290    5.5570 O.2    17  TYR17      -0.2718
      5  CB       -47.6990   24.8720    3.1210 C.3    17  TYR17       0.0548
      6  CG       -48.0750   23.4340    2.9600 C.ar   17  TYR17      -0.0200
      7  CD1      -49.4040   23.0410    2.9740 C.ar   17  TYR17      -0.0009
      8  CD2      -47.1010   22.4650    2.7950 C.ar   17  TYR17      -0.0009
      9  CE1      -49.7540   21.7170    2.8260 C.ar   17  TYR17       0.0417
     10  CE2      -47.4360   21.1380    2.6420 C.ar   17  TYR17       0.0417
     11  CZ       -48.7620   20.7710    2.6610 C.ar   17  TYR17       0.1957
     12  OH       -49.0900   19.4510    2.5040 O.3    17  TYR17      -0.2866
     13  N        -46.9950   27.5950    4.5890 N.am   18  GLY18      -0.1942
     14  CA       -45.9900   28.5200    5.0670 C.3    18  GLY18       0.2014
     15  C        -45.6280   29.5320    4.0200 C.2    18  GLY18       0.2639
     16  O        -45.7970   29.2990    2.8260 O.2    18  GLY18      -0.2714
     17  N        -45.1270   30.6670    4.4780 N.am   19  GLN19      -0.1963
     18  CA       -44.7020   31.7120    3.5820 C.3    19  GLN19       0.1733
     19  C        -43.7290   31.1470    2.5630 C.2    19  GLN19       0.2617
     20  O        -42.8360   30.3790    2.9090 O.2    19  GLN19      -0.2715
     21  CB       -44.0280   32.8330    4.3600 C.3    19  GLN19       0.0408
     22  CG       -43.4940   33.9580    3.4790 C.3    19  GLN19       0.0908
     23  CD       -42.9650   35.1440    4.2650 C.2    19  GLN19       0.2608
     24  OE1      -43.0780   36.2800    3.8040 O.2    19  GLN19      -0.2717
     25  NE2      -42.3910   34.8960    5.4570 N.am   19  GLN19      -0.0878
     26  N        -43.9300   31.5160    1.3020 N.am   20  GLY20      -0.1940
     27  CA       -43.0290   31.1410    0.2100 C.3    20  GLY20       0.2014
     28  C        -43.1690   29.7130   -0.2790 C.2    20  GLY20       0.2639
     29  O        -42.4550   29.3070   -1.1910 O.2    20  GLY20      -0.2714
     30  N        -44.0830   28.9530    0.3270 N.am   21  HIS21      -0.1959
     31  CA       -44.3000   27.5460   -0.0250 C.3    21  HIS21       0.1772
     32  C        -45.3210   27.3730   -1.1620 C.2    21  HIS21       0.2462
     33  O        -46.3850   27.9990   -1.1530 O.2    21  HIS21      -0.2730
     34  CB       -44.7760   26.7520    1.1930 C.3    21  HIS21       0.0785
     35  CG       -44.6850   25.2720    1.0010 C.ar   21  HIS21       0.0821
     36  ND1      -43.5650   24.5440    1.3330 N.ar   21  HIS21      -0.2267
     37  CD2      -45.5580   24.3920    0.4670 C.ar   21  HIS21       0.1154
     38  CE1      -43.7620   23.2740    1.0360 C.ar   21  HIS21       0.1986
     39  NE2      -44.9630   23.1540    0.5050 N.ar   21  HIS21      -0.2212
     40  N        -45.0130   26.5060   -2.1370 N.am   22  PRO22      -0.2716
     41  CA       -45.8470   26.4090   -3.3410 C.3    22  PRO22       0.1536
     42  C        -47.1610   25.6480   -3.1470 C.2    22  PRO22       0.2598
     43  O        -48.1750   26.0070   -3.7240 O.2    22  PRO22      -0.2715
     44  CB       -44.9360   25.6830   -4.3350 C.3    22  PRO22       0.0310
     45  CG       -44.0040   24.8830   -3.4920 C.3    22  PRO22       0.0237
     46  CD       -43.8030   25.6670   -2.2270 C.3    22  PRO22       0.0939
     47  N        -47.1290   24.5810   -2.3690 N.am   23  MET23      -0.1978
     48  CA       -48.3380   23.8500   -2.0370 C.3    23  MET23       0.1605
     49  C        -49.3070   24.7560   -1.3000 C.2    23  MET23       0.2287
     50  O        -49.0270   25.2160   -0.1970 O.2    23  MET23      -0.2864
     51  CB       -47.9930   22.6230   -1.1830 C.3    23  MET23       0.0413
     52  CG       -49.1740   21.8990   -0.5600 C.3    23  MET23       0.0598
     53  SD       -50.3770   21.3380   -1.7620 S.3    23  MET23      -0.1393
     54  CE       -49.4570   20.0090   -2.5330 C.3    23  MET23       0.0692
     55  N        -38.0780   13.6300    8.0110 N.3    88  ASN88      -0.1240
     56  CA       -38.0750   14.4590    6.7970 C.3    88  ASN88       0.1653
     57  C        -38.8920   15.7660    6.8680 C.2    88  ASN88       0.2266
     58  O        -39.1760   16.3780    5.8420 O.2    88  ASN88      -0.2867
     59  CB       -38.5520   13.6210    5.6020 C.3    88  ASN88       0.1155
     60  CG       -38.2710   14.2880    4.2670 C.2    88  ASN88       0.2627
     61  OD1      -39.1910   14.7370    3.5760 O.2    88  ASN88      -0.2716
     62  ND2      -36.9980   14.3700    3.9030 N.am   88  ASN88      -0.0877
     63  N        -39.2100   19.4180    7.1440 N.3    90  GLY90      -0.1210
     64  CA       -38.4390   20.6680    7.1110 C.3    90  GLY90       0.1956
     65  C        -38.4010   21.4060    5.7800 C.2    90  GLY90       0.2612
     66  O        -39.4290   21.8770    5.2980 O.2    90  GLY90      -0.2717
     67  N        -37.2140   21.4780    5.1750 N.am   91  GLU91      -0.1965
     68  CA       -36.9330   22.3960    4.0470 C.3    91  GLU91       0.1733
     69  C        -38.0950   22.6070    3.0720 C.2    91  GLU91       0.2616
     70  O        -38.5480   23.7410    2.8720 O.2    91  GLU91      -0.2715
     71  CB       -35.6620   21.9670    3.2870 C.3    91  GLU91       0.0429
     72  CG       -34.3720   22.5060    3.8830 C.3    91  GLU91       0.1163
     73  CD       -34.3560   22.4190    5.3970 C.2    91  GLU91       0.3649
     74  OE1      -33.6570   21.5300    5.9280 O.co2  91  GLU91      -0.2457
     75  OE2      -35.0670   23.2170    6.0550 O.co2  91  GLU91      -0.2457
     76  N        -38.5710   21.5230    2.4690 N.am   92  ASP92      -0.1957
     77  CA       -39.7250   21.6070    1.5880 C.3    92  ASP92       0.1840
     78  C        -40.9560   20.8580    2.1390 C.2    92  ASP92       0.2622
     79  O        -41.9680   20.7830    1.4690 O.2    92  ASP92      -0.2715
     80  CB       -39.3620   21.1220    0.1770 C.3    92  ASP92       0.1450
     81  CG       -38.3510   22.0390   -0.5410 C.2    92  ASP92       0.3671
     82  OD1      -37.8850   23.0390    0.0450 O.co2  92  ASP92      -0.2456
     83  OD2      -38.0140   21.7520   -1.7110 O.co2  92  ASP92      -0.2456
     84  N        -40.8970   20.3110    3.3500 N.am   93  CYS93      -0.1954
     85  CA       -42.1320   19.8600    4.0280 C.3    93  CYS93       0.1828
     86  C        -42.2840   20.5390    5.3880 C.2    93  CYS93       0.2467
     87  O        -41.9900   19.9150    6.4090 O.2    93  CYS93      -0.2730
     88  CB       -42.1340   18.3420    4.2560 C.3    93  CYS93       0.0996
     89  SG       -42.3320   17.2750    2.8090 S.3    93  CYS93      -0.0797
     90  N        -42.7660   21.8010    5.4250 N.am   94  PRO94      -0.2726
     91  CA       -42.6780   22.4860    6.7110 C.3    94  PRO94       0.1402
     92  C        -43.5620   21.8690    7.7720 C.2    94  PRO94       0.2269
     93  O        -44.4330   21.0430    7.4680 O.2    94  PRO94      -0.2865
     94  CB       -43.1590   23.9190    6.4030 C.3    94  PRO94       0.0296
     95  CG       -43.1960   24.0310    4.9170 C.3    94  PRO94       0.0237
     96  CD       -43.4430   22.6350    4.4180 C.3    94  PRO94       0.0939
     97  N        -49.1630   11.6530   -2.8280 N.3   133  HIS133     -0.1226
     98  CA       -48.5770   10.3740   -3.2440 C.3   133  HIS133      0.1752
     99  C        -47.0710   10.1420   -2.9930 C.2   133  HIS133      0.2596
    100  O        -46.5630    9.0550   -3.3160 O.2   133  HIS133     -0.2718
    101  CB       -48.9060   10.1320   -4.7320 C.3   133  HIS133      0.0759
    102  CG       -48.2750   11.1060   -5.6840 C.ar  133  HIS133      0.0818
    103  ND1      -48.0520   10.7920   -7.0050 N.ar  133  HIS133     -0.2268
    104  CD2      -47.8310   12.3760   -5.5220 C.ar  133  HIS133      0.1154
    105  CE1      -47.4970   11.8230   -7.6140 C.ar  133  HIS133      0.1986
    106  NE2      -47.3510   12.7970   -6.7360 N.ar  133  HIS133     -0.2212
    107  N        -46.3730   11.1310   -2.4220 N.am  134  HIS134     -0.1975
    108  CA       -44.9280   11.0070   -2.1290 C.3   134  HIS134      0.1656
    109  C        -44.6240   10.4850   -0.7280 C.2   134  HIS134      0.2291
    110  O        -43.4810   10.1410   -0.4200 O.2   134  HIS134     -0.2864
    111  CB       -44.2160   12.3450   -2.3280 C.3   134  HIS134      0.0771
    112  CG       -44.1990   12.8050   -3.7470 C.ar  134  HIS134      0.0820
    113  ND1      -43.9560   11.9550   -4.8020 N.ar  134  HIS134     -0.2267
    114  CD2      -44.3900   14.0300   -4.2900 C.ar  134  HIS134      0.1154
    115  CE1      -44.0030   12.6350   -5.9340 C.ar  134  HIS134      0.1986
    116  NE2      -44.2640   13.8970   -5.6510 N.ar  134  HIS134     -0.2212
    117  N        -42.5470   13.2270    2.6650 N.3   141  SER141     -0.1202
    118  CA       -41.7520   13.5840    1.4730 C.3   141  SER141      0.2020
    119  C        -42.5770   14.2990    0.4140 C.2   141  SER141      0.2619
    120  O        -43.7360   13.9560    0.1920 O.2   141  SER141     -0.2717
    121  CB       -41.1440   12.3460    0.8130 C.3   141  SER141      0.2103
    122  OG       -40.6970   12.6670   -0.4960 O.3   141  SER141     -0.2182
    123  N        -41.9590   15.2600   -0.2670 N.am  142  GLY142     -0.1942
    124  CA       -42.6460   16.0180   -1.3170 C.3   142  GLY142      0.2014
    125  C        -44.0350   16.5220   -0.9320 C.2   142  GLY142      0.2639
    126  O        -45.0450   16.2010   -1.5630 O.2   142  GLY142     -0.2714
    127  N        -44.0800   17.2910    0.1430 N.am  143  PHE143     -0.1959
    128  CA       -45.3050   17.9260    0.6160 C.3   143  PHE143      0.1771
    129  C        -46.3470   16.9580    1.1430 C.2   143  PHE143      0.2619
    130  O        -47.3840   17.3950    1.6200 O.2   143  PHE143     -0.2715
    131  CB       -45.9160   18.8060   -0.4780 C.3   143  PHE143      0.0574
    132  CG       -44.9080   19.6300   -1.2280 C.ar  143  PHE143     -0.0200
    133  CD1      -43.7520   20.0650   -0.6180 C.ar  143  PHE143     -0.0042
    134  CD2      -45.1310   19.9950   -2.5360 C.ar  143  PHE143     -0.0042
    135  CE1      -42.8300   20.8310   -1.3100 C.ar  143  PHE143     -0.0003
    136  CE2      -44.2190   20.7710   -3.2320 C.ar  143  PHE143     -0.0003
    137  CZ       -43.0670   21.1910   -2.6140 C.ar  143  PHE143     -0.0000
    138  N        -46.0640   15.6590    1.0940 N.am  144  CYS144     -0.1968
    139  CA       -47.0130   14.6430    1.5300 C.3   144  CYS144      0.1712
    140  C        -46.5880   14.1190    2.9040 C.2   144  CYS144      0.2296
    141  O        -45.4170   13.8240    3.1270 O.2   144  CYS144     -0.2864
    142  CB       -47.0940   13.5150    0.4890 C.3   144  CYS144      0.0983
    143  SG       -47.4120   14.1010   -1.2000 S.3   144  CYS144     -0.0798
    144  N        -49.8670   12.8580  -12.4010 N.3   169  ASP169     -0.1239
    145  CA       -49.0430   13.8960  -11.8000 C.3   169  ASP169      0.1674
    146  C        -47.7210   13.9220  -12.5370 C.2   169  ASP169      0.2266
    147  O        -47.2030   12.8720  -12.9280 O.2   169  ASP169     -0.2867
    148  CB       -48.8160   13.6010  -10.3100 C.3   169  ASP169      0.1410
    149  CG       -48.2750   14.7710   -9.5620 C.2   169  ASP169      0.3668
    150  OD1      -47.0410   14.9700   -9.5540 O.co2 169  ASP169     -0.2456
    151  OD2      -49.0910   15.4860   -8.9560 O.co2 169  ASP169     -0.2456
    152  N        -44.8880   14.4540  -11.2280 N.3   171  HIS171     -0.1241
    153  CA       -43.9000   13.7700  -10.3710 C.3   171  HIS171      0.1621
    154  C        -44.2160   12.2760  -10.2100 C.2   171  HIS171      0.2264
    155  O        -45.3750   11.9080  -10.0310 O.2   171  HIS171     -0.2867
    156  CB       -43.8300   14.4420   -8.9900 C.3   171  HIS171      0.0745
    157  CG       -43.3750   15.8700   -9.0360 C.ar  171  HIS171      0.0817
    158  ND1      -44.2370   16.9270   -8.8500 N.ar  171  HIS171     -0.2268
    159  CD2      -42.1530   16.4170   -9.2530 C.ar  171  HIS171      0.1154
    160  CE1      -43.5700   18.0630   -8.9530 C.ar  171  HIS171      0.1986
    161  NE2      -42.3020   17.7820   -9.1950 N.ar  171  HIS171     -0.2212
    162  N        -37.6670   15.5770   -9.3140 N.3   198  PHE198     -0.1241
    163  CA       -38.0460   14.8240   -8.1470 C.3   198  PHE198      0.1605
    164  C        -39.0600   13.7690   -8.5690 C.2   198  PHE198      0.2264
    165  O        -39.8460   14.0080   -9.4820 O.2   198  PHE198     -0.2867
    166  CB       -38.6010   15.7720   -7.0970 C.3   198  PHE198      0.0534
    167  CG       -39.0590   15.0920   -5.8580 C.ar  198  PHE198     -0.0203
    168  CD1      -40.3810   14.7440   -5.7150 C.ar  198  PHE198     -0.0042
    169  CD2      -38.1650   14.7790   -4.8450 C.ar  198  PHE198     -0.0042
    170  CE1      -40.8180   14.1030   -4.5800 C.ar  198  PHE198     -0.0003
    171  CE2      -38.5880   14.1350   -3.7030 C.ar  198  PHE198     -0.0003
    172  CZ       -39.9210   13.8010   -3.5680 C.ar  198  PHE198     -0.0000
    173  N        -50.1130   19.3330  -11.7930 N.3   257  ASP257     -0.1239
    174  CA       -48.8360   20.0170  -12.0660 C.3   257  ASP257      0.1674
    175  C        -48.2290   19.5440  -13.3770 C.2   257  ASP257      0.2266
    176  O        -47.2130   20.0820  -13.8310 O.2   257  ASP257     -0.2867
    177  CB       -47.8220   19.8940  -10.9060 C.3   257  ASP257      0.1410
    178  CG       -47.6570   18.4800  -10.3890 C.2   257  ASP257      0.3668
    179  OD1      -48.3350   17.5530  -10.8770 O.co2 257  ASP257     -0.2456
    180  OD2      -46.8320   18.2990   -9.4760 O.co2 257  ASP257     -0.2456
    181  N        -46.0200   26.1140  -11.9000 N.3   263  ARG263     -0.1231
    182  CA       -44.9470   26.8140  -11.2540 C.3   263  ARG263      0.1694
    183  C        -43.7780   25.8620  -11.1470 C.2   263  ARG263      0.2591
    184  O        -42.6610   26.2580  -11.4200 O.2   263  ARG263     -0.2718
    185  CB       -45.4100   27.2950   -9.8770 C.3   263  ARG263      0.0321
    186  CG       -44.8790   28.6600   -9.4600 C.3   263  ARG263      0.0489
    187  CD       -45.9390   29.5400   -8.7750 C.3   263  ARG263      0.2205
    188  NE       -46.5580   30.5200   -9.6880 N.pl3 263  ARG263     -0.0865
    189  CZ       -47.1910   31.6330   -9.3080 C.cat 263  ARG263      0.5346
    190  NH1      -47.3110   31.9460   -8.0230 N.pl3 263  ARG263      0.1354
    191  NH2      -47.7050   32.4500  -10.2200 N.pl3 263  ARG263      0.1354
    192  N        -44.0470   24.6060  -10.7750 N.am  264  LEU264     -0.1980
    193  CA       -43.0020   23.5720  -10.5870 C.3   264  LEU264      0.1596
    194  C        -42.8610   22.6530  -11.8000 C.2   264  LEU264      0.2287
    195  O        -41.7610   22.2050  -12.1290 O.2   264  LEU264     -0.2864
    196  CB       -43.2700   22.7320   -9.3170 C.3   264  LEU264      0.0297
    197  CG       -42.7270   23.3330   -8.0130 C.3   264  LEU264      0.0022
    198  CD1      -43.3730   24.6890   -7.7660 C.3   264  LEU264      0.0001
    199  CD2      -42.9280   22.4390   -6.7960 C.3   264  LEU264      0.0001
    200  N        -53.8200   15.8260   -6.0520 N.3   293  GLY293     -0.1210
    201  CA       -52.3720   15.6840   -6.0520 C.3   293  GLY293      0.1956
    202  C        -51.7000   17.0350   -6.2360 C.2   293  GLY293      0.2612
    203  O        -52.2200   18.0700   -5.8040 O.2   293  GLY293     -0.2717
    204  N        -50.5350   17.0260   -6.8760 N.am  294  GLY294     -0.1956
    205  CA       -49.8280   18.2590   -7.2130 C.3   294  GLY294      0.1869
    206  C        -50.6060   19.2210   -8.1170 C.2   294  GLY294      0.2309
    207  O        -51.6890   18.9010   -8.6460 O.2   294  GLY294     -0.2863
    208  N        -49.5220   23.7160   -8.9660 N.3   296  TYR296     -0.1241
    209  CA       -48.9650   24.9010   -8.2870 C.3   296  TYR296      0.1605
    210  C        -49.1770   26.2750   -8.9440 C.2   296  TYR296      0.2264
    211  O        -48.7100   27.2800   -8.4250 O.2   296  TYR296     -0.2867
    212  CB       -47.4930   24.6420   -7.9910 C.3   296  TYR296      0.0534
    213  CG       -47.3540   23.3720   -7.2150 C.ar  296  TYR296     -0.0201
    214  CD1      -47.6700   23.3300   -5.8530 C.ar  296  TYR296     -0.0009
    215  CD2      -46.9850   22.2040   -7.8430 C.ar  296  TYR296     -0.0009
    216  CE1      -47.5790   22.1590   -5.1370 C.ar  296  TYR296      0.0417
    217  CE2      -46.8860   21.0290   -7.1380 C.ar  296  TYR296      0.0417
    218  CZ       -47.1860   21.0120   -5.7880 C.ar  296  TYR296      0.1957
    219  OH       -47.0980   19.8340   -5.0930 O.3   296  TYR296     -0.2866
@<TRIPOS>BOND
     1   176   175    2
     2   175   174    1
     3   147   146    2
     4   146   145    1
     5   144   145    1
     6   195   194    2
     7   174   173    1
     8   174   177    1
     9   181   182    1
    10   194   193    1
    11   145   148    1
    12   184   183    2
    13   182   183    1
    14   182   185    1
    15   152   153    1
    16   183   192   am
    17   177   178    1
    18   179   178   ar
    19   192   193    1
    20   193   196    1
    21   178   180   ar
    22   153   154    1
    23   153   156    1
    24   148   149    1
    25   191   189    1
    26   154   155    2
    27   185   186    1
    28   188   189    2
    29   188   187    1
    30   149   150   ar
    31   149   151   ar
    32   165   164    2
    33   186   187    1
    34   196   197    1
    35   162   163    1
    36   189   190    1
    37   159   161   ar
    38   159   157   ar
    39   161   160   ar
    40   157   156    1
    41   157   158   ar
    42   208   209    1
    43   160   158   ar
    44   210   211    2
    45   210   209    1
    46   207   206    2
    47   164   163    1
    48   209   212    1
    49   163   166    1
    50   206   205    1
    51   197   198    1
    52   197   199    1
    53   212   213    1
    54   215   213   ar
    55   215   217   ar
    56   105   103   ar
    57   105   106   ar
    58   213   214   ar
    59   205   204    1
    60   217   218   ar
    61   166   167    1
    62   103   102   ar
    63   204   202   am
    64   106   104   ar
    65   202   201    1
    66   202   203    2
    67   201   200    1
    68   115   116   ar
    69   115   113   ar
    70   167   168   ar
    71   167   169   ar
    72   214   216   ar
    73   218   216   ar
    74   218   219    1
    75   168   170   ar
    76   102   104   ar
    77   102   101    1
    78   116   114   ar
    79   169   171   ar
    80   113   112   ar
    81   101    98    1
    82   170   172   ar
    83    44    45    1
    84    44    41    1
    85   114   112   ar
    86   112   111    1
    87    43    42    2
    88   171   172   ar
    89    45    46    1
    90    41    42    1
    91    41    40    1
    92   100    99    2
    93    98    99    1
    94    98    97    1
    95   136   137   ar
    96   136   134   ar
    97    42    47   am
    98    99   107   am
    99   137   135   ar
   100   134   132   ar
   101    54    53    1
   102   107   108    1
   103    47    48    1
   104   111   108    1
   105    46    40    1
   106    40    32   am
   107   108   109    1
   108    48    49    1
   109    48    51    1
   110    53    52    1
   111    83    81   ar
   112   126   125    2
   113   124   125    1
   114   124   123    1
   115   135   133   ar
   116    49    50    2
   117   132   133   ar
   118   132   131    1
   119   143   142    1
   120    29    28    2
   121    51    52    1
   122    32    33    2
   123    32    31    1
   124   125   127   am
   125   109   110    2
   126    81    82   ar
   127    81    80    1
   128   122   121    1
   129   131   128    1
   130    28    27    1
   131    28    30   am
   132   123   119   am
   133    31    30    1
   134    31    34    1
   135   127   128    1
   136    80    77    1
   137   120   119    2
   138    27    26    1
   139   119   118    1
   140    37    39   ar
   141    37    35   ar
   142   142   139    1
   143    39    38   ar
   144   128   129    1
   145   121   118    1
   146    35    34    1
   147    35    36   ar
   148    38    36   ar
   149   138   129   am
   150   138   139    1
   151   129   130    2
   152    26    19   am
   153    79    78    2
   154   118   117    1
   155   139   140    1
   156    77    78    1
   157    77    76    1
   158    78    84   am
   159    76    69   am
   160    12    11    1
   161    19    20    2
   162    19    18    1
   163    10    11   ar
   164    10     8   ar
   165    11     9   ar
   166     8     6   ar
   167    89    88    1
   168    16    15    2
   169     9     7   ar
   170    70    69    2
   171   140   141    2
   172     6     7   ar
   173     6     5    1
   174    69    68    1
   175     5     2    1
   176    71    72    1
   177    71    68    1
   178    84    85    1
   179    22    23    1
   180    22    21    1
   181    61    60    2
   182    18    21    1
   183    18    17    1
   184    24    23    2
   185    72    73    1
   186    62    60   am
   187    15    17   am
   188    15    14    1
   189    85    88    1
   190    85    86    1
   191    68    67    1
   192    23    25   am
   193    60    59    1
   194     1     2    1
   195    96    95    1
   196    96    90    1
   197     2     3    1
   198    13     3   am
   199    13    14    1
   200    95    94    1
   201     3     4    2
   202    67    65   am
   203    66    65    2
   204    86    90   am
   205    86    87    2
   206    73    74   ar
   207    73    75   ar
   208    90    91    1
   209    59    56    1
   210    65    64    1
   211    58    57    2
   212    94    91    1
   213    91    92    1
   214    56    57    1
   215    56    55    1
   216    64    63    1
   217    93    92    2
