@<TRIPOS>MOLECULE
tmp/5icnB01.pdb
 112 111 0 0 0
SMALL
GASTEIGER

@<TRIPOS>ATOM
      1  N        -52.5130   26.2390    5.9840 N.3    16  TYR16      -0.1241
      2  CA       -51.4910   26.9790    5.2590 C.3    16  TYR16       0.1605
      3  C        -50.1170   26.3720    5.5000 C.2    16  TYR16       0.2264
      4  O        -49.7280   26.1330    6.6460 O.2    16  TYR16      -0.2867
      5  CB       -51.4970   28.4190    5.7440 C.3    16  TYR16       0.0534
      6  CG       -50.5710   29.3570    5.0010 C.ar   16  TYR16      -0.0201
      7  CD1      -50.8550   29.7590    3.7010 C.ar   16  TYR16      -0.0009
      8  CD2      -49.4400   29.8800    5.6140 C.ar   16  TYR16      -0.0009
      9  CE1      -50.0300   30.6410    3.0230 C.ar   16  TYR16       0.0417
     10  CE2      -48.6060   30.7600    4.9400 C.ar   16  TYR16       0.0417
     11  CZ       -48.9070   31.1360    3.6410 C.ar   16  TYR16       0.1957
     12  OH       -48.0920   32.0110    2.9510 O.3    16  TYR16      -0.2866
     13  N        -45.1270   30.6670    4.4780 N.3    19  GLN19      -0.1231
     14  CA       -44.7020   31.7120    3.5820 C.3    19  GLN19       0.1698
     15  C        -43.7290   31.1470    2.5630 C.2    19  GLN19       0.2593
     16  O        -42.8360   30.3790    2.9090 O.2    19  GLN19      -0.2718
     17  CB       -44.0280   32.8330    4.3600 C.3    19  GLN19       0.0381
     18  CG       -43.4940   33.9580    3.4790 C.3    19  GLN19       0.0905
     19  CD       -42.9650   35.1440    4.2650 C.2    19  GLN19       0.2608
     20  OE1      -43.0780   36.2800    3.8040 O.2    19  GLN19      -0.2717
     21  NE2      -42.3910   34.8960    5.4570 N.am   19  GLN19      -0.0878
     22  N        -43.9300   31.5160    1.3020 N.am   20  GLY20      -0.1942
     23  CA       -43.0290   31.1410    0.2100 C.3    20  GLY20       0.2014
     24  C        -43.1690   29.7130   -0.2790 C.2    20  GLY20       0.2639
     25  O        -42.4550   29.3070   -1.1910 O.2    20  GLY20      -0.2714
     26  N        -44.0830   28.9530    0.3270 N.am   21  HIS21      -0.1959
     27  CA       -44.3000   27.5460   -0.0250 C.3    21  HIS21       0.1772
     28  C        -45.3210   27.3730   -1.1620 C.2    21  HIS21       0.2462
     29  O        -46.3850   27.9990   -1.1530 O.2    21  HIS21      -0.2730
     30  CB       -44.7760   26.7520    1.1930 C.3    21  HIS21       0.0785
     31  CG       -44.6850   25.2720    1.0010 C.ar   21  HIS21       0.0821
     32  ND1      -43.5650   24.5440    1.3330 N.ar   21  HIS21      -0.2267
     33  CD2      -45.5580   24.3920    0.4670 C.ar   21  HIS21       0.1154
     34  CE1      -43.7620   23.2740    1.0360 C.ar   21  HIS21       0.1986
     35  NE2      -44.9630   23.1540    0.5050 N.ar   21  HIS21      -0.2212
     36  N        -45.0130   26.5060   -2.1370 N.am   22  PRO22      -0.2727
     37  CA       -45.8470   26.4090   -3.3410 C.3    22  PRO22       0.1402
     38  C        -47.1610   25.6480   -3.1470 C.2    22  PRO22       0.2269
     39  O        -48.1750   26.0070   -3.7240 O.2    22  PRO22      -0.2865
     40  CB       -44.9360   25.6830   -4.3350 C.3    22  PRO22       0.0296
     41  CG       -44.0040   24.8830   -3.4920 C.3    22  PRO22       0.0237
     42  CD       -43.8030   25.6670   -2.2270 C.3    22  PRO22       0.0939
     43  N        -50.4530   25.0020   -1.9150 N.3    24  LYS24      -0.1245
     44  CA       -51.4430   25.8780   -1.3250 C.3    24  LYS24       0.1561
     45  C        -52.8300   25.2210   -1.2900 C.2    24  LYS24       0.2260
     46  O        -53.5340   25.1910   -2.2970 O.2    24  LYS24      -0.2867
     47  CB       -51.4340   27.1980   -2.0830 C.3    24  LYS24       0.0271
     48  CG       -50.3600   28.1560   -1.5660 C.3    24  LYS24       0.0035
     49  CD       -49.4410   28.6710   -2.6570 C.3    24  LYS24       0.0206
     50  CE       -50.1800   29.5340   -3.6610 C.3    24  LYS24       0.1093
     51  NZ       -49.2480   30.0430   -4.7020 N.3    24  LYS24      -0.1314
     52  N        -46.0200   26.1140  -11.9000 N.3   263  ARG263     -0.1245
     53  CA       -44.9470   26.8140  -11.2540 C.3   263  ARG263      0.1563
     54  C        -43.7780   25.8620  -11.1470 C.2   263  ARG263      0.2260
     55  O        -42.6610   26.2580  -11.4200 O.2   263  ARG263     -0.2867
     56  CB       -45.4100   27.2950   -9.8770 C.3   263  ARG263      0.0307
     57  CG       -44.8790   28.6600   -9.4600 C.3   263  ARG263      0.0489
     58  CD       -45.9390   29.5400   -8.7750 C.3   263  ARG263      0.2205
     59  NE       -46.5580   30.5200   -9.6880 N.pl3 263  ARG263     -0.0865
     60  CZ       -47.1910   31.6330   -9.3080 C.cat 263  ARG263      0.5346
     61  NH1      -47.3110   31.9460   -8.0230 N.pl3 263  ARG263      0.1354
     62  NH2      -47.7050   32.4500  -10.2200 N.pl3 263  ARG263      0.1354
     63  N        -49.5220   23.7160   -8.9660 N.3   296  TYR296     -0.1227
     64  CA       -48.9650   24.9010   -8.2870 C.3   296  TYR296      0.1736
     65  C        -49.1770   26.2750   -8.9440 C.2   296  TYR296      0.2596
     66  O        -48.7100   27.2800   -8.4250 O.2   296  TYR296     -0.2718
     67  CB       -47.4930   24.6420   -7.9910 C.3   296  TYR296      0.0548
     68  CG       -47.3540   23.3720   -7.2150 C.ar  296  TYR296     -0.0200
     69  CD1      -47.6700   23.3300   -5.8530 C.ar  296  TYR296     -0.0009
     70  CD2      -46.9850   22.2040   -7.8430 C.ar  296  TYR296     -0.0009
     71  CE1      -47.5790   22.1590   -5.1370 C.ar  296  TYR296      0.0417
     72  CE2      -46.8860   21.0290   -7.1380 C.ar  296  TYR296      0.0417
     73  CZ       -47.1860   21.0120   -5.7880 C.ar  296  TYR296      0.1957
     74  OH       -47.0980   19.8340   -5.0930 O.3   296  TYR296     -0.2866
     75  N        -49.8850   26.3080  -10.0700 N.am  297  THR297     -0.1939
     76  CA       -50.5020   27.5280  -10.6120 C.3   297  THR297      0.2028
     77  C        -52.0040   27.4380  -10.3350 C.2   297  THR297      0.2642
     78  O        -52.7970   27.0770  -11.2190 O.2   297  THR297     -0.2714
     79  CB       -50.2730   27.6340  -12.1310 C.3   297  THR297      0.1808
     80  OG1      -48.8700   27.5760  -12.4010 O.3   297  THR297     -0.2208
     81  CG2      -50.8300   28.9290  -12.6900 C.3   297  THR297      0.0379
     82  N        -52.3830   27.7680   -9.1000 N.am  298  ILE298     -0.1963
     83  CA       -53.6940   27.3550   -8.5370 C.3   298  ILE298      0.1727
     84  C        -54.9290   27.7700   -9.3710 C.2   298  ILE298      0.2616
     85  O        -55.9420   27.0720   -9.4050 O.2   298  ILE298     -0.2715
     86  CB       -53.8540   27.7650   -7.0340 C.3   298  ILE298      0.0290
     87  CG1      -53.6920   29.2800   -6.8360 C.3   298  ILE298      0.0022
     88  CG2      -52.8550   27.0110   -6.1620 C.3   298  ILE298      0.0023
     89  CD1      -54.1230   29.7690   -5.4640 C.3   298  ILE298      0.0001
     90  N        -54.8210   28.8850  -10.0740 N.am  299  ARG299     -0.1977
     91  CA       -55.8780   29.3150  -10.9760 C.3   299  ARG299      0.1597
     92  C        -56.2440   28.1810  -11.9330 C.2   299  ARG299      0.2287
     93  O        -57.4240   27.8990  -12.1550 O.2   299  ARG299     -0.2864
     94  CB       -55.4270   30.5680  -11.7280 C.3   299  ARG299      0.0334
     95  CG       -55.1850   31.7140  -10.7600 C.3   299  ARG299      0.0492
     96  CD       -54.3380   32.8330  -11.3150 C.3   299  ARG299      0.2205
     97  NE       -52.9250   32.4860  -11.3780 N.pl3 299  ARG299     -0.0865
     98  CZ       -52.1910   32.5270  -12.4880 C.cat 299  ARG299      0.5346
     99  NH1      -52.7320   32.9000  -13.6450 N.pl3 299  ARG299      0.1354
    100  NH2      -50.8990   32.2000  -12.4420 N.pl3 299  ARG299      0.1354
    101  N        -59.5730   36.2030   -9.3630 N.3   329  TYR329     -0.1241
    102  CA       -58.3190   35.4740   -9.5200 C.3   329  TYR329      0.1605
    103  C        -58.0150   35.1240  -10.9590 C.2   329  TYR329      0.2264
    104  O        -56.8590   35.0100  -11.3080 O.2   329  TYR329     -0.2867
    105  CB       -58.3340   34.1520   -8.7600 C.3   329  TYR329      0.0534
    106  CG       -58.0510   34.2120   -7.2780 C.ar  329  TYR329     -0.0201
    107  CD1      -58.3020   35.3530   -6.5440 C.ar  329  TYR329     -0.0009
    108  CD2      -57.5730   33.0940   -6.6010 C.ar  329  TYR329     -0.0009
    109  CE1      -58.0560   35.3920   -5.1820 C.ar  329  TYR329      0.0417
    110  CE2      -57.3330   33.1280   -5.2410 C.ar  329  TYR329      0.0417
    111  CZ       -57.5860   34.2910   -4.5420 C.ar  329  TYR329      0.1957
    112  OH       -57.3760   34.4020   -3.1980 O.3   329  TYR329     -0.2866
@<TRIPOS>BOND
     1    99    98    1
     2    81    79    1
     3    98   100    1
     4    98    97    2
     5    80    79    1
     6    93    92    2
     7    79    76    1
     8    92    91    1
     9    52    53    1
    10    94    91    1
    11    94    95    1
    12    55    54    2
    13    97    96    1
    14    96    95    1
    15   104   103    2
    16    53    54    1
    17    53    56    1
    18    78    77    2
    19    91    90    1
    20   103   102    1
    21    76    77    1
    22    76    75    1
    23    77    82   am
    24    62    60    1
    25    90    84   am
    26    75    65   am
    27    56    57    1
    28    59    60    2
    29    59    58    1
    30   102   101    1
    31   102   105    1
    32    57    58    1
    33    85    84    2
    34    84    83    1
    35    60    61    1
    36    82    83    1
    37    63    64    1
    38    65    66    2
    39    65    64    1
    40   105   106    1
    41    83    86    1
    42    64    67    1
    43    67    68    1
    44    70    68   ar
    45    70    72   ar
    46   106   108   ar
    47   106   107   ar
    48    68    69   ar
    49    72    73   ar
    50    86    87    1
    51    86    88    1
    52    87    89    1
    53   108   110   ar
    54   107   109   ar
    55    69    71   ar
    56    73    71   ar
    57    73    74    1
    58   110   111   ar
    59   109   111   ar
    60    51    50    1
    61   111   112    1
    62    40    41    1
    63    40    37    1
    64    39    38    2
    65    50    49    1
    66    41    42    1
    67    37    38    1
    68    37    36    1
    69    49    48    1
    70    46    45    2
    71    42    36    1
    72    36    28   am
    73    47    48    1
    74    47    44    1
    75    43    44    1
    76    44    45    1
    77    25    24    2
    78    28    29    2
    79    28    27    1
    80    24    23    1
    81    24    26   am
    82    27    26    1
    83    27    30    1
    84    23    22    1
    85    33    35   ar
    86    33    31   ar
    87    35    34   ar
    88    31    30    1
    89    31    32   ar
    90    34    32   ar
    91    22    15   am
    92    15    16    2
    93    15    14    1
    94    12    11    1
    95     9    11   ar
    96     9     7   ar
    97    18    19    1
    98    18    17    1
    99    14    17    1
   100    14    13    1
   101    11    10   ar
   102     7     6   ar
   103    20    19    2
   104    19    21   am
   105    10     8   ar
   106     6     8   ar
   107     6     5    1
   108     2     3    1
   109     2     5    1
   110     2     1    1
   111     3     4    2
