@<TRIPOS>MOLECULE
tmp/5icpA00.pdb
 151 142 0 0 0
SMALL
GASTEIGER

@<TRIPOS>ATOM
      1  N          9.8180   14.5660    2.8100 N.3    27  VAL27      -0.1231
      2  CA         8.5990   13.7930    2.5400 C.3    27  VAL27       0.1692
      3  C          7.3240   14.4420    3.0780 C.2    27  VAL27       0.2592
      4  O          6.2290   14.0810    2.6400 O.2    27  VAL27      -0.2718
      5  CB         8.6950   12.3450    3.0670 C.3    27  VAL27       0.0266
      6  CG1        9.7830   11.5930    2.3160 C.3    27  VAL27       0.0020
      7  CG2        8.9340   12.3090    4.5740 C.3    27  VAL27       0.0020
      8  N          7.4510   15.3890    4.0090 N.am   28  GLY28      -0.1957
      9  CA         6.2840   16.1240    4.5140 C.3    28  GLY28       0.1869
     10  C          6.6050   17.5160    5.0390 C.2    28  GLY28       0.2309
     11  O          7.7040   17.7750    5.5240 O.2    28  GLY28      -0.2863
     12  N          3.4050   20.6620   12.1100 N.3    32  TYR32      -0.1241
     13  CA         4.4940   19.9600   12.8060 C.3    32  TYR32       0.1605
     14  C          5.9070   20.4490   12.4440 C.2    32  TYR32       0.2264
     15  O          6.8190   20.3930   13.2780 O.2    32  TYR32      -0.2867
     16  CB         4.4030   18.4420   12.5510 C.3    32  TYR32       0.0534
     17  CG         4.3890   18.0330   11.0820 C.ar   32  TYR32      -0.0201
     18  CD1        5.5770   17.8820   10.3620 C.ar   32  TYR32      -0.0009
     19  CD2        3.1840   17.7750   10.4170 C.ar   32  TYR32      -0.0009
     20  CE1        5.5670   17.5080    9.0230 C.ar   32  TYR32       0.0417
     21  CE2        3.1650   17.3970    9.0800 C.ar   32  TYR32       0.0417
     22  CZ         4.3620   17.2630    8.3870 C.ar   32  TYR32       0.1957
     23  OH         4.3540   16.8890    7.0620 O.3    32  TYR32      -0.2866
     24  N          9.4700   17.1750    7.6650 N.3    35  VAL35      -0.1245
     25  CA         9.9400   15.7810    7.8290 C.3    35  VAL35       0.1561
     26  C         10.7210   15.2840    6.6050 C.2    35  VAL35       0.2260
     27  O         10.2330   15.3540    5.4710 O.2    35  VAL35      -0.2867
     28  CB         8.7830   14.8180    8.1650 C.3    35  VAL35       0.0252
     29  CG1        9.2740   13.3770    8.2110 C.3    35  VAL35       0.0019
     30  CG2        8.1730   15.1920    9.5120 C.3    35  VAL35       0.0019
     31  N         13.6480    8.9530    9.7490 N.3    50  ALA50      -0.1245
     32  CA        12.8630   10.1690    9.5950 C.3    50  ALA50       0.1562
     33  C         13.4980   11.2390   10.4750 C.2    50  ALA50       0.2260
     34  O         13.7670   10.9870   11.6520 O.2    50  ALA50      -0.2867
     35  CB        11.4110    9.9400    9.9980 C.3    50  ALA50       0.0290
     36  N         12.7580   15.1420   11.7200 N.3    52  LYS52      -0.1245
     37  CA        11.7830   16.2310   11.8070 C.3    52  LYS52       0.1561
     38  C         12.4260   17.4910   12.3600 C.2    52  LYS52       0.2260
     39  O         12.8380   17.4980   13.5190 O.2    52  LYS52      -0.2867
     40  CB        10.5930   15.8540   12.6990 C.3    52  LYS52       0.0271
     41  CG         9.6360   17.0240   12.9180 C.3    52  LYS52       0.0035
     42  CD         8.2530   16.5910   13.3500 C.3    52  LYS52       0.0206
     43  CE         8.2550   15.9820   14.7370 C.3    52  LYS52       0.1093
     44  NZ         6.9150   16.1250   15.3600 N.3    52  LYS52      -0.1314
     45  N          5.5590    5.6140   18.1120 N.3    79  ILE79      -0.1245
     46  CA         6.8260    5.9760   17.4580 C.3    79  ILE79       0.1561
     47  C          7.8920    6.3020   18.5190 C.2    79  ILE79       0.2260
     48  O          7.6040    7.0270   19.4790 O.2    79  ILE79      -0.2867
     49  CB         6.6260    7.1420   16.4580 C.3    79  ILE79       0.0252
     50  CG1        7.8390    7.2900   15.5310 C.3    79  ILE79       0.0019
     51  CG2        6.2960    8.4400   17.1800 C.3    79  ILE79       0.0019
     52  CD1        7.8700    6.2840   14.4050 C.3    79  ILE79       0.0001
     53  N         13.7040    9.7270   14.1430 N.3    97  PHE97      -0.1227
     54  CA        12.8870    8.5150   14.2860 C.3    97  PHE97       0.1736
     55  C         13.3050    7.4710   13.2570 C.2    97  PHE97       0.2595
     56  O         13.9810    7.7900   12.2740 O.2    97  PHE97      -0.2718
     57  CB        11.4020    8.8230   14.0720 C.3    97  PHE97       0.0547
     58  CG        10.8990    9.9920   14.8530 C.ar   97  PHE97      -0.0202
     59  CD1       10.4050    9.8240   16.1410 C.ar   97  PHE97      -0.0042
     60  CD2       10.9080   11.2680   14.3020 C.ar   97  PHE97      -0.0042
     61  CE1        9.9260   10.9060   16.8610 C.ar   97  PHE97      -0.0003
     62  CE2       10.4350   12.3540   15.0200 C.ar   97  PHE97      -0.0003
     63  CZ         9.9470   12.1730   16.3040 C.ar   97  PHE97      -0.0000
     64  N         12.9030    6.2230   13.4920 N.am   98  ASP98      -0.1960
     65  CA        12.9370    5.1950   12.4530 C.3    98  ASP98       0.1840
     66  C         11.8900    5.5710   11.4000 C.2    98  ASP98       0.2622
     67  O         10.8100    6.0140   11.7460 O.2    98  ASP98      -0.2715
     68  CB        12.6350    3.8040   13.0270 C.3    98  ASP98       0.1450
     69  CG        13.8060    3.2080   13.8120 C.2    98  ASP98       0.3671
     70  OD1       14.8980    3.8100   13.8760 O.co2  98  ASP98      -0.2456
     71  OD2       13.6300    2.1090   14.3660 O.co2  98  ASP98      -0.2456
     72  N         12.2300    5.4090   10.1250 N.am   99  TYR99      -0.1960
     73  CA        11.3820    5.8590    9.0150 C.3    99  TYR99       0.1771
     74  C         10.1980    4.9240    8.7690 C.2    99  TYR99       0.2619
     75  O         10.3890    3.7290    8.5770 O.2    99  TYR99      -0.2715
     76  CB        12.2250    5.9570    7.7420 C.3    99  TYR99       0.0574
     77  CG        11.4760    6.4020    6.5060 C.ar   99  TYR99      -0.0198
     78  CD1       11.1000    7.7400    6.3260 C.ar   99  TYR99      -0.0009
     79  CD2       11.1650    5.4940    5.5010 C.ar   99  TYR99      -0.0009
     80  CE1       10.4230    8.1530    5.1810 C.ar   99  TYR99       0.0417
     81  CE2       10.4970    5.8990    4.3530 C.ar   99  TYR99       0.0417
     82  CZ        10.1220    7.2250    4.2000 C.ar   99  TYR99       0.1957
     83  OH         9.4710    7.6080    3.0590 O.3    99  TYR99      -0.2866
     84  N          8.9900    5.4850    8.7520 N.am  100  ALA100     -0.1977
     85  CA         7.7660    4.7620    8.3890 C.3   100  ALA100      0.1597
     86  C          7.3460    5.1340    6.9620 C.2   100  ALA100      0.2287
     87  O          6.9050    6.2630    6.7100 O.2   100  ALA100     -0.2864
     88  CB         6.6470    5.0930    9.3590 C.3   100  ALA100      0.0319
     89  N          1.3360    5.1270    5.9700 N.3   103  ASP103     -0.1239
     90  CA         0.4060    5.5680    7.0010 C.3   103  ASP103      0.1674
     91  C         -1.0160    5.3060    6.5280 C.2   103  ASP103      0.2266
     92  O         -1.2330    5.0300    5.3440 O.2   103  ASP103     -0.2867
     93  CB         0.6100    7.0550    7.3080 C.3   103  ASP103      0.1410
     94  CG         0.5280    7.9280    6.0600 C.2   103  ASP103      0.3668
     95  OD1       -0.5620    8.0110    5.4560 O.co2 103  ASP103     -0.2456
     96  OD2        1.5620    8.5110    5.6690 O.co2 103  ASP103     -0.2456
     97  N         -2.7400    7.3700    3.4220 N.3   106  HIS106     -0.1241
     98  CA        -2.3510    6.9090    2.0830 C.3   106  HIS106      0.1621
     99  C         -2.8340    5.5200    1.7710 C.2   106  HIS106      0.2264
    100  O         -3.1940    5.2430    0.6300 O.2   106  HIS106     -0.2867
    101  CB        -0.8440    6.9960    1.8780 C.3   106  HIS106      0.0745
    102  CG        -0.3320    8.4090    1.7750 C.ar  106  HIS106      0.0817
    103  ND1        0.0770    9.1150    2.8500 N.ar  106  HIS106     -0.2268
    104  CD2       -0.2000    9.2530    0.6770 C.ar  106  HIS106      0.1154
    105  CE1        0.4690   10.3380    2.4540 C.ar  106  HIS106      0.1986
    106  NE2        0.2970   10.4230    1.1250 N.ar  106  HIS106     -0.2212
    107  N         -3.7840   10.2480    9.1000 N.3   148  ALA148     -0.1231
    108  CA        -2.4780   10.8290    8.7740 C.3   148  ALA148      0.1694
    109  C         -1.3760   10.6180    9.8330 C.2   148  ALA148      0.2592
    110  O         -0.1970   10.6090    9.4830 O.2   148  ALA148     -0.2718
    111  CB        -2.6310   12.3180    8.4580 C.3   148  ALA148      0.0304
    112  N         -1.7840   10.4500   11.0950 N.am  149  ASN149     -0.1974
    113  CA        -0.8700   10.2750   12.2300 C.3   149  ASN149      0.1688
    114  C         -0.6140    8.8240   12.6510 C.2   149  ASN149      0.2292
    115  O          0.1910    8.5840   13.5550 O.2   149  ASN149     -0.2864
    116  CB        -1.4140   11.0490   13.4290 C.3   149  ASN149      0.1181
    117  CG        -1.4810   12.5360   13.1700 C.2   149  ASN149      0.2629
    118  OD1       -0.8720   13.0370   12.2240 O.2   149  ASN149     -0.2716
    119  ND2       -2.2100   13.2560   14.0160 N.am  149  ASN149     -0.0877
    120  N          1.0560    5.8260   11.5250 N.3   151  LEU151     -0.1245
    121  CA         2.0590    5.3530   10.5890 C.3   151  LEU151      0.1561
    122  C          2.0620    3.8240   10.5810 C.2   151  LEU151      0.2260
    123  O          1.6470    3.1860   11.5550 O.2   151  LEU151     -0.2867
    124  CB         3.4490    5.8810   10.9640 C.3   151  LEU151      0.0270
    125  CG         3.5990    7.3560   11.3450 C.3   151  LEU151      0.0019
    126  CD1        5.0760    7.7040   11.5100 C.3   151  LEU151      0.0001
    127  CD2        2.9360    8.2720   10.3320 C.3   151  LEU151      0.0001
    128  N          1.9240    8.4000   15.8960 N.3   165  ALA165     -0.1231
    129  CA         2.7960    9.5710   15.8490 C.3   165  ALA165      0.1694
    130  C          2.0050   10.8530   16.1170 C.2   165  ALA165      0.2592
    131  O          0.7890   10.8090   16.3340 O.2   165  ALA165     -0.2718
    132  CB         3.4860    9.6490   14.4870 C.3   165  ALA165      0.0304
    133  N          2.7210   11.9790   16.1130 N.am  166  ASP166     -0.1974
    134  CA         2.1510   13.3310   16.1250 C.3   166  ASP166      0.1709
    135  C          1.1070   13.5130   17.2280 C.2   166  ASP166      0.2293
    136  O         -0.0330   13.9040   16.9710 O.2   166  ASP166     -0.2864
    137  CB         1.5690   13.6460   14.7410 C.3   166  ASP166      0.1436
    138  CG         1.3540   15.1320   14.5020 C.2   166  ASP166      0.3671
    139  OD1        2.2560   15.9420   14.8170 O.co2 166  ASP166     -0.2456
    140  OD2        0.2810   15.4850   13.9680 O.co2 166  ASP166     -0.2456
    141  N          6.7970    6.8740   -0.3690 N.3   337  ARG337     -0.1245
    142  CA         6.6060    8.3230   -0.2760 C.3   337  ARG337      0.1563
    143  C          7.4020    9.0070   -1.3850 C.2   337  ARG337      0.2260
    144  O          8.5070    8.5740   -1.7050 O.2   337  ARG337     -0.2867
    145  CB         7.0670    8.8700    1.0800 C.3   337  ARG337      0.0307
    146  CG         6.4030    8.2270    2.2830 C.3   337  ARG337      0.0489
    147  CD         6.6470    9.0010    3.5720 C.3   337  ARG337      0.2205
    148  NE         5.9770    8.3240    4.6760 N.pl3 337  ARG337     -0.0865
    149  CZ         4.6690    8.3850    4.9430 C.cat 337  ARG337      0.5346
    150  NH1        3.8380    9.1320    4.2140 N.pl3 337  ARG337      0.1354
    151  NH2        4.1800    7.6860    5.9650 N.pl3 337  ARG337      0.1354
@<TRIPOS>BOND
     1   144   143    2
     2   143   142    1
     3   141   142    1
     4   142   145    1
     5   100    99    2
     6   104   106   ar
     7   104   102   ar
     8   145   146    1
     9   106   105   ar
    10    99    98    1
    11   102   101    1
    12   102   103   ar
    13   101    98    1
    14    98    97    1
    15   146   147    1
    16     6     5    1
    17   105   103   ar
    18     2     1    1
    19     2     5    1
    20     2     3    1
    21     4     3    2
    22    83    82    1
    23     5     7    1
    24     3     8   am
    25   147   148    1
    26     8     9    1
    27    82    81   ar
    28    82    80   ar
    29   150   149    1
    30    81    79   ar
    31     9    10    1
    32   148   149    2
    33   149   151    1
    34    10    11    2
    35    80    78   ar
    36    92    91    2
    37    95    94   ar
    38    27    26    2
    39    79    77   ar
    40    96    94   ar
    41    89    90    1
    42    94    93    1
    43    78    77   ar
    44    77    76    1
    45    91    90    1
    46    26    25    1
    47    87    86    2
    48    86    85    1
    49    90    93    1
    50    23    22    1
    51    24    25    1
    52    76    73    1
    53    25    28    1
    54    28    29    1
    55    28    30    1
    56    22    20   ar
    57    22    21   ar
    58    85    84    1
    59    85    88    1
    60   111   108    1
    61    75    74    2
    62    84    74   am
    63    74    73    1
    64   108   107    1
    65   108   109    1
    66    73    72    1
    67    20    18   ar
    68    21    19   ar
    69   110   109    2
    70    32    31    1
    71    32    35    1
    72    32    33    1
    73   109   112   am
    74    72    66   am
    75   127   125    1
    76    18    17   ar
    77    19    17   ar
    78    33    34    2
    79   122   121    1
    80   122   123    2
    81   121   124    1
    82   121   120    1
    83   124   125    1
    84    17    16    1
    85   112   113    1
    86   125   126    1
    87    66    67    2
    88    66    65    1
    89    36    37    1
    90    37    38    1
    91    37    40    1
    92    12    13    1
    93   118   117    2
    94   113   114    1
    95   113   116    1
    96    56    55    2
    97    38    39    2
    98    14    13    1
    99    14    15    2
   100    65    68    1
   101    65    64    1
   102    16    13    1
   103   114   115    2
   104    40    41    1
   105    41    42    1
   106    68    69    1
   107   117   116    1
   108   117   119   am
   109    55    64   am
   110    55    54    1
   111    42    43    1
   112    69    70   ar
   113    69    71   ar
   114   140   138   ar
   115    57    54    1
   116    57    58    1
   117    53    54    1
   118    60    58   ar
   119    60    62   ar
   120    52    50    1
   121   132   129    1
   122   138   137    1
   123   138   139   ar
   124    43    44    1
   125   137   134    1
   126    58    59   ar
   127    62    63   ar
   128    50    49    1
   129   129   128    1
   130   129   130    1
   131   133   130   am
   132   133   134    1
   133   130   131    2
   134   134   135    1
   135    59    61   ar
   136    63    61   ar
   137    49    51    1
   138    49    46    1
   139   136   135    2
   140    46    45    1
   141    46    47    1
   142    47    48    2
