@<TRIPOS>MOLECULE
tmp/5ictA00.pdb
 129 124 0 0 0
SMALL
GASTEIGER

@<TRIPOS>ATOM
      1  N         17.5740   -3.1240   -0.4850 N.3    16  GLU16      -0.1245
      2  CA        17.4570   -1.9720   -1.3830 C.3    16  GLU16       0.1567
      3  C         17.3310   -0.7650   -0.4590 C.2    16  GLU16       0.2260
      4  O         16.2680   -0.5560    0.1260 O.2    16  GLU16      -0.2867
      5  CB        16.2340   -2.1160   -2.2780 C.3    16  GLU16       0.0388
      6  CG        16.0340   -1.0120   -3.2850 C.3    16  GLU16       0.1160
      7  CD        16.7130   -1.3450   -4.5720 C.2    16  GLU16       0.3649
      8  OE1       16.2090   -2.2320   -5.3260 O.co2  16  GLU16      -0.2457
      9  OE2       17.8030   -0.7840   -4.7880 O.co2  16  GLU16      -0.2457
     10  N         12.4500   -8.7380   -7.7780 N.3    66  TYR66      -0.1241
     11  CA        11.1370   -8.3010   -7.2890 C.3    66  TYR66       0.1605
     12  C         10.0320   -9.2480   -7.7380 C.2    66  TYR66       0.2264
     13  O          9.1370   -9.5910   -6.9490 O.2    66  TYR66      -0.2867
     14  CB        10.8430   -6.8680   -7.7540 C.3    66  TYR66       0.0534
     15  CG        11.6030   -5.8390   -6.9410 C.ar   66  TYR66      -0.0201
     16  CD1       12.8960   -5.4650   -7.2880 C.ar   66  TYR66      -0.0009
     17  CD2       11.0630   -5.3220   -5.7780 C.ar   66  TYR66      -0.0009
     18  CE1       13.6120   -4.5540   -6.5020 C.ar   66  TYR66       0.0417
     19  CE2       11.7670   -4.4040   -5.0020 C.ar   66  TYR66       0.0417
     20  CZ        13.0300   -4.0320   -5.3660 C.ar   66  TYR66       0.1957
     21  OH        13.6890   -3.1370   -4.5630 O.3    66  TYR66      -0.2866
     22  N          9.7320   -2.8700   -1.1850 N.3    95  ALA95      -0.1231
     23  CA         9.2990   -1.8140   -2.0930 C.3    95  ALA95       0.1694
     24  C          8.7350   -2.4510   -3.3620 C.2    95  ALA95       0.2592
     25  O          9.2670   -2.3100   -4.4660 O.2    95  ALA95      -0.2718
     26  CB        10.4620   -0.8770   -2.4000 C.3    95  ALA95       0.0304
     27  N          7.6580   -3.2210   -3.1710 N.am   96  MET96      -0.1965
     28  CA         7.0400   -3.9720   -4.2550 C.3    96  MET96       0.1736
     29  C          5.8960   -3.1650   -4.8400 C.2    96  MET96       0.2617
     30  O          4.8860   -2.8960   -4.1740 O.2    96  MET96      -0.2715
     31  CB         6.5190   -5.3500   -3.8270 C.3    96  MET96       0.0427
     32  CG         6.0580   -6.1260   -5.0440 C.3    96  MET96       0.0599
     33  SD         5.2530   -7.7040   -4.6760 S.3    96  MET96      -0.1393
     34  CE         6.6340   -8.6840   -4.2010 C.3    96  MET96       0.0692
     35  N          6.0630   -2.7920   -6.0980 N.am   97  THR97      -0.1951
     36  CA         5.0790   -1.9890   -6.7890 C.3    97  THR97       0.1897
     37  C          3.8300   -2.7940   -7.0840 C.2    97  THR97       0.2313
     38  O          3.9000   -3.9280   -7.5790 O.2    97  THR97      -0.2863
     39  CB         5.7150   -1.4590   -8.0660 C.3    97  THR97       0.1794
     40  OG1        6.9200   -0.7870   -7.6660 O.3    97  THR97      -0.2208
     41  CG2        4.7990   -0.5340   -8.7960 C.3    97  THR97       0.0378
     42  N          0.5720   -8.1650  -11.4490 N.3   102  ARG102     -0.1245
     43  CA         0.8520   -8.8680  -10.2030 C.3   102  ARG102      0.1563
     44  C         -0.4170   -9.1450   -9.4060 C.2   102  ARG102      0.2260
     45  O         -0.5300  -10.2010   -8.7740 O.2   102  ARG102     -0.2867
     46  CB         1.8520   -8.0650   -9.3680 C.3   102  ARG102      0.0307
     47  CG         3.2580   -8.1190   -9.9080 C.3   102  ARG102      0.0489
     48  CD         4.1400   -7.1280   -9.1760 C.3   102  ARG102      0.2205
     49  NE         5.5220   -7.2480   -9.6300 N.pl3 102  ARG102     -0.0865
     50  CZ         6.4850   -6.4090   -9.2730 C.cat 102  ARG102      0.5346
     51  NH1        6.2090   -5.3700   -8.4940 N.pl3 102  ARG102      0.1354
     52  NH2        7.7260   -6.6040   -9.7000 N.pl3 102  ARG102      0.1354
     53  N         16.7660    1.0950  -17.2350 N.3   143  THR143     -0.1203
     54  CA        16.0720    0.8950  -15.9740 C.3   143  THR143      0.1994
     55  C         16.4450   -0.4820  -15.4390 C.2   143  THR143      0.2617
     56  O         17.2880   -1.1820  -16.0040 O.2   143  THR143     -0.2717
     57  CB        14.5610    1.0750  -16.1700 C.3   143  THR143      0.1784
     58  OG1       13.9260    1.1730  -14.9010 O.3   143  THR143     -0.2211
     59  CG2       13.9390   -0.0560  -16.9660 C.3   143  THR143      0.0376
     60  N         15.8150   -0.8610  -14.3250 N.am  144  LEU144     -0.1979
     61  CA        15.9330   -2.2240  -13.8030 C.3   144  LEU144      0.1596
     62  C         15.2770   -3.1860  -14.7740 C.2   144  LEU144      0.2287
     63  O         14.0950   -3.0460  -15.0850 O.2   144  LEU144     -0.2864
     64  CB        15.2450   -2.3360  -12.4500 C.3   144  LEU144      0.0297
     65  CG        15.3020   -3.7100  -11.8040 C.3   144  LEU144      0.0022
     66  CD1       16.7030   -4.0090  -11.3500 C.3   144  LEU144      0.0001
     67  CD2       14.3900   -3.7570  -10.6140 C.3   144  LEU144      0.0001
     68  N         11.4810   -5.3790  -14.1560 N.3   147  GLY147     -0.1210
     69  CA        10.6380   -4.9690  -13.0500 C.3   147  GLY147      0.1956
     70  C          9.4330   -4.1570  -13.4870 C.2   147  GLY147      0.2613
     71  O          9.0490   -4.1290  -14.6630 O.2   147  GLY147     -0.2717
     72  N          8.8190   -3.4770  -12.5090 N.am  148  SER148     -0.1938
     73  CA         7.5820   -2.7520  -12.8140 C.3   148  SER148      0.2055
     74  C          7.8230   -1.5590  -13.7360 C.2   148  SER148      0.2644
     75  O          6.9500   -1.2280  -14.5470 O.2   148  SER148     -0.2714
     76  CB         6.8680   -2.3240  -11.5290 C.3   148  SER148      0.2130
     77  OG         7.6110   -1.4170  -10.7300 O.3   148  SER148     -0.2179
     78  N          8.9700   -0.8830  -13.6350 N.am  149  THR149     -0.1936
     79  CA         9.2420    0.2120  -14.5550 C.3   149  THR149      0.2028
     80  C          9.4000   -0.3090  -15.9780 C.2   149  THR149      0.2642
     81  O          8.8150    0.2410  -16.9090 O.2   149  THR149     -0.2714
     82  CB        10.4730    0.9830  -14.1120 C.3   149  THR149      0.1808
     83  OG1       10.2500    1.4670  -12.7820 O.3   149  THR149     -0.2208
     84  CG2       10.7780    2.1580  -15.0900 C.3   149  THR149      0.0379
     85  N         10.1550   -1.3910  -16.1500 N.am  150  TRP150     -0.1973
     86  CA        10.2910   -2.0500  -17.4480 C.3   150  TRP150      0.1640
     87  C          8.9240   -2.3760  -18.0370 C.2   150  TRP150      0.2290
     88  O          8.6380   -2.0760  -19.2050 O.2   150  TRP150     -0.2864
     89  CB        11.1120   -3.3180  -17.2520 C.3   150  TRP150      0.0576
     90  CG        11.4630   -4.0610  -18.5180 C.ar  150  TRP150      0.0006
     91  CD1       10.8130   -5.1340  -19.0600 C.ar  150  TRP150      0.0946
     92  CD2       12.5760   -3.8060  -19.3550 C.ar  150  TRP150      0.0152
     93  NE1       11.4550   -5.5660  -20.1730 N.ar  150  TRP150     -0.2442
     94  CE2       12.5370   -4.7590  -20.4010 C.ar  150  TRP150      0.0810
     95  CE3       13.5880   -2.8530  -19.3460 C.ar  150  TRP150      0.0012
     96  CZ2       13.4850   -4.7880  -21.4230 C.ar  150  TRP150      0.0191
     97  CZ3       14.5310   -2.8810  -20.3510 C.ar  150  TRP150      0.0001
     98  CH2       14.4650   -3.8420  -21.3890 C.ar  150  TRP150      0.0015
     99  N         19.1330   -1.8520   -9.1660 N.3   179  THR179     -0.1218
    100  CA        19.0160   -0.4050   -9.2900 C.3   179  THR179      0.1862
    101  C         20.2930    0.2730   -8.8380 C.2   179  THR179      0.2287
    102  O         20.7190    1.2650   -9.4410 O.2   179  THR179     -0.2866
    103  CB        17.7970    0.0740   -8.5040 C.3   179  THR179      0.1770
    104  OG1       16.6290   -0.4010   -9.1730 O.3   179  THR179     -0.2211
    105  CG2       17.7210    1.5800   -8.4190 C.3   179  THR179      0.0375
    106  N         16.0120    5.4640  -15.3420 N.3   196  LEU196     -0.1231
    107  CA        14.6020    5.5300  -15.0220 C.3   196  LEU196      0.1693
    108  C         14.4160    4.7390  -13.7220 C.2   196  LEU196      0.2592
    109  O         14.6870    3.5280  -13.6700 O.2   196  LEU196     -0.2718
    110  CB        13.7690    4.9630  -16.1670 C.3   196  LEU196      0.0284
    111  CG        13.8460    5.7520  -17.4800 C.3   196  LEU196      0.0019
    112  CD1       13.3130    4.9330  -18.6200 C.3   196  LEU196      0.0001
    113  CD2       13.0340    7.0240  -17.3130 C.3   196  LEU196      0.0001
    114  N         14.0040    5.4360  -12.6640 N.am  197  VAL197     -0.1966
    115  CA        14.0870    4.9060  -11.3100 C.3   197  VAL197      0.1727
    116  C         12.8880    5.4410  -10.5460 C.2   197  VAL197      0.2616
    117  O         12.4430    6.5650  -10.7780 O.2   197  VAL197     -0.2715
    118  CB        15.4280    5.2990  -10.6460 C.3   197  VAL197      0.0290
    119  CG1       15.6530    6.7880  -10.7620 C.3   197  VAL197      0.0023
    120  CG2       15.4990    4.8530   -9.2140 C.3   197  VAL197      0.0023
    121  N         12.3530    4.6240   -9.6360 N.am  198  GLU198     -0.1977
    122  CA        11.1870    5.0510   -8.8730 C.3   198  GLU198      0.1602
    123  C         11.5570    6.2020   -7.9300 C.2   198  GLU198      0.2287
    124  O         12.6630    6.2520   -7.3740 O.2   198  GLU198     -0.2864
    125  CB        10.5820    3.8610   -8.1120 C.3   198  GLU198      0.0415
    126  CG         9.8560    2.9030   -9.0610 C.3   198  GLU198      0.1163
    127  CD         9.3930    1.6180   -8.4310 C.2   198  GLU198      0.3649
    128  OE1        9.9730    1.2090   -7.4060 O.co2 198  GLU198     -0.2457
    129  OE2        8.4380    1.0030   -8.9840 O.co2 198  GLU198     -0.2457
@<TRIPOS>BOND
     1    96    98   ar
     2    96    94   ar
     3    98    97   ar
     4    94    93   ar
     5    94    92   ar
     6    97    95   ar
     7    93    91   ar
     8    92    95   ar
     9    92    90   ar
    10    88    87    2
    11    91    90   ar
    12   112   111    1
    13    90    89    1
    14    87    86    1
    15   111   113    1
    16   111   110    1
    17    86    89    1
    18    86    85    1
    19    53    54    1
    20    59    57    1
    21    81    80    2
    22    57    54    1
    23    57    58    1
    24   110   107    1
    25    85    80   am
    26    56    55    2
    27    80    79    1
    28    54    55    1
    29    55    60   am
    30   106   107    1
    31    84    82    1
    32    63    62    2
    33   107   108    1
    34    62    61    1
    35    71    70    2
    36    79    82    1
    37    79    78    1
    38    75    74    2
    39    60    61    1
    40    68    69    1
    41    82    83    1
    42    61    64    1
    43    74    78   am
    44    74    73    1
    45   108   109    2
    46   108   114   am
    47    70    69    1
    48    70    72   am
    49    73    72    1
    50    73    76    1
    51   114   115    1
    52    64    65    1
    53    65    66    1
    54    65    67    1
    55    76    77    1
    56    42    43    1
    57   115   118    1
    58   115   116    1
    59   117   116    2
    60   119   118    1
    61   118   120    1
    62   116   121   am
    63    43    44    1
    64    43    46    1
    65    47    46    1
    66    47    48    1
    67    52    50    1
    68   121   122    1
    69    49    50    2
    70    49    48    1
    71   102   101    2
    72    44    45    2
    73   100    99    1
    74   100   101    1
    75   100   103    1
    76    50    51    1
    77   104   103    1
    78   126   127    1
    79   126   125    1
    80   129   127   ar
    81   122   125    1
    82   122   123    1
    83    41    39    1
    84   103   105    1
    85   127   128   ar
    86    39    40    1
    87    39    36    1
    88   123   124    2
    89    10    11    1
    90    14    11    1
    91    14    15    1
    92    12    11    1
    93    12    13    2
    94    38    37    2
    95    16    15   ar
    96    16    18   ar
    97    37    36    1
    98    15    17   ar
    99    36    35    1
   100    18    20   ar
   101    35    29   am
   102    17    19   ar
   103    20    19   ar
   104    20    21    1
   105     8     7   ar
   106    32    33    1
   107    32    31    1
   108    29    28    1
   109    29    30    2
   110     9     7   ar
   111    33    34    1
   112     7     6    1
   113    25    24    2
   114    28    31    1
   115    28    27    1
   116    24    27   am
   117    24    23    1
   118     6     5    1
   119    26    23    1
   120     5     2    1
   121    23    22    1
   122     2     1    1
   123     2     3    1
   124     3     4    2
