@<TRIPOS>MOLECULE
tmp/5icxA00.pdb
 52 49 0 0 0
SMALL
GASTEIGER

@<TRIPOS>ATOM
      1  N         15.0090   25.8900   24.3520 N.3     9  VAL9       -0.1245
      2  CA        15.8130   26.8460   25.1000 C.3     9  VAL9        0.1561
      3  C         16.8900   26.1450   25.9260 C.2     9  VAL9        0.2260
      4  O         18.0680   26.4880   25.8410 O.2     9  VAL9       -0.2867
      5  CB        14.9310   27.7050   26.0190 C.3     9  VAL9        0.0252
      6  CG1       15.7850   28.6250   26.8490 C.3     9  VAL9        0.0019
      7  CG2       13.9390   28.5010   25.1920 C.3     9  VAL9        0.0019
      8  N         26.6580   27.6310   25.8820 N.3    85  ASP85      -0.1239
      9  CA        25.5030   28.0470   25.1050 C.3    85  ASP85       0.1674
     10  C         25.8820   28.0080   23.6300 C.2    85  ASP85       0.2266
     11  O         27.0480   28.1810   23.2750 O.2    85  ASP85      -0.2867
     12  CB        25.0600   29.4520   25.5040 C.3    85  ASP85       0.1410
     13  CG        24.6980   29.5540   26.9730 C.2    85  ASP85       0.3668
     14  OD1       24.2300   28.5450   27.5440 O.co2  85  ASP85      -0.2456
     15  OD2       24.8790   30.6430   27.5590 O.co2  85  ASP85      -0.2456
     16  N         24.8960   29.3580   19.6720 N.3    87  TYR87      -0.1241
     17  CA        24.1700   30.3420   18.8790 C.3    87  TYR87       0.1605
     18  C         24.3330   30.0990   17.3870 C.2    87  TYR87       0.2264
     19  O         25.4010   29.6930   16.9250 O.2    87  TYR87      -0.2867
     20  CB        24.6580   31.7550   19.2090 C.3    87  TYR87       0.0534
     21  CG        24.4370   32.1730   20.6440 C.ar   87  TYR87      -0.0201
     22  CD1       25.4180   31.9700   21.6050 C.ar   87  TYR87      -0.0009
     23  CD2       23.2510   32.7770   21.0350 C.ar   87  TYR87      -0.0009
     24  CE1       25.2210   32.3530   22.9170 C.ar   87  TYR87       0.0417
     25  CE2       23.0440   33.1630   22.3450 C.ar   87  TYR87       0.0417
     26  CZ        24.0320   32.9490   23.2820 C.ar   87  TYR87       0.1957
     27  OH        23.8290   33.3340   24.5880 O.3    87  TYR87      -0.2866
     28  N         18.6430   33.2600   19.6150 N.3   100  ALA100     -0.1231
     29  CA        18.6730   33.5540   21.0460 C.3   100  ALA100      0.1694
     30  C         19.5290   32.5650   21.8390 C.2   100  ALA100      0.2593
     31  O         19.8830   32.8240   22.9920 O.2   100  ALA100     -0.2718
     32  CB        17.2600   33.6140   21.6080 C.3   100  ALA100      0.0304
     33  N         19.8510   31.4300   21.2250 N.am  101  GLY101     -0.1942
     34  CA        20.7520   30.4670   21.8360 C.3   101  GLY101      0.2014
     35  C         20.0950   29.2990   22.5460 C.2   101  GLY101      0.2640
     36  O         18.9440   29.3790   22.9720 O.2   101  GLY101     -0.2714
     37  N         20.8430   28.2060   22.6690 N.am  102  THR102     -0.1936
     38  CA        20.3950   27.0240   23.3980 C.3   102  THR102      0.2028
     39  C         21.4240   26.6510   24.4660 C.2   102  THR102      0.2642
     40  O         22.6140   26.5320   24.1760 O.2   102  THR102     -0.2714
     41  CB        20.1850   25.8210   22.4470 C.3   102  THR102      0.1808
     42  OG1       19.1570   26.1280   21.4980 O.3   102  THR102     -0.2208
     43  CG2       19.7840   24.5820   23.2210 C.3   102  THR102      0.0379
     44  N         20.9600   26.4710   25.6990 N.am  103  LYS103     -0.1977
     45  CA        21.8310   26.1270   26.8170 C.3   103  LYS103      0.1596
     46  C         21.9940   24.6140   26.9230 C.2   103  LYS103      0.2287
     47  O         21.0100   23.8780   26.9890 O.2   103  LYS103     -0.2864
     48  CB        21.2470   26.6840   28.1160 C.3   103  LYS103      0.0298
     49  CG        22.1130   26.5030   29.3530 C.3   103  LYS103      0.0038
     50  CD        21.3660   26.9870   30.5950 C.3   103  LYS103      0.0206
     51  CE        22.1730   26.8030   31.8730 C.3   103  LYS103      0.1093
     52  NZ        23.0390   27.9790   32.1740 N.3   103  LYS103     -0.1314
@<TRIPOS>BOND
     1    19    18    2
     2    18    17    1
     3    17    20    1
     4    17    16    1
     5    20    21    1
     6    28    29    1
     7    21    23   ar
     8    21    22   ar
     9    23    25   ar
    10    29    32    1
    11    29    30    1
    12    33    34    1
    13    33    30   am
    14    42    41    1
    15    22    24   ar
    16    34    35    1
    17    30    31    2
    18    25    26   ar
    19    41    43    1
    20    41    38    1
    21    35    37   am
    22    35    36    2
    23    37    38    1
    24    24    26   ar
    25    11    10    2
    26    26    27    1
    27    38    39    1
    28    10     9    1
    29    40    39    2
    30     1     2    1
    31    39    44   am
    32     2     3    1
    33     2     5    1
    34     9    12    1
    35     9     8    1
    36     7     5    1
    37    12    13    1
    38    44    45    1
    39     4     3    2
    40     5     6    1
    41    45    46    1
    42    45    48    1
    43    46    47    2
    44    13    14   ar
    45    13    15   ar
    46    48    49    1
    47    49    50    1
    48    50    51    1
    49    51    52    1
