@<TRIPOS>MOLECULE
tmp/5icxD00.pdb
 123 119 0 0 0
SMALL
GASTEIGER

@<TRIPOS>ATOM
      1  N          5.3140   -2.5750   19.8120 N.3    39  GLN39      -0.1231
      2  CA         6.0740   -1.5180   20.4660 C.3    39  GLN39       0.1698
      3  C          6.7670   -2.0560   21.7160 C.2    39  GLN39       0.2593
      4  O          6.1080   -2.4430   22.6790 O.2    39  GLN39      -0.2718
      5  CB         5.1450   -0.3600   20.8250 C.3    39  GLN39       0.0381
      6  CG         5.8560    0.9320   21.1640 C.3    39  GLN39       0.0905
      7  CD         4.9060    2.1070   21.2480 C.2    39  GLN39       0.2608
      8  OE1        3.7040    1.9370   21.4640 O.2    39  GLN39      -0.2717
      9  NE2        5.4380    3.3090   21.0730 N.am   39  GLN39      -0.0878
     10  N          8.0970   -2.0750   21.6950 N.am   40  SER40      -0.1939
     11  CA         8.8780   -2.6730   22.7760 C.3    40  SER40       0.2040
     12  C          9.8630   -1.6630   23.3680 C.2    40  SER40       0.2485
     13  O         10.1770   -0.6560   22.7280 O.2    40  SER40      -0.2729
     14  CB         9.6300   -3.8990   22.2540 C.3    40  SER40       0.2129
     15  OG        10.6880   -3.5260   21.3940 O.3    40  SER40      -0.2179
     16  N         10.3480   -1.9210   24.5980 N.am   41  PRO41      -0.2715
     17  CA        11.3500   -1.0410   25.2110 C.3    41  PRO41       0.1536
     18  C         12.6190   -0.9350   24.3760 C.2    41  PRO41       0.2599
     19  O         13.2050    0.1410   24.2770 O.2    41  PRO41      -0.2715
     20  CB        11.6640   -1.7460   26.5330 C.3    41  PRO41       0.0310
     21  CG        10.4280   -2.5010   26.8590 C.3    41  PRO41       0.0237
     22  CD         9.8950   -2.9680   25.5340 C.3    41  PRO41       0.0939
     23  N         13.0320   -2.0450   23.7740 N.am   42  GLY42      -0.1955
     24  CA        14.2880   -2.0960   23.0510 C.3    42  GLY42       0.1869
     25  C         14.2810   -1.5030   21.6550 C.2    42  GLY42       0.2309
     26  O         15.2340   -0.8310   21.2650 O.2    42  GLY42      -0.2863
     27  N         11.3160    0.0630   20.1180 N.3    44  GLY44      -0.1225
     28  CA        10.2470    1.0220   19.8930 C.3    44  GLY44       0.1811
     29  C          9.1560    0.5370   18.9550 C.2    44  GLY44       0.2280
     30  O          8.7970   -0.6410   18.9590 O.2    44  GLY44      -0.2866
     31  N          8.5650   -9.3230   24.3270 N.3    90  THR90      -0.1203
     32  CA         7.6280   -8.6950   25.2430 C.3    90  THR90       0.1994
     33  C          7.3630   -7.2750   24.7660 C.2    90  THR90       0.2618
     34  O          8.2600   -6.4310   24.7680 O.2    90  THR90      -0.2717
     35  CB         8.1740   -8.6700   26.6840 C.3    90  THR90       0.1784
     36  OG1        8.3520  -10.0120   27.1530 O.3    90  THR90      -0.2211
     37  CG2        7.2100   -7.9510   27.6090 C.3    90  THR90       0.0376
     38  N          6.1270   -7.0210   24.3480 N.am   91  ALA91      -0.1965
     39  CA         5.7710   -5.7320   23.7720 C.3    91  ALA91       0.1728
     40  C          4.2650   -5.5070   23.7790 C.2    91  ALA91       0.2616
     41  O          3.4920   -6.4040   24.1200 O.2    91  ALA91      -0.2715
     42  CB         6.3040   -5.6360   22.3520 C.3    91  ALA91       0.0334
     43  N          3.8630   -4.2920   23.4150 N.am   92  ILE92      -0.1977
     44  CA         2.4710   -4.0020   23.1170 C.3    92  ILE92       0.1596
     45  C          2.2600   -4.2710   21.6360 C.2    92  ILE92       0.2287
     46  O          2.9660   -3.7150   20.7950 O.2    92  ILE92      -0.2864
     47  CB         2.1170   -2.5310   23.3820 C.3    92  ILE92       0.0276
     48  CG1        2.4760   -2.1300   24.8150 C.3    92  ILE92       0.0022
     49  CG2        0.6420   -2.2960   23.1120 C.3    92  ILE92       0.0022
     50  CD1        1.5080   -2.6360   25.8630 C.3    92  ILE92       0.0001
     51  N         -0.2640   -4.0880   18.3680 N.3    94  TYR94      -0.1241
     52  CA        -1.4420   -3.4020   17.8450 C.3    94  TYR94       0.1605
     53  C         -1.8870   -3.9910   16.5140 C.2    94  TYR94       0.2264
     54  O         -1.0810   -4.5480   15.7660 O.2    94  TYR94      -0.2867
     55  CB        -1.1500   -1.9170   17.6060 C.3    94  TYR94       0.0534
     56  CG        -0.6330   -1.1390   18.7890 C.ar   94  TYR94      -0.0201
     57  CD1       -1.5060   -0.5060   19.6630 C.ar   94  TYR94      -0.0009
     58  CD2        0.7320   -1.0040   19.0110 C.ar   94  TYR94      -0.0009
     59  CE1       -1.0330    0.2230   20.7400 C.ar   94  TYR94       0.0417
     60  CE2        1.2130   -0.2790   20.0820 C.ar   94  TYR94       0.0417
     61  CZ         0.3250    0.3330   20.9420 C.ar   94  TYR94       0.1957
     62  OH         0.8010    1.0540   22.0100 O.3    94  TYR94      -0.2866
     63  N         -6.7500   -1.0670   20.6680 N.3   111  GLN111     -0.1231
     64  CA        -6.3430   -0.5720   21.9810 C.3   111  GLN111      0.1698
     65  C         -4.9880   -1.1390   22.3920 C.2   111  GLN111      0.2592
     66  O         -4.3660   -0.6590   23.3370 O.2   111  GLN111     -0.2718
     67  CB        -7.3950   -0.8860   23.0500 C.3   111  GLN111      0.0381
     68  CG        -7.3190   -2.2920   23.6200 C.3   111  GLN111      0.0905
     69  CD        -8.1360   -3.2970   22.8310 C.2   111  GLN111      0.2608
     70  OE1       -8.6140   -3.0120   21.7320 O.2   111  GLN111     -0.2717
     71  NE2       -8.3070   -4.4830   23.3980 N.am  111  GLN111     -0.0878
     72  N         -4.5330   -2.1590   21.6740 N.am  112  GLY112     -0.1957
     73  CA        -3.2470   -2.7660   21.9530 C.3   112  GLY112      0.1869
     74  C         -3.3580   -3.9270   22.9200 C.2   112  GLY112      0.2309
     75  O         -4.2710   -3.9820   23.7440 O.2   112  GLY112     -0.2863
     76  N         -0.9180   -6.0460   25.5970 N.3   114  LEU114     -0.1245
     77  CA         0.3560   -6.2060   26.2910 C.3   114  LEU114      0.1561
     78  C          0.7010   -7.6840   26.4280 C.2   114  LEU114      0.2260
     79  O          0.0340   -8.4310   27.1460 O.2   114  LEU114     -0.2867
     80  CB         0.3270   -5.5210   27.6600 C.3   114  LEU114      0.0270
     81  CG         1.5390   -5.6970   28.5830 C.3   114  LEU114      0.0019
     82  CD1        2.8510   -5.5220   27.8330 C.3   114  LEU114      0.0001
     83  CD2        1.4550   -4.7060   29.7250 C.3   114  LEU114      0.0001
     84  N          1.8040   -7.7860   33.9680 N.3   146  GLU146     -0.1231
     85  CA         1.0950   -6.5650   33.6180 C.3   146  GLU146      0.1684
     86  C          0.1310   -6.8820   32.4700 C.2   146  GLU146      0.2434
     87  O          0.3220   -7.8680   31.7570 O.2   146  GLU146     -0.2733
     88  CB         2.1020   -5.4860   33.2080 C.3   146  GLU146      0.0402
     89  CG         2.7020   -4.7010   34.3670 C.3   146  GLU146      0.1161
     90  CD         1.7800   -3.6020   34.8670 C.2   146  GLU146      0.3649
     91  OE1        2.0880   -2.4190   34.6110 O.co2 146  GLU146     -0.2457
     92  OE2        0.7560   -3.9110   35.5180 O.co2 146  GLU146     -0.2457
     93  N         -0.9150   -6.0600   32.2850 N.am  147  PRO147     -0.2729
     94  CA        -1.2810   -4.8890   33.0810 C.3   147  PRO147      0.1401
     95  C         -2.4500   -5.1810   34.0080 C.2   147  PRO147      0.2269
     96  O         -3.0690   -6.2440   33.9400 O.2   147  PRO147     -0.2865
     97  CB        -1.7530   -3.9140   32.0110 C.3   147  PRO147      0.0296
     98  CG        -2.4810   -4.8160   31.0480 C.3   147  PRO147      0.0237
     99  CD        -1.7330   -6.1420   31.0610 C.3   147  PRO147      0.0939
    100  N          2.1670    3.9610   37.9520 N.3   165  PRO165     -0.2102
    101  CA         2.7740    2.8780   37.1740 C.3   165  PRO165      0.1504
    102  C          3.1930    1.7500   38.1040 C.2   165  PRO165      0.2575
    103  O          3.7070    2.0200   39.1890 O.2   165  PRO165     -0.2718
    104  CB         4.0110    3.5390   36.5620 C.3   165  PRO165      0.0282
    105  CG         3.6830    4.9890   36.5210 C.3   165  PRO165      0.0208
    106  CD         2.8440    5.2510   37.7310 C.3   165  PRO165      0.0893
    107  N          2.9590    0.5090   37.6930 N.am  166  ALA166     -0.1980
    108  CA         3.3230   -0.6460   38.5020 C.3   166  ALA166      0.1597
    109  C          4.8260   -0.6760   38.7630 C.2   166  ALA166      0.2287
    110  O          5.6150   -0.2230   37.9370 O.2   166  ALA166     -0.2864
    111  CB         2.8850   -1.9250   37.8110 C.3   166  ALA166      0.0319
    112  N          4.3700   -7.7460   40.4640 N.3   174  TYR174     -0.1241
    113  CA         4.0910   -6.3200   40.3470 C.3   174  TYR174      0.1605
    114  C          3.2220   -5.8070   41.4900 C.2   174  TYR174      0.2264
    115  O          2.4020   -6.5370   42.0510 O.2   174  TYR174     -0.2867
    116  CB         3.4390   -5.9970   39.0000 C.3   174  TYR174      0.0534
    117  CG         4.3990   -6.0460   37.8330 C.ar  174  TYR174     -0.0201
    118  CD1        4.4530   -7.1540   36.9960 C.ar  174  TYR174     -0.0009
    119  CD2        5.2580   -4.9870   37.5730 C.ar  174  TYR174     -0.0009
    120  CE1        5.3340   -7.2040   35.9300 C.ar  174  TYR174      0.0417
    121  CE2        6.1410   -5.0280   36.5100 C.ar  174  TYR174      0.0417
    122  CZ         6.1750   -6.1390   35.6930 C.ar  174  TYR174      0.1957
    123  OH         7.0500   -6.1870   34.6330 O.3   174  TYR174     -0.2866
@<TRIPOS>BOND
     1    54    53    2
     2    53    52    1
     3    55    52    1
     4    55    56    1
     5    52    51    1
     6    56    58   ar
     7    56    57   ar
     8    29    30    2
     9    29    28    1
    10    58    60   ar
    11    57    59   ar
    12     1     2    1
    13    28    27    1
    14    60    61   ar
    15     2     5    1
    16     2     3    1
    17    63    64    1
    18    59    61   ar
    19    46    45    2
    20     5     6    1
    21    61    62    1
    22     9     7   am
    23     6     7    1
    24     7     8    2
    25    26    25    2
    26    15    14    1
    27    45    44    1
    28    25    24    1
    29    72    73    1
    30    72    65   am
    31    10     3   am
    32    10    11    1
    33     3     4    2
    34    70    69    2
    35    73    74    1
    36    64    65    1
    37    64    67    1
    38    14    11    1
    39    42    39    1
    40    65    66    2
    41    13    12    2
    42    11    12    1
    43    69    71   am
    44    69    68    1
    45    74    75    2
    46    67    68    1
    47    24    23    1
    48    49    47    1
    49    44    47    1
    50    44    43    1
    51    12    16   am
    52    47    48    1
    53    43    40   am
    54    39    40    1
    55    39    38    1
    56    23    18   am
    57    40    41    2
    58    19    18    2
    59    31    32    1
    60    38    33   am
    61    18    17    1
    62    16    17    1
    63    16    22    1
    64    33    34    2
    65    33    32    1
    66    48    50    1
    67    17    20    1
    68    32    35    1
    69    22    21    1
    70    76    77    1
    71    77    78    1
    72    77    80    1
    73    78    79    2
    74    20    21    1
    75    35    36    1
    76    35    37    1
    77    80    81    1
    78    82    81    1
    79    81    83    1
    80    98    99    1
    81    98    97    1
    82    99    93    1
    83    87    86    2
    84    97    94    1
    85    93    86   am
    86    93    94    1
    87    86    85    1
    88    94    95    1
    89    88    85    1
    90    88    89    1
    91    85    84    1
    92    96    95    2
    93    89    90    1
    94    91    90   ar
    95   123   122    1
    96    90    92   ar
    97   122   120   ar
    98   122   121   ar
    99   120   118   ar
   100   121   119   ar
   101   105   104    1
   102   105   106    1
   103   104   101    1
   104   118   117   ar
   105   101   100    1
   106   101   102    1
   107   119   117   ar
   108   107   102   am
   109   107   108    1
   110   106   100    1
   111   111   108    1
   112   117   116    1
   113   110   109    2
   114   102   103    2
   115   108   109    1
   116   116   113    1
   117   113   112    1
   118   113   114    1
   119   114   115    2
