@<TRIPOS>MOLECULE
tmp/5id7A05.pdb
 123 115 0 0 0
SMALL
GASTEIGER

@<TRIPOS>ATOM
      1  N         11.8470   27.1980   89.0040 N.3   216  ARG216     -0.1231
      2  CA        10.9880   26.9550   87.8660 C.3   216  ARG216      0.1694
      3  C          9.8600   26.0730   88.2760 C.2   216  ARG216      0.2591
      4  O          8.7400   26.3020   87.9210 O.2   216  ARG216     -0.2718
      5  CB        11.7750   26.3210   86.7220 C.3   216  ARG216      0.0321
      6  CG        10.9730   26.0620   85.4590 C.3   216  ARG216      0.0489
      7  CD        10.6560   27.3620   84.6760 C.3   216  ARG216      0.2205
      8  NE        10.4310   27.0030   83.2550 N.pl3 216  ARG216     -0.0865
      9  CZ        10.8690   27.7210   82.2070 C.cat 216  ARG216      0.5346
     10  NH1       10.6360   27.2950   80.9610 N.pl3 216  ARG216      0.1354
     11  NH2       11.4990   28.8870   82.4020 N.pl3 216  ARG216      0.1354
     12  N         10.1370   25.0760   89.0680 N.am  217  LEU217     -0.1980
     13  CA         9.0880   24.1630   89.4160 C.3   217  LEU217      0.1596
     14  C          8.0650   24.7480   90.2840 C.2   217  LEU217      0.2287
     15  O          6.8840   24.3620   90.2190 O.2   217  LEU217     -0.2864
     16  CB         9.6770   22.9680   90.1310 C.3   217  LEU217      0.0297
     17  CG        10.2750   21.9860   89.1230 C.3   217  LEU217      0.0022
     18  CD1       11.1480   21.0400   89.8770 C.3   217  LEU217      0.0001
     19  CD2        9.1890   21.1540   88.4670 C.3   217  LEU217      0.0001
     20  N          5.4930   26.7900   88.5850 N.3   220  ARG220     -0.1231
     21  CA         4.5660   25.9020   87.8750 C.3   220  ARG220      0.1694
     22  C          3.6760   25.1530   88.8440 C.2   220  ARG220      0.2592
     23  O          2.4840   24.9800   88.6040 O.2   220  ARG220     -0.2718
     24  CB         5.3320   24.8360   87.0810 C.3   220  ARG220      0.0321
     25  CG         5.9740   25.2480   85.7700 C.3   220  ARG220      0.0489
     26  CD         5.0510   25.0750   84.5650 C.3   220  ARG220      0.2205
     27  NE         5.7330   25.5610   83.3460 N.pl3 220  ARG220     -0.0865
     28  CZ         6.4430   24.7900   82.5150 C.cat 220  ARG220      0.5346
     29  NH1        6.5310   23.5080   82.7220 N.pl3 220  ARG220      0.1354
     30  NH2        7.0570   25.3210   81.5010 N.pl3 220  ARG220      0.1354
     31  N          4.2680   24.7230   89.9450 N.am  221  PHE221     -0.1976
     32  CA         3.5960   23.8990   90.9320 C.3   221  PHE221      0.1639
     33  C          3.5000   24.6070   92.2570 C.2   221  PHE221      0.2290
     34  O          3.9870   24.1020   93.2590 O.2   221  PHE221     -0.2864
     35  CB         4.3590   22.5570   91.0960 C.3   221  PHE221      0.0560
     36  CG         4.5410   21.7900   89.8020 C.ar  221  PHE221     -0.0200
     37  CD1        3.5210   21.7250   88.8490 C.ar  221  PHE221     -0.0042
     38  CD2        5.7190   21.1910   89.5080 C.ar  221  PHE221     -0.0042
     39  CE1        3.6890   21.0550   87.6680 C.ar  221  PHE221     -0.0003
     40  CE2        5.8940   20.5330   88.2930 C.ar  221  PHE221     -0.0003
     41  CZ         4.8900   20.4660   87.3860 C.ar  221  PHE221     -0.0000
     42  N         14.6570   15.4950   88.4070 N.3   236  LEU236     -0.1245
     43  CA        14.9080   16.3660   87.2650 C.3   236  LEU236      0.1561
     44  C         16.4120   16.6590   87.1350 C.2   236  LEU236      0.2260
     45  O         16.9430   16.6530   86.0330 O.2   236  LEU236     -0.2867
     46  CB        14.1470   17.6710   87.4500 C.3   236  LEU236      0.0270
     47  CG        13.9280   18.5420   86.2390 C.3   236  LEU236      0.0019
     48  CD1       12.9830   17.8690   85.2410 C.3   236  LEU236      0.0001
     49  CD2       13.3650   19.8940   86.6570 C.3   236  LEU236      0.0001
     50  N         17.7610   13.6280   85.8100 N.3   239  VAL239     -0.1231
     51  CA        17.2270   13.4050   84.4810 C.3   239  VAL239      0.1692
     52  C         18.0490   14.2000   83.4800 C.2   239  VAL239      0.2592
     53  O         18.5530   13.6200   82.4950 O.2   239  VAL239     -0.2718
     54  CB        15.7200   13.6680   84.3760 C.3   239  VAL239      0.0266
     55  CG1       15.2670   13.7600   82.9250 C.3   239  VAL239      0.0020
     56  CG2       15.0080   12.5170   85.0080 C.3   239  VAL239      0.0020
     57  N         18.2000   15.4960   83.7510 N.am  240  HIS240     -0.1976
     58  CA        19.0640   16.3700   82.9060 C.3   240  HIS240      0.1656
     59  C         20.5160   15.8120   82.7990 C.2   240  HIS240      0.2291
     60  O         21.0420   15.7550   81.7110 O.2   240  HIS240     -0.2864
     61  CB        19.0090   17.8790   83.3330 C.3   240  HIS240      0.0771
     62  CG        17.7880   18.6130   82.8240 C.ar  240  HIS240      0.0820
     63  ND1       17.8560   19.5360   81.8020 N.ar  240  HIS240     -0.2267
     64  CD2       16.4700   18.5410   83.1720 C.ar  240  HIS240      0.1154
     65  CE1       16.6440   20.0100   81.5550 C.ar  240  HIS240      0.1986
     66  NE2       15.7830   19.4250   82.3680 N.ar  240  HIS240     -0.2212
     67  N         20.3270   13.0540   80.1570 N.3   243  CYS243     -0.1235
     68  CA        19.9920   13.4820   78.7820 C.3   243  CYS243      0.1677
     69  C         21.1420   14.2610   78.1470 C.2   243  CYS243      0.2270
     70  O         21.3670   14.1620   76.9700 O.2   243  CYS243     -0.2867
     71  CB        18.6780   14.2410   78.7320 C.3   243  CYS243      0.0956
     72  SG        17.3110   13.2120   79.3240 S.3   243  CYS243     -0.0801
     73  N         13.1530   10.0570   81.6280 N.3   255  ARG255     -0.1245
     74  CA        11.9980   10.9410   81.4370 C.3   255  ARG255      0.1563
     75  C         10.5920   10.2930   81.6550 C.2   255  ARG255      0.2260
     76  O          9.7250   10.8600   82.3300 O.2   255  ARG255     -0.2867
     77  CB        12.0950   11.6570   80.1080 C.3   255  ARG255      0.0307
     78  CG        13.2240   12.7000   80.0440 C.3   255  ARG255      0.0489
     79  CD        13.4070   13.2430   78.6250 C.3   255  ARG255      0.2205
     80  NE        12.1360   13.8410   78.1380 N.pl3 255  ARG255     -0.0865
     81  CZ        12.0020   15.1070   77.7080 C.cat 255  ARG255      0.5346
     82  NH1       10.8130   15.5610   77.3560 N.pl3 255  ARG255      0.1354
     83  NH2       13.0670   15.8910   77.5840 N.pl3 255  ARG255      0.1354
     84  N         10.2420   10.0450   85.4470 N.3   258  LEU258     -0.1231
     85  CA         9.8220   11.2320   86.1400 C.3   258  LEU258      0.1693
     86  C          8.3240   11.5180   85.8300 C.2   258  LEU258      0.2591
     87  O          7.5660   11.8130   86.7110 O.2   258  LEU258     -0.2718
     88  CB        10.7460   12.4310   85.8120 C.3   258  LEU258      0.0284
     89  CG        10.5500   13.6670   86.7100 C.3   258  LEU258      0.0019
     90  CD1       10.5820   13.3420   88.2020 C.3   258  LEU258      0.0001
     91  CD2       11.6060   14.6930   86.4020 C.3   258  LEU258      0.0001
     92  N          7.9220   11.3770   84.5760 N.am  259  ALA259     -0.1980
     93  CA         6.5320   11.6010   84.1280 C.3   259  ALA259      0.1597
     94  C          5.5310   10.7210   84.8690 C.2   259  ALA259      0.2287
     95  O          4.4930   11.1790   85.3660 O.2   259  ALA259     -0.2864
     96  CB         6.4210   11.3390   82.6180 C.3   259  ALA259      0.0319
     97  N          5.2430   11.7980   88.2890 N.3   262  ILE262     -0.1245
     98  CA         4.4440   13.0140   88.3660 C.3   262  ILE262      0.1561
     99  C          2.9760   12.6870   88.2420 C.2   262  ILE262      0.2260
    100  O          2.1630   13.2870   88.9190 O.2   262  ILE262     -0.2867
    101  CB         4.8630   14.1140   87.3280 C.3   262  ILE262      0.0252
    102  CG1        6.0980   14.8560   87.8610 C.3   262  ILE262      0.0019
    103  CG2        3.7180   15.1110   87.0730 C.3   262  ILE262      0.0019
    104  CD1        6.7960   15.7140   86.8440 C.3   262  ILE262      0.0001
    105  N          5.9520   13.1210   78.9670 N.3   285  SER285     -0.1217
    106  CA         7.0350   13.9680   79.5110 C.3   285  SER285      0.1889
    107  C          7.0760   15.3620   78.9050 C.2   285  SER285      0.2288
    108  O          7.3580   16.3240   79.5810 O.2   285  SER285     -0.2866
    109  CB         8.4280   13.3320   79.3370 C.3   285  SER285      0.2089
    110  OG         9.0940   13.8500   78.1850 O.3   285  SER285     -0.2183
    111  N          3.9330   17.6160   80.0170 N.3   288  ILE288     -0.1231
    112  CA         4.1890   18.0080   81.3770 C.3   288  ILE288      0.1692
    113  C          5.1330   19.1650   81.4100 C.2   288  ILE288      0.2591
    114  O          4.8360   20.2230   81.9890 O.2   288  ILE288     -0.2718
    115  CB         4.8110   16.8580   82.1670 C.3   288  ILE288      0.0266
    116  CG1        3.7710   15.7740   82.4170 C.3   288  ILE288      0.0019
    117  CG2        5.2240   17.3400   83.5550 C.3   288  ILE288      0.0020
    118  CD1        4.3820   14.5220   83.0400 C.3   288  ILE288      0.0001
    119  N          6.2450   18.9970   80.7090 N.am  289  ALA289     -0.1980
    120  CA         7.2600   20.0070   80.6690 C.3   289  ALA289      0.1597
    121  C          6.6830   21.3430   80.1870 C.2   289  ALA289      0.2287
    122  O          7.2670   22.4060   80.5290 O.2   289  ALA289     -0.2864
    123  CB         8.4190   19.5730   79.7560 C.3   289  ALA289      0.0319
@<TRIPOS>BOND
     1    70    69    2
     2    82    81    1
     3    83    81    1
     4    81    80    2
     5    80    79    1
     6    69    68    1
     7   110   109    1
     8    79    78    1
     9    71    68    1
    10    71    72    1
    11    68    67    1
    12   107   106    1
    13   107   108    2
    14   105   106    1
    15   109   106    1
    16   123   120    1
    17   111   112    1
    18    78    77    1
    19    77    74    1
    20   121   122    2
    21   121   120    1
    22   120   119    1
    23   119   113   am
    24    10     9    1
    25   112   113    1
    26   112   115    1
    27   113   114    2
    28    74    73    1
    29    74    75    1
    30    30    28    1
    31    65    63   ar
    32    65    66   ar
    33    75    76    2
    34    60    59    2
    35    63    62   ar
    36   115   116    1
    37   115   117    1
    38     9    11    1
    39     9     8    2
    40    66    64   ar
    41   116   118    1
    42    53    52    2
    43    28    29    1
    44    28    27    2
    45    96    93    1
    46    59    58    1
    47    62    64   ar
    48    62    61    1
    49    58    61    1
    50    58    57    1
    51    55    54    1
    52     8     7    1
    53    27    26    1
    54    52    57   am
    55    52    51    1
    56    93    92    1
    57    93    94    1
    58    54    51    1
    59    54    56    1
    60    51    50    1
    61    26    25    1
    62    92    86   am
    63     7     6    1
    64    94    95    2
    65    48    47    1
    66    84    85    1
    67     6     5    1
    68    25    24    1
    69    88    85    1
    70    88    89    1
    71    86    85    1
    72    86    87    2
    73    45    44    2
    74    47    49    1
    75    47    46    1
    76    91    89    1
    77    89    90    1
    78     5     2    1
    79   104   102    1
    80   103   101    1
    81    24    21    1
    82    44    43    1
    83    43    46    1
    84    43    42    1
    85   101   102    1
    86   101    98    1
    87    41    39   ar
    88    41    40   ar
    89    39    37   ar
    90     2     3    1
    91     2     1    1
    92    21    20    1
    93    21    22    1
    94     4     3    2
    95    99    98    1
    96    99   100    2
    97     3    12   am
    98    97    98    1
    99    40    38   ar
   100    19    17    1
   101    23    22    2
   102    22    31   am
   103    37    36   ar
   104    12    13    1
   105    17    18    1
   106    17    16    1
   107    13    16    1
   108    13    14    1
   109    38    36   ar
   110    36    35    1
   111    31    32    1
   112    15    14    2
   113    32    35    1
   114    32    33    1
   115    33    34    2
