@<TRIPOS>MOLECULE
tmp/5id7A03.pdb
 113 104 0 0 0
SMALL
GASTEIGER

@<TRIPOS>ATOM
      1  N          6.6300   30.5220   62.0520 N.3   182  GLU182     -0.1245
      2  CA         6.5730   30.2860   63.5160 C.3   182  GLU182      0.1567
      3  C          7.2530   28.9800   63.8060 C.2   182  GLU182      0.2260
      4  O          8.0010   28.8930   64.7540 O.2   182  GLU182     -0.2867
      5  CB         5.1640   30.4000   64.2060 C.3   182  GLU182      0.0388
      6  CG         3.9400   29.7140   63.5840 C.3   182  GLU182      0.1160
      7  CD         2.5880   30.0390   64.2870 C.2   182  GLU182      0.3649
      8  OE1        2.6180   30.5820   65.4450 O.co2 182  GLU182     -0.2457
      9  OE2        1.4920   29.7330   63.6780 O.co2 182  GLU182     -0.2457
     10  N         11.1600   29.2160   63.6590 N.3   185  ASP185     -0.1225
     11  CA        11.5880   29.8940   64.8610 C.3   185  ASP185      0.1805
     12  C         11.4510   29.0420   66.0680 C.2   185  ASP185      0.2597
     13  O         12.3670   29.0210   66.8910 O.2   185  ASP185     -0.2718
     14  CB        10.7870   31.1520   65.0660 C.3   185  ASP185      0.1424
     15  CG        11.0980   32.2020   64.0380 C.2   185  ASP185      0.3668
     16  OD1       12.2560   32.2220   63.5540 O.co2 185  ASP185     -0.2456
     17  OD2       10.2000   33.0510   63.7550 O.co2 185  ASP185     -0.2456
     18  N         10.3440   28.3160   66.2270 N.am  186  GLU186     -0.1979
     19  CA        10.1960   27.5290   67.4760 C.3   186  GLU186      0.1602
     20  C         11.1910   26.4120   67.5340 C.2   186  GLU186      0.2287
     21  O         11.6750   26.0880   68.6070 O.2   186  GLU186     -0.2864
     22  CB         8.8270   26.9530   67.6480 C.3   186  GLU186      0.0415
     23  CG         7.7930   28.0130   67.9770 C.3   186  GLU186      0.1163
     24  CD         6.3810   27.4500   67.9500 C.2   186  GLU186      0.3649
     25  OE1        5.8160   27.3300   66.8400 O.co2 186  GLU186     -0.2457
     26  OE2        5.8560   27.0880   69.0380 O.co2 186  GLU186     -0.2457
     27  N         14.2160   26.1900   66.0590 N.3   188  LYS188     -0.1231
     28  CA        15.4930   26.7260   66.4670 C.3   188  LYS188      0.1693
     29  C         15.5370   27.0700   67.9370 C.2   188  LYS188      0.2591
     30  O         16.4930   26.7360   68.6360 O.2   188  LYS188     -0.2718
     31  CB        15.8210   27.9600   65.6570 C.3   188  LYS188      0.0285
     32  CG        16.1130   27.6230   64.1950 C.3   188  LYS188      0.0035
     33  CD        15.8490   28.8170   63.3080 C.3   188  LYS188      0.0206
     34  CE        16.7890   29.9340   63.6780 C.3   188  LYS188      0.1093
     35  NZ        16.6210   30.9960   62.6530 N.3   188  LYS188     -0.1314
     36  N         14.5320   27.7630   68.4350 N.am  189  ALA189     -0.1980
     37  CA        14.5170   28.0470   69.8900 C.3   189  ALA189      0.1597
     38  C         14.7100   26.7480   70.6270 C.2   189  ALA189      0.2287
     39  O         15.4640   26.6490   71.5740 O.2   189  ALA189     -0.2864
     40  CB        13.2250   28.6930   70.3040 C.3   189  ALA189      0.0319
     41  N         18.2870   25.1870   70.2990 N.3   192  ALA192     -0.1245
     42  CA        19.0660   26.1320   71.1190 C.3   192  ALA192      0.1562
     43  C         18.7880   26.0160   72.6710 C.2   192  ALA192      0.2260
     44  O         19.6950   25.9410   73.5030 O.2   192  ALA192     -0.2867
     45  CB        18.8630   27.5500   70.6280 C.3   192  ALA192      0.0290
     46  N         16.0630   38.3920   65.3340 N.3   427  ASN427     -0.1240
     47  CA        15.5900   37.5000   66.3690 C.3   427  ASN427      0.1653
     48  C         15.1010   38.2700   67.5900 C.2   427  ASN427      0.2266
     49  O         14.0480   37.9540   68.1340 O.2   427  ASN427     -0.2867
     50  CB        16.6700   36.5450   66.7530 C.3   427  ASN427      0.1155
     51  CG        16.8790   35.4760   65.7310 C.2   427  ASN427      0.2627
     52  OD1       16.0020   35.1450   64.9990 O.2   427  ASN427     -0.2716
     53  ND2       18.0520   34.8910   65.7260 N.am  427  ASN427     -0.0877
     54  N         11.7380   39.3710   66.8990 N.3   430  LYS430     -0.1231
     55  CA        10.7790   38.2590   66.8990 C.3   430  LYS430      0.1693
     56  C         10.3640   37.9240   68.3300 C.2   430  LYS430      0.2591
     57  O          9.2020   37.5850   68.5940 O.2   430  LYS430     -0.2718
     58  CB        11.3930   37.0350   66.2960 C.3   430  LYS430      0.0285
     59  CG        11.5680   37.1100   64.8000 C.3   430  LYS430      0.0035
     60  CD        11.7760   35.6760   64.3700 C.3   430  LYS430      0.0206
     61  CE        12.6860   35.5380   63.1970 C.3   430  LYS430      0.1093
     62  NZ        11.9800   35.7950   61.9200 N.3   430  LYS430     -0.1314
     63  N         11.3120   38.0980   69.2220 N.am  431  VAL431     -0.1980
     64  CA        11.0680   37.9130   70.6140 C.3   431  VAL431      0.1595
     65  C         10.1290   38.9950   71.1310 C.2   431  VAL431      0.2287
     66  O          9.3080   38.7280   72.0390 O.2   431  VAL431     -0.2864
     67  CB        12.3830   38.0210   71.4120 C.3   431  VAL431      0.0276
     68  CG1       12.1780   38.0610   72.9300 C.3   431  VAL431      0.0022
     69  CG2       13.3060   36.8780   70.9860 C.3   431  VAL431      0.0022
     70  N          6.6680   38.2900   69.8560 N.3   434  LYS434     -0.1245
     71  CA         6.1340   37.2170   70.6470 C.3   434  LYS434      0.1561
     72  C          5.7310   37.6030   72.0720 C.2   434  LYS434      0.2260
     73  O          4.6170   37.3000   72.5260 O.2   434  LYS434     -0.2867
     74  CB         7.1580   36.1050   70.7250 C.3   434  LYS434      0.0271
     75  CG         6.6740   34.8400   71.4480 C.3   434  LYS434      0.0035
     76  CD         5.4470   34.1780   70.8530 C.3   434  LYS434      0.0206
     77  CE         5.0610   32.9510   71.6510 C.3   434  LYS434      0.1093
     78  NZ         6.0990   31.8810   71.5450 N.3   434  LYS434     -0.1314
     79  N         13.1320   33.1520   75.3870 N.3   450  TYR450     -0.1241
     80  CA        13.6420   33.2500   73.9940 C.3   450  TYR450      0.1605
     81  C         14.9340   33.9900   73.9980 C.2   450  TYR450      0.2264
     82  O         15.8280   33.7050   73.2040 O.2   450  TYR450     -0.2867
     83  CB        12.6200   33.9140   73.1270 C.3   450  TYR450      0.0534
     84  CG        11.4750   33.0300   73.0000 C.ar  450  TYR450     -0.0201
     85  CD1       11.5940   31.8240   72.2830 C.ar  450  TYR450     -0.0009
     86  CD2       10.2990   33.3070   73.6660 C.ar  450  TYR450     -0.0009
     87  CE1       10.5480   30.9540   72.1920 C.ar  450  TYR450      0.0417
     88  CE2        9.1920   32.4800   73.5410 C.ar  450  TYR450      0.0417
     89  CZ         9.3170   31.2770   72.8160 C.ar  450  TYR450      0.1957
     90  OH         8.2530   30.3880   72.7560 O.3   450  TYR450     -0.2866
     91  N         17.8720   31.9250   74.7290 N.3   453  VAL453     -0.1231
     92  CA        18.4950   31.1450   73.5940 C.3   453  VAL453      0.1692
     93  C         19.1490   32.0370   72.5190 C.2   453  VAL453      0.2591
     94  O         20.1560   31.6770   71.9080 O.2   453  VAL453     -0.2718
     95  CB        17.5160   30.1850   72.9110 C.3   453  VAL453      0.0266
     96  CG1       17.0580   29.1470   73.9300 C.3   453  VAL453      0.0020
     97  CG2       16.3440   30.9080   72.3390 C.3   453  VAL453      0.0020
     98  N         18.5940   33.2300   72.3480 N.am  454  VAL454     -0.1980
     99  CA        19.1380   34.1460   71.4040 C.3   454  VAL454      0.1595
    100  C         20.5090   34.5070   71.8840 C.2   454  VAL454      0.2287
    101  O         21.4600   34.4060   71.1560 O.2   454  VAL454     -0.2864
    102  CB        18.2680   35.3880   71.2840 C.3   454  VAL454      0.0276
    103  CG1       18.9800   36.4290   70.4440 C.3   454  VAL454      0.0022
    104  CG2       16.9510   35.0440   70.5720 C.3   454  VAL454      0.0022
    105  N         23.1010   31.4850   71.7420 N.3   457  GLN457     -0.1245
    106  CA        23.6610   31.2660   70.3940 C.3   457  GLN457      0.1566
    107  C         24.6030   32.3830   70.0120 C.2   457  GLN457      0.2260
    108  O         25.4750   32.1690   69.1600 O.2   457  GLN457     -0.2867
    109  CB        22.5890   31.1610   69.3000 C.3   457  GLN457      0.0367
    110  CG        21.7310   29.8960   69.3530 C.3   457  GLN457      0.0905
    111  CD        22.5250   28.6170   69.6520 C.2   457  GLN457      0.2608
    112  OE1       22.4180   28.0410   70.7400 O.2   457  GLN457     -0.2717
    113  NE2       23.3660   28.2350   68.7430 N.am  457  GLN457     -0.0878
@<TRIPOS>BOND
     1    62    61    1
     2     1     2    1
     3    35    34    1
     4    61    60    1
     5    33    34    1
     6    33    32    1
     7     2     3    1
     8     2     5    1
     9    16    15   ar
    10     6     5    1
    11     6     7    1
    12    10    11    1
    13     9     7   ar
    14    17    15   ar
    15     3     4    2
    16    15    14    1
    17    32    31    1
    18     7     8   ar
    19    60    59    1
    20    59    58    1
    21    11    14    1
    22    11    12    1
    23    52    51    2
    24    46    47    1
    25    31    28    1
    26    53    51   am
    27    51    50    1
    28    27    28    1
    29    12    18   am
    30    12    13    2
    31    18    19    1
    32    58    55    1
    33    47    50    1
    34    47    48    1
    35    28    29    1
    36    25    24   ar
    37    54    55    1
    38    55    56    1
    39    19    20    1
    40    19    22    1
    41    20    21    2
    42    48    49    2
    43    22    23    1
    44    29    36   am
    45    29    30    2
    46    24    23    1
    47    24    26   ar
    48    56    57    2
    49    56    63   am
    50    36    37    1
    51   113   111   am
    52   108   107    2
    53    63    64    1
    54   109   110    1
    55   109   106    1
    56   110   111    1
    57   111   112    2
    58    70    71    1
    59    37    40    1
    60    37    38    1
    61   107   106    1
    62    41    42    1
    63   106   105    1
    64   103   102    1
    65   104   102    1
    66    64    65    1
    67    64    67    1
    68    38    39    2
    69    45    42    1
    70    71    74    1
    71    71    72    1
    72    74    75    1
    73    76    75    1
    74    76    77    1
    75    69    67    1
    76    42    43    1
    77    65    66    2
    78   101   100    2
    79   102    99    1
    80    99   100    1
    81    99    98    1
    82    67    68    1
    83    78    77    1
    84    94    93    2
    85    72    73    2
    86    87    85   ar
    87    87    89   ar
    88    85    84   ar
    89    97    95    1
    90    98    93   am
    91    93    92    1
    92    43    44    2
    93    90    89    1
    94    89    88   ar
    95    95    92    1
    96    95    96    1
    97    84    83    1
    98    84    86   ar
    99    83    80    1
   100    82    81    2
   101    88    86   ar
   102    92    91    1
   103    80    81    1
   104    80    79    1
