@<TRIPOS>MOLECULE
tmp/5id7A01.pdb
 205 195 0 0 0
SMALL
GASTEIGER

@<TRIPOS>ATOM
      1  N          9.3610   45.1550   61.9950 N.3   399  TYR399     -0.1227
      2  CA        10.4160   45.5160   61.0710 C.3   399  TYR399      0.1736
      3  C         11.1260   46.8140   61.4990 C.2   399  TYR399      0.2595
      4  O         12.3260   46.8270   61.5400 O.2   399  TYR399     -0.2718
      5  CB         9.8840   45.6470   59.6420 C.3   399  TYR399      0.0548
      6  CG        10.9210   46.1350   58.6360 C.ar  399  TYR399     -0.0200
      7  CD1       12.1590   45.4640   58.5150 C.ar  399  TYR399     -0.0009
      8  CD2       10.7130   47.3040   57.8630 C.ar  399  TYR399     -0.0009
      9  CE1       13.1170   45.8800   57.6050 C.ar  399  TYR399      0.0417
     10  CE2       11.6880   47.7510   56.9770 C.ar  399  TYR399      0.0417
     11  CZ        12.8780   47.0200   56.8370 C.ar  399  TYR399      0.1957
     12  OH        13.8500   47.4150   55.9250 O.3   399  TYR399     -0.2866
     13  N         10.4240   47.8860   61.8410 N.am  400  LYS400     -0.1980
     14  CA        11.1700   49.0690   62.2020 C.3   400  LYS400      0.1596
     15  C         11.8120   48.9550   63.6220 C.2   400  LYS400      0.2287
     16  O         12.7680   49.6750   63.9360 O.2   400  LYS400     -0.2864
     17  CB        10.3350   50.3370   62.0360 C.3   400  LYS400      0.0298
     18  CG        10.3720   50.9470   60.6080 C.3   400  LYS400      0.0038
     19  CD         8.9830   51.4430   60.2190 C.3   400  LYS400      0.0206
     20  CE         8.8970   52.0020   58.7970 C.3   400  LYS400      0.1093
     21  NZ         8.0250   53.2170   58.7800 N.3   400  LYS400     -0.1314
     22  N         14.9430   47.3950   63.1420 N.3   403  ASN403     -0.1240
     23  CA        15.8440   48.4040   62.6100 C.3   403  ASN403      0.1653
     24  C         16.3610   49.2980   63.6790 C.2   403  ASN403      0.2266
     25  O         17.5850   49.6100   63.7470 O.2   403  ASN403     -0.2867
     26  CB        15.1820   49.2150   61.5140 C.3   403  ASN403      0.1155
     27  CG        14.9560   48.4090   60.2390 C.2   403  ASN403      0.2627
     28  OD1       15.3110   47.2170   60.1180 O.2   403  ASN403     -0.2716
     29  ND2       14.4280   49.0730   59.2550 N.am  403  ASN403     -0.0877
     30  N         34.5470   53.0980   53.3910 N.3   500  PHE500     -0.1241
     31  CA        33.4680   53.1730   52.4260 C.3   500  PHE500      0.1605
     32  C         33.7190   52.1880   51.2990 C.2   500  PHE500      0.2264
     33  O         34.8370   52.0920   50.7770 O.2   500  PHE500     -0.2867
     34  CB        33.3540   54.5780   51.8390 C.3   500  PHE500      0.0534
     35  CG        32.3120   54.6980   50.7770 C.ar  500  PHE500     -0.0203
     36  CD1       30.9710   54.6490   51.1030 C.ar  500  PHE500     -0.0042
     37  CD2       32.6760   54.8130   49.4260 C.ar  500  PHE500     -0.0042
     38  CE1       30.0060   54.7280   50.1120 C.ar  500  PHE500     -0.0003
     39  CE2       31.7090   54.8980   48.4360 C.ar  500  PHE500     -0.0003
     40  CZ        30.3720   54.8660   48.7790 C.ar  500  PHE500     -0.0000
     41  N         26.5370   49.7370   49.0230 N.3   505  PHE505     -0.1241
     42  CA        25.3660   50.6090   49.0230 C.3   505  PHE505      0.1605
     43  C         24.7610   50.7970   47.6760 C.2   505  PHE505      0.2264
     44  O         24.1440   51.7940   47.4270 O.2   505  PHE505     -0.2867
     45  CB        25.7060   51.9470   49.6240 C.3   505  PHE505      0.0534
     46  CG        26.3110   51.8590   50.9870 C.ar  505  PHE505     -0.0203
     47  CD1       25.5070   51.6840   52.1010 C.ar  505  PHE505     -0.0042
     48  CD2       27.6800   51.9770   51.1460 C.ar  505  PHE505     -0.0042
     49  CE1       26.0580   51.6360   53.3600 C.ar  505  PHE505     -0.0003
     50  CE2       28.2470   51.9090   52.3860 C.ar  505  PHE505     -0.0003
     51  CZ        27.4320   51.7350   53.5100 C.ar  505  PHE505     -0.0000
     52  N         22.0070   49.2550   44.9640 N.3   507  PHE507     -0.1241
     53  CA        20.7800   48.4760   45.0590 C.3   507  PHE507      0.1605
     54  C         20.1260   48.2660   43.7120 C.2   507  PHE507      0.2264
     55  O         20.1860   49.1250   42.8600 O.2   507  PHE507     -0.2867
     56  CB        19.7760   49.1590   45.9680 C.3   507  PHE507      0.0534
     57  CG        20.2880   49.4520   47.3530 C.ar  507  PHE507     -0.0203
     58  CD1       20.1220   48.5280   48.3900 C.ar  507  PHE507     -0.0042
     59  CD2       20.8720   50.6910   47.6280 C.ar  507  PHE507     -0.0042
     60  CE1       20.5660   48.8320   49.6510 C.ar  507  PHE507     -0.0003
     61  CE2       21.3070   50.9960   48.8800 C.ar  507  PHE507     -0.0003
     62  CZ        21.1500   50.0780   49.8970 C.ar  507  PHE507     -0.0000
     63  N         13.8750   42.6960   53.3310 N.3   520  GLN520     -0.1245
     64  CA        14.2530   43.2530   54.6120 C.3   520  GLN520      0.1566
     65  C         15.6980   43.0190   54.9350 C.2   520  GLN520      0.2260
     66  O         16.3690   43.8900   55.4410 O.2   520  GLN520     -0.2867
     67  CB        13.4220   42.6790   55.7100 C.3   520  GLN520      0.0367
     68  CG        12.0630   43.3040   55.7100 C.3   520  GLN520      0.0905
     69  CD        11.1540   42.6410   56.6960 C.2   520  GLN520      0.2608
     70  OE1       11.5940   41.9490   57.5910 O.2   520  GLN520     -0.2717
     71  NE2        9.8730   42.8470   56.5300 N.am  520  GLN520     -0.0878
     72  N         18.0870   45.3870   53.0460 N.3   523  LYS523     -0.1231
     73  CA        18.0100   46.7400   53.5780 C.3   523  LYS523      0.1693
     74  C         18.6540   46.8280   54.9520 C.2   523  LYS523      0.2591
     75  O         19.4110   47.7070   55.2400 O.2   523  LYS523     -0.2718
     76  CB        16.5470   47.2030   53.6840 C.3   523  LYS523      0.0285
     77  CG        15.7920   47.2580   52.3480 C.3   523  LYS523      0.0035
     78  CD        14.3180   47.6640   52.5470 C.3   523  LYS523      0.0206
     79  CE        13.5750   47.7900   51.2260 C.3   523  LYS523      0.1093
     80  NZ        12.0910   47.8870   51.3850 N.3   523  LYS523     -0.1314
     81  N         18.2820   45.9090   55.8200 N.am  524  GLN524     -0.1979
     82  CA        18.8750   45.8170   57.1320 C.3   524  GLN524      0.1601
     83  C         20.3980   45.5730   57.0790 C.2   524  GLN524      0.2287
     84  O         21.1210   46.0990   57.8650 O.2   524  GLN524     -0.2864
     85  CB        18.1890   44.7170   57.9030 C.3   524  GLN524      0.0394
     86  CG        16.8060   45.1230   58.2820 C.3   524  GLN524      0.0908
     87  CD        15.9660   43.9940   58.8450 C.2   524  GLN524      0.2608
     88  OE1       16.0950   42.8490   58.4690 O.2   524  GLN524     -0.2717
     89  NE2       15.1020   44.3360   59.7470 N.am  524  GLN524     -0.0878
     90  N         22.4240   46.6200   54.7610 N.3   526  ALA526     -0.1231
     91  CA        22.9510   47.8660   54.3390 C.3   526  ALA526      0.1694
     92  C         22.9350   48.9440   55.4390 C.2   526  ALA526      0.2591
     93  O         23.8550   49.7370   55.5650 O.2   526  ALA526     -0.2718
     94  CB        22.1880   48.2960   53.1110 C.3   526  ALA526      0.0304
     95  N         21.8550   48.9840   56.1920 N.am  527  LEU527     -0.1980
     96  CA        21.7380   49.7890   57.4170 C.3   527  LEU527      0.1596
     97  C         22.8130   49.4930   58.4510 C.2   527  LEU527      0.2287
     98  O         23.3410   50.3910   59.1000 O.2   527  LEU527     -0.2864
     99  CB        20.4010   49.5040   58.0780 C.3   527  LEU527      0.0297
    100  CG        20.1710   50.2830   59.3390 C.3   527  LEU527      0.0022
    101  CD1       20.4510   51.7770   59.1350 C.3   527  LEU527      0.0001
    102  CD2       18.7420   50.0680   59.8030 C.3   527  LEU527      0.0001
    103  N         25.9190   50.8820   57.0570 N.3   530  LEU530     -0.1245
    104  CA        25.9360   52.3410   57.1690 C.3   530  LEU530      0.1561
    105  C         26.3540   52.8260   58.5700 C.2   530  LEU530      0.2260
    106  O         27.0510   53.8190   58.7060 O.2   530  LEU530     -0.2867
    107  CB        24.5850   52.9350   56.7860 C.3   530  LEU530      0.0270
    108  CG        24.4280   54.4460   57.0260 C.3   530  LEU530      0.0019
    109  CD1       25.3680   55.2510   56.1390 C.3   530  LEU530      0.0001
    110  CD2       22.9900   54.8840   56.8300 C.3   530  LEU530      0.0001
    111  N         30.0210   52.2340   58.8950 N.3   533  HIS533     -0.1226
    112  CA        30.7390   53.2320   58.1700 C.3   533  HIS533      0.1752
    113  C         30.5840   54.6390   58.7600 C.2   533  HIS533      0.2595
    114  O         31.5310   55.3830   58.7410 O.2   533  HIS533     -0.2718
    115  CB        30.3320   53.2250   56.7210 C.3   533  HIS533      0.0759
    116  CG        30.9300   54.3600   55.9350 C.ar  533  HIS533      0.0818
    117  ND1       32.2740   54.4440   55.6430 N.ar  533  HIS533     -0.2268
    118  CD2       30.3660   55.4790   55.4150 C.ar  533  HIS533      0.1154
    119  CE1       32.5030   55.5410   54.9510 C.ar  533  HIS533      0.1986
    120  NE2       31.3620   56.1840   54.7960 N.ar  533  HIS533     -0.2212
    121  N         29.4270   54.9380   59.3600 N.am  534  LYS534     -0.1980
    122  CA        29.1210   56.2420   60.0540 C.3   534  LYS534      0.1596
    123  C         28.5900   56.0850   61.5150 C.2   534  LYS534      0.2287
    124  O         27.3780   56.3440   61.8390 O.2   534  LYS534     -0.2864
    125  CB        28.1480   57.0950   59.2370 C.3   534  LYS534      0.0298
    126  CG        28.7180   57.6530   57.9430 C.3   534  LYS534      0.0038
    127  CD        30.0710   58.3330   58.1290 C.3   534  LYS534      0.0206
    128  CE        30.6160   58.8620   56.8340 C.3   534  LYS534      0.1093
    129  NZ        32.0160   59.3120   57.0260 N.3   534  LYS534     -0.1314
    130  N         18.7500   59.7720   56.1790 N.3   545  VAL545     -0.1231
    131  CA        19.2580   58.8520   55.1290 C.3   545  VAL545      0.1692
    132  C         18.3170   57.6810   54.8550 C.2   545  VAL545      0.2591
    133  O         18.1430   57.2740   53.7460 O.2   545  VAL545     -0.2718
    134  CB        20.6800   58.3470   55.4360 C.3   545  VAL545      0.0266
    135  CG1       21.1510   57.3850   54.3860 C.3   545  VAL545      0.0020
    136  CG2       21.6520   59.5060   55.5460 C.3   545  VAL545      0.0020
    137  N         17.6780   57.2070   55.8770 N.am  546  MET546     -0.1979
    138  CA        16.6610   56.1650   55.7580 C.3   546  MET546      0.1605
    139  C         15.3740   56.7190   55.1140 C.2   546  MET546      0.2287
    140  O         14.6330   56.0050   54.4720 O.2   546  MET546     -0.2864
    141  CB        16.3610   55.5430   57.1540 C.3   546  MET546      0.0413
    142  CG        17.5570   54.8050   57.7800 C.3   546  MET546      0.0598
    143  SD        17.4660   54.4120   59.5530 S.3   546  MET546     -0.1393
    144  CE        16.3400   53.0050   59.5300 C.3   546  MET546      0.0692
    145  N         16.4480   56.9390   51.3570 N.3   549  PHE549     -0.1227
    146  CA        16.4990   55.6040   50.8100 C.3   549  PHE549      0.1736
    147  C         15.0770   55.1540   50.5530 C.2   549  PHE549      0.2595
    148  O         14.7700   54.6420   49.4930 O.2   549  PHE549     -0.2718
    149  CB        17.1670   54.6530   51.7860 C.3   549  PHE549      0.0547
    150  CG        17.0840   53.2100   51.3750 C.ar  549  PHE549     -0.0202
    151  CD1       17.9410   52.7060   50.4000 C.ar  549  PHE549     -0.0042
    152  CD2       16.1470   52.3530   51.9500 C.ar  549  PHE549     -0.0042
    153  CE1       17.8780   51.3900   50.0260 C.ar  549  PHE549     -0.0003
    154  CE2       16.0930   51.0190   51.5910 C.ar  549  PHE549     -0.0003
    155  CZ        16.9760   50.5430   50.6270 C.ar  549  PHE549     -0.0000
    156  N         14.2190   55.3260   51.5490 N.am  550  ALA550     -0.1980
    157  CA        12.7970   55.0110   51.3970 C.3   550  ALA550      0.1597
    158  C         12.2210   55.6920   50.1740 C.2   550  ALA550      0.2287
    159  O         11.6450   55.0370   49.3370 O.2   550  ALA550     -0.2864
    160  CB        11.9850   55.3620   52.6380 C.3   550  ALA550      0.0319
    161  N         13.7520   53.9970   46.9150 N.3   553  VAL553     -0.1245
    162  CA        13.0710   52.7420   46.6500 C.3   553  VAL553      0.1561
    163  C         11.6570   53.0020   46.0960 C.2   553  VAL553      0.2260
    164  O         11.2810   52.4180   45.0950 O.2   553  VAL553     -0.2867
    165  CB        13.0240   51.7840   47.8970 C.3   553  VAL553      0.0252
    166  CG1       12.2220   50.5240   47.6030 C.3   553  VAL553      0.0019
    167  CG2       14.4190   51.3400   48.3180 C.3   553  VAL553      0.0019
    168  N         21.7090   59.1600   45.8020 N.3   573  LEU573     -0.1231
    169  CA        21.4640   58.8100   47.1860 C.3   573  LEU573      0.1693
    170  C         22.7720   58.6150   47.9300 C.2   573  LEU573      0.2591
    171  O         22.9630   59.1350   48.9970 O.2   573  LEU573     -0.2718
    172  CB        20.6310   57.5460   47.2550 C.3   573  LEU573      0.0284
    173  CG        20.3220   57.0290   48.6430 C.3   573  LEU573      0.0019
    174  CD1       19.4570   58.0190   49.3980 C.3   573  LEU573      0.0001
    175  CD2       19.6040   55.7090   48.4960 C.3   573  LEU573      0.0001
    176  N         23.6870   57.8850   47.3340 N.am  574  VAL574     -0.1980
    177  CA        24.9710   57.6790   47.9730 C.3   574  VAL574      0.1595
    178  C         25.7010   58.9330   48.2090 C.2   574  VAL574      0.2287
    179  O         26.3100   59.1050   49.2430 O.2   574  VAL574     -0.2864
    180  CB        25.9120   56.7890   47.1620 C.3   574  VAL574      0.0276
    181  CG1       27.3630   56.9880   47.5950 C.3   574  VAL574      0.0022
    182  CG2       25.5090   55.3410   47.3420 C.3   574  VAL574      0.0022
    183  N         24.0950   61.2460   50.8650 N.3   577  SER577     -0.1202
    184  CA        24.3000   60.6260   52.1640 C.3   577  SER577      0.2020
    185  C         25.7260   60.7820   52.6890 C.2   577  SER577      0.2618
    186  O         25.9110   61.0730   53.8560 O.2   577  SER577     -0.2717
    187  CB        23.9300   59.1580   52.0790 C.3   577  SER577      0.2103
    188  OG        22.5660   59.0060   51.7210 O.3   577  SER577     -0.2182
    189  N         26.7170   60.6020   51.8270 N.am  578  GLN578     -0.1979
    190  CA        28.1130   60.8240   52.2340 C.3   578  GLN578      0.1601
    191  C         28.4210   62.2410   52.6460 C.2   578  GLN578      0.2287
    192  O         29.2270   62.4770   53.5480 O.2   578  GLN578     -0.2864
    193  CB        29.0780   60.4550   51.1440 C.3   578  GLN578      0.0394
    194  CG        29.1280   58.9780   50.8770 C.3   578  GLN578      0.0908
    195  CD        29.9550   58.6800   49.6450 C.2   578  GLN578      0.2608
    196  OE1       29.5650   59.0250   48.5220 O.2   578  GLN578     -0.2717
    197  NE2       31.1160   58.0530   49.8570 N.am  578  GLN578     -0.0878
    198  N         26.6040   63.0860   56.1950 N.3   581  LEU581     -0.1245
    199  CA        27.2130   62.5350   57.3790 C.3   581  LEU581      0.1561
    200  C         28.6910   62.9400   57.4870 C.2   581  LEU581      0.2260
    201  O         29.4240   62.3710   58.2930 O.2   581  LEU581     -0.2867
    202  CB        27.0980   61.0150   57.3570 C.3   581  LEU581      0.0270
    203  CG        25.6790   60.4500   57.2250 C.3   581  LEU581      0.0019
    204  CD1       25.6420   58.9390   57.0920 C.3   581  LEU581      0.0001
    205  CD2       24.7850   60.8630   58.3810 C.3   581  LEU581      0.0001
@<TRIPOS>BOND
     1    55    54    2
     2    54    53    1
     3    52    53    1
     4    53    56    1
     5   164   163    2
     6   168   169    1
     7    56    57    1
     8   163   162    1
     9   162   161    1
    10   162   165    1
    11   180   182    1
    12   180   181    1
    13   180   177    1
    14   169   172    1
    15   169   170    1
    16   172   173    1
    17   176   170   am
    18   176   177    1
    19    57    59   ar
    20    57    58   ar
    21    44    43    2
    22   166   165    1
    23    59    61   ar
    24    43    42    1
    25   165   167    1
    26   170   171    2
    27   177   178    1
    28   178   179    2
    29    58    60   ar
    30    39    40   ar
    31    39    37   ar
    32   175   173    1
    33   196   195    2
    34   173   174    1
    35    40    38   ar
    36    61    62   ar
    37    41    42    1
    38    42    45    1
    39   159   158    2
    40    37    35   ar
    41   148   147    2
    42    45    46    1
    43   195   197   am
    44   195   194    1
    45    60    62   ar
    46   153   151   ar
    47   153   155   ar
    48    38    36   ar
    49   158   157    1
    50   151   150   ar
    51   147   146    1
    52   147   156   am
    53   155   154   ar
    54    35    36   ar
    55    35    34    1
    56    33    32    2
    57   146   145    1
    58   146   149    1
    59   183   184    1
    60   194   193    1
    61    46    48   ar
    62    46    47   ar
    63   193   190    1
    64    48    50   ar
    65    79    80    1
    66    79    78    1
    67    32    31    1
    68   150   149    1
    69   150   152   ar
    70   157   156    1
    71   157   160    1
    72   154   152   ar
    73   188   187    1
    74   189   190    1
    75   189   185   am
    76    34    31    1
    77   187   184    1
    78    47    49   ar
    79   184   185    1
    80   190   191    1
    81    77    78    1
    82    77    76    1
    83    50    51   ar
    84    31    30    1
    85   191   192    2
    86   185   186    2
    87    72    73    1
    88    94    91    1
    89    63    64    1
    90    49    51   ar
    91    73    76    1
    92    73    74    1
    93   133   132    2
    94    91    90    1
    95    91    92    1
    96   135   134    1
    97   140   139    2
    98    64    65    1
    99    64    67    1
   100   120   119   ar
   101   120   118   ar
   102   132   131    1
   103   132   137   am
   104    65    66    2
   105   119   117   ar
   106    74    75    2
   107    74    81   am
   108   139   138    1
   109   131   134    1
   110   131   130    1
   111   118   116   ar
   112   134   136    1
   113    92    93    2
   114    92    95   am
   115   117   116   ar
   116    67    68    1
   117    68    69    1
   118   138   137    1
   119   138   141    1
   120    81    82    1
   121    12    11    1
   122   116   115    1
   123   109   108    1
   124    95    96    1
   125   198   199    1
   126    71    69   am
   127    69    70    2
   128   115   112    1
   129   107   108    1
   130   107   104    1
   131   110   108    1
   132   128   129    1
   133   128   127    1
   134    11    10   ar
   135    11     9   ar
   136    10     8   ar
   137   103   104    1
   138    83    82    1
   139    83    84    2
   140   204   203    1
   141    82    85    1
   142   141   142    1
   143   104   105    1
   144   203   202    1
   145   203   205    1
   146   202   199    1
   147   199   200    1
   148    96    99    1
   149    96    97    1
   150   200   201    2
   151     9     7   ar
   152   142   143    1
   153     8     6   ar
   154    85    86    1
   155   126   127    1
   156   126   125    1
   157    99   100    1
   158   112   113    1
   159   112   111    1
   160    86    87    1
   161    97    98    2
   162    88    87    2
   163     7     6   ar
   164   105   106    2
   165     6     5    1
   166   114   113    2
   167   113   121   am
   168    21    20    1
   169    20    19    1
   170    87    89   am
   171   101   100    1
   172   125   122    1
   173    29    27   am
   174   100   102    1
   175   121   122    1
   176   144   143    1
   177     5     2    1
   178   122   123    1
   179    28    27    2
   180    19    18    1
   181    27    26    1
   182    18    17    1
   183     2     3    1
   184     2     1    1
   185     3     4    2
   186     3    13   am
   187    26    23    1
   188   123   124    2
   189    13    14    1
   190    17    14    1
   191    14    15    1
   192    23    22    1
   193    23    24    1
   194    15    16    2
   195    24    25    2
