@<TRIPOS>MOLECULE
tmp/5id7A02.pdb
 205 192 0 0 0
SMALL
GASTEIGER

@<TRIPOS>ATOM
      1  N         17.5440   25.9330   73.0460 N.3   193  LYS193     -0.1245
      2  CA        17.2650   25.6710   74.4460 C.3   193  LYS193      0.1561
      3  C         18.0180   24.4470   75.0100 C.2   193  LYS193      0.2260
      4  O         18.5490   24.4940   76.1080 O.2   193  LYS193     -0.2867
      5  CB        15.7600   25.5240   74.6130 C.3   193  LYS193      0.0271
      6  CG        15.2530   25.6350   76.0110 C.3   193  LYS193      0.0035
      7  CD        14.0570   26.5990   76.0550 C.3   193  LYS193      0.0206
      8  CE        13.0180   26.4770   74.9120 C.3   193  LYS193      0.1093
      9  NZ        12.3270   25.1640   74.8050 N.3   193  LYS193     -0.1314
     10  N         21.6200   25.0490   75.4720 N.3   196  LEU196     -0.1231
     11  CA        21.7840   25.9170   76.6110 C.3   196  LEU196      0.1693
     12  C         21.6980   25.1550   77.9420 C.2   196  LEU196      0.2591
     13  O         22.5300   25.3380   78.8240 O.2   196  LEU196     -0.2718
     14  CB        20.7970   27.0800   76.5550 C.3   196  LEU196      0.0284
     15  CG        20.6980   28.0270   77.7520 C.3   196  LEU196      0.0019
     16  CD1       21.9710   28.8170   78.0680 C.3   196  LEU196      0.0001
     17  CD2       19.5340   28.9570   77.4960 C.3   196  LEU196      0.0001
     18  N         20.7050   24.2810   78.0520 N.am  197  LYS197     -0.1980
     19  CA        20.4590   23.5420   79.2770 C.3   197  LYS197      0.1596
     20  C         21.6130   22.5930   79.5860 C.2   197  LYS197      0.2287
     21  O         22.1350   22.6150   80.6840 O.2   197  LYS197     -0.2864
     22  CB        19.0650   22.8710   79.2450 C.3   197  LYS197      0.0298
     23  CG        17.8970   23.8590   79.2080 C.3   197  LYS197      0.0038
     24  CD        16.5920   23.3050   79.8060 C.3   197  LYS197      0.0206
     25  CE        15.8160   22.3520   78.8940 C.3   197  LYS197      0.1093
     26  NZ        14.3720   22.3770   79.2790 N.3   197  LYS197     -0.1314
     27  N         24.8750   24.7080   80.3700 N.3   200  SER200     -0.1217
     28  CA        24.7690   25.6420   81.4950 C.3   200  SER200      0.1889
     29  C         25.0400   24.9420   82.7660 C.2   200  SER200      0.2288
     30  O         25.4570   25.5420   83.7300 O.2   200  SER200     -0.2866
     31  CB        23.3700   26.2200   81.5810 C.3   200  SER200      0.2089
     32  OG        23.2420   27.2660   80.6560 O.3   200  SER200     -0.2183
     33  N         27.7710   27.0220   84.6060 N.3   204  PHE204     -0.1241
     34  CA        27.2630   27.6120   85.8330 C.3   204  PHE204      0.1605
     35  C         27.2570   26.6540   87.0190 C.2   204  PHE204      0.2264
     36  O         27.2600   27.1090   88.1480 O.2   204  PHE204     -0.2867
     37  CB        25.8410   28.1090   85.6430 C.3   204  PHE204      0.0534
     38  CG        25.6560   29.0670   84.4910 C.ar  204  PHE204     -0.0203
     39  CD1       26.3970   30.2450   84.4140 C.ar  204  PHE204     -0.0042
     40  CD2       24.6850   28.8200   83.5120 C.ar  204  PHE204     -0.0042
     41  CE1       26.2000   31.1400   83.3670 C.ar  204  PHE204     -0.0003
     42  CE2       24.4850   29.7090   82.4650 C.ar  204  PHE204     -0.0003
     43  CZ        25.2370   30.8740   82.3960 C.ar  204  PHE204     -0.0000
     44  N         21.9380   24.9090   88.9000 N.3   209  PHE209     -0.1241
     45  CA        20.9360   24.1600   88.1970 C.3   209  PHE209      0.1605
     46  C         19.7580   23.9480   89.1300 C.2   209  PHE209      0.2264
     47  O         18.5740   24.0610   88.7750 O.2   209  PHE209     -0.2867
     48  CB        21.4690   22.8030   87.7570 C.3   209  PHE209      0.0534
     49  CG        20.5210   22.0790   86.8690 C.ar  209  PHE209     -0.0203
     50  CD1       19.3960   21.4440   87.3840 C.ar  209  PHE209     -0.0042
     51  CD2       20.6880   22.1080   85.5130 C.ar  209  PHE209     -0.0042
     52  CE1       18.4760   20.8210   86.5570 C.ar  209  PHE209     -0.0003
     53  CE2       19.8010   21.4590   84.6850 C.ar  209  PHE209     -0.0003
     54  CZ        18.6650   20.8480   85.2090 C.ar  209  PHE209     -0.0000
     55  N         17.8600   26.9700   89.7740 N.3   212  TRP212     -0.1227
     56  CA        16.9820   27.2020   88.6180 C.3   212  TRP212      0.1737
     57  C         15.7510   26.3390   88.6220 C.2   212  TRP212      0.2595
     58  O         14.6430   26.8170   88.3910 O.2   212  TRP212     -0.2718
     59  CB        17.7080   26.9170   87.3020 C.3   212  TRP212      0.0564
     60  CG        17.2630   27.7340   86.1220 C.ar  212  TRP212      0.0003
     61  CD1       17.7300   28.9600   85.7850 C.ar  212  TRP212      0.0946
     62  CD2       16.2410   27.4040   85.1530 C.ar  212  TRP212      0.0152
     63  NE1       17.0320   29.4520   84.7100 N.ar  212  TRP212     -0.2442
     64  CE2       16.1590   28.4890   84.2610 C.ar  212  TRP212      0.0810
     65  CE3       15.4200   26.2930   84.9450 C.ar  212  TRP212      0.0012
     66  CZ2       15.2890   28.5050   83.1640 C.ar  212  TRP212      0.0191
     67  CZ3       14.5430   26.3030   83.8540 C.ar  212  TRP212      0.0001
     68  CH2       14.4710   27.4180   82.9910 C.ar  212  TRP212      0.0015
     69  N         15.9520   25.0550   88.9180 N.am  213  ALA213     -0.1980
     70  CA        14.8500   24.0760   88.8690 C.3   213  ALA213      0.1597
     71  C         13.7730   24.2690   89.9320 C.2   213  ALA213      0.2287
     72  O         12.5460   24.3110   89.6690 O.2   213  ALA213     -0.2864
     73  CB        15.4200   22.6980   88.9600 C.3   213  ALA213      0.0319
     74  N         11.8470   27.1980   89.0040 N.3   216  ARG216     -0.1231
     75  CA        10.9880   26.9550   87.8660 C.3   216  ARG216      0.1694
     76  C          9.8600   26.0730   88.2760 C.2   216  ARG216      0.2591
     77  O          8.7400   26.3020   87.9210 O.2   216  ARG216     -0.2718
     78  CB        11.7750   26.3210   86.7220 C.3   216  ARG216      0.0321
     79  CG        10.9730   26.0620   85.4590 C.3   216  ARG216      0.0489
     80  CD        10.6560   27.3620   84.6760 C.3   216  ARG216      0.2205
     81  NE        10.4310   27.0030   83.2550 N.pl3 216  ARG216     -0.0865
     82  CZ        10.8690   27.7210   82.2070 C.cat 216  ARG216      0.5346
     83  NH1       10.6360   27.2950   80.9610 N.pl3 216  ARG216      0.1354
     84  NH2       11.4990   28.8870   82.4020 N.pl3 216  ARG216      0.1354
     85  N         10.1370   25.0760   89.0680 N.am  217  LEU217     -0.1980
     86  CA         9.0880   24.1630   89.4160 C.3   217  LEU217      0.1596
     87  C          8.0650   24.7480   90.2840 C.2   217  LEU217      0.2287
     88  O          6.8840   24.3620   90.2190 O.2   217  LEU217     -0.2864
     89  CB         9.6770   22.9680   90.1310 C.3   217  LEU217      0.0297
     90  CG        10.2750   21.9860   89.1230 C.3   217  LEU217      0.0022
     91  CD1       11.1480   21.0400   89.8770 C.3   217  LEU217      0.0001
     92  CD2        9.1890   21.1540   88.4670 C.3   217  LEU217      0.0001
     93  N          5.4930   26.7900   88.5850 N.3   220  ARG220     -0.1245
     94  CA         4.5660   25.9020   87.8750 C.3   220  ARG220      0.1563
     95  C          3.6760   25.1530   88.8440 C.2   220  ARG220      0.2260
     96  O          2.4840   24.9800   88.6040 O.2   220  ARG220     -0.2867
     97  CB         5.3320   24.8360   87.0810 C.3   220  ARG220      0.0307
     98  CG         5.9740   25.2480   85.7700 C.3   220  ARG220      0.0489
     99  CD         5.0510   25.0750   84.5650 C.3   220  ARG220      0.2205
    100  NE         5.7330   25.5610   83.3460 N.pl3 220  ARG220     -0.0865
    101  CZ         6.4430   24.7900   82.5150 C.cat 220  ARG220      0.5346
    102  NH1        6.5310   23.5080   82.7220 N.pl3 220  ARG220      0.1354
    103  NH2        7.0570   25.3210   81.5010 N.pl3 220  ARG220      0.1354
    104  N         14.6570   15.4950   88.4070 N.3   236  LEU236     -0.1245
    105  CA        14.9080   16.3660   87.2650 C.3   236  LEU236      0.1561
    106  C         16.4120   16.6590   87.1350 C.2   236  LEU236      0.2260
    107  O         16.9430   16.6530   86.0330 O.2   236  LEU236     -0.2867
    108  CB        14.1470   17.6710   87.4500 C.3   236  LEU236      0.0270
    109  CG        13.9280   18.5420   86.2390 C.3   236  LEU236      0.0019
    110  CD1       12.9830   17.8690   85.2410 C.3   236  LEU236      0.0001
    111  CD2       13.3650   19.8940   86.6570 C.3   236  LEU236      0.0001
    112  N         18.2000   15.4960   83.7510 N.3   240  HIS240     -0.1241
    113  CA        19.0640   16.3700   82.9060 C.3   240  HIS240      0.1621
    114  C         20.5160   15.8120   82.7990 C.2   240  HIS240      0.2264
    115  O         21.0420   15.7550   81.7110 O.2   240  HIS240     -0.2867
    116  CB        19.0090   17.8790   83.3330 C.3   240  HIS240      0.0745
    117  CG        17.7880   18.6130   82.8240 C.ar  240  HIS240      0.0817
    118  ND1       17.8560   19.5360   81.8020 N.ar  240  HIS240     -0.2268
    119  CD2       16.4700   18.5410   83.1720 C.ar  240  HIS240      0.1154
    120  CE1       16.6440   20.0100   81.5550 C.ar  240  HIS240      0.1986
    121  NE2       15.7830   19.4250   82.3680 N.ar  240  HIS240     -0.2212
    122  N          6.2450   18.9970   80.7090 N.3   289  ALA289     -0.1245
    123  CA         7.2600   20.0070   80.6690 C.3   289  ALA289      0.1562
    124  C          6.6830   21.3430   80.1870 C.2   289  ALA289      0.2260
    125  O          7.2670   22.4060   80.5290 O.2   289  ALA289     -0.2867
    126  CB         8.4190   19.5730   79.7560 C.3   289  ALA289      0.0290
    127  N         15.4640   33.5280   86.4310 N.3   342  VAL342     -0.1245
    128  CA        16.7430   34.1400   86.6770 C.3   342  VAL342      0.1561
    129  C         16.5930   35.3480   87.6270 C.2   342  VAL342      0.2260
    130  O         17.3890   35.5010   88.5310 O.2   342  VAL342     -0.2867
    131  CB        17.4310   34.4150   85.3410 C.3   342  VAL342      0.0252
    132  CG1       16.8280   35.6100   84.6110 C.3   342  VAL342      0.0019
    133  CG2       18.8920   34.6290   85.5790 C.3   342  VAL342      0.0019
    134  N         18.4500   35.9820   91.0760 N.3   346  ARG346     -0.1245
    135  CA        19.1170   37.1780   91.6210 C.3   346  ARG346      0.1563
    136  C         18.6730   37.5260   93.0550 C.2   346  ARG346      0.2260
    137  O         19.4760   38.0280   93.8470 O.2   346  ARG346     -0.2867
    138  CB        18.8520   38.4050   90.8110 C.3   346  ARG346      0.0307
    139  CG        19.6580   38.4720   89.5540 C.3   346  ARG346      0.0489
    140  CD        19.1340   39.5410   88.6260 C.3   346  ARG346      0.2205
    141  NE        19.5130   39.0470   87.3490 N.pl3 346  ARG346     -0.0865
    142  CZ        18.7380   39.0310   86.2930 C.cat 346  ARG346      0.5346
    143  NH1       19.1650   38.4700   85.1680 N.pl3 346  ARG346      0.1354
    144  NH2       17.5200   39.5500   86.3490 N.pl3 346  ARG346      0.1354
    145  N         12.5900   35.7900   78.9990 N.3   448  GLU448     -0.1245
    146  CA        13.6540   35.0100   79.4790 C.3   448  GLU448      0.1567
    147  C         13.8230   33.7910   78.5840 C.2   448  GLU448      0.2260
    148  O         14.9330   33.4870   78.2150 O.2   448  GLU448     -0.2867
    149  CB        13.3500   34.5360   80.8780 C.3   448  GLU448      0.0388
    150  CG        14.3720   33.5300   81.3530 C.3   448  GLU448      0.1160
    151  CD        14.1330   33.0760   82.7640 C.2   448  GLU448      0.3649
    152  OE1       12.9600   32.8050   83.1180 O.co2 448  GLU448     -0.2457
    153  OE2       15.1100   33.0340   83.5390 O.co2 448  GLU448     -0.2457
    154  N         15.0580   34.9340   74.9150 N.3   451  LEU451     -0.1231
    155  CA        16.2780   35.7370   74.9670 C.3   451  LEU451      0.1693
    156  C         17.4190   34.8800   75.4240 C.2   451  LEU451      0.2592
    157  O         18.5380   34.9880   74.9380 O.2   451  LEU451     -0.2718
    158  CB        16.0320   36.8450   75.9250 C.3   451  LEU451      0.0284
    159  CG        16.8000   38.0660   75.8110 C.3   451  LEU451      0.0019
    160  CD1       16.5410   38.7060   74.4550 C.3   451  LEU451      0.0001
    161  CD2       16.2380   39.0010   76.8510 C.3   451  LEU451      0.0001
    162  N         17.1320   34.0360   76.3950 N.am  452  SER452     -0.1952
    163  CA        18.0940   33.1520   76.8650 C.3   452  SER452      0.1924
    164  C         18.6770   32.3290   75.6900 C.2   452  SER452      0.2314
    165  O         19.8920   32.1200   75.6130 O.2   452  SER452     -0.2863
    166  CB        17.5070   32.2710   77.9300 C.3   452  SER452      0.2116
    167  OG        16.4100   31.5140   77.3970 O.3   452  SER452     -0.2180
    168  N         20.6060   34.7990   73.1770 N.3   455  LEU455     -0.1245
    169  CA        21.8230   35.2930   73.7360 C.3   455  LEU455      0.1561
    170  C         22.8530   34.1580   73.8430 C.2   455  LEU455      0.2260
    171  O         24.0500   34.4050   73.7830 O.2   455  LEU455     -0.2867
    172  CB        21.5840   35.9170   75.1010 C.3   455  LEU455      0.0270
    173  CG        20.9530   37.3060   75.2350 C.3   455  LEU455      0.0019
    174  CD1       21.0580   37.9130   76.6120 C.3   455  LEU455      0.0001
    175  CD2       21.5730   38.3200   74.3110 C.3   455  LEU455      0.0001
    176  N         25.2900   33.2410   85.7140 N.3   479  LEU479     -0.1245
    177  CA        23.9160   32.9980   85.1950 C.3   479  LEU479      0.1561
    178  C         23.0590   34.2110   85.4150 C.2   479  LEU479      0.2260
    179  O         22.5790   34.7590   84.4820 O.2   479  LEU479     -0.2867
    180  CB        23.2720   31.7440   85.8350 C.3   479  LEU479      0.0270
    181  CG        21.8560   31.2970   85.4080 C.3   479  LEU479      0.0019
    182  CD1       21.6690   31.3640   83.9030 C.3   479  LEU479      0.0001
    183  CD2       21.4970   29.9020   85.9110 C.3   479  LEU479      0.0001
    184  N         24.4280   37.4970   83.0860 N.3   482  ARG482     -0.1231
    185  CA        24.6930   37.5160   81.6410 C.3   482  ARG482      0.1694
    186  C         23.8500   38.5890   80.9700 C.2   482  ARG482      0.2591
    187  O         24.3860   39.3380   80.1740 O.2   482  ARG482     -0.2718
    188  CB        24.4090   36.1660   81.0180 C.3   482  ARG482      0.0321
    189  CG        24.3880   36.2190   79.5140 C.3   482  ARG482      0.0489
    190  CD        24.1800   34.8780   78.8700 C.3   482  ARG482      0.2205
    191  NE        25.3880   34.0650   78.8810 N.pl3 482  ARG482     -0.0865
    192  CZ        25.5270   32.8950   78.2240 C.cat 482  ARG482      0.5346
    193  NH1       26.6600   32.2410   78.2870 N.pl3 482  ARG482      0.1354
    194  NH2       24.5120   32.3970   77.5020 N.pl3 482  ARG482      0.1354
    195  N         22.5110   38.6110   81.2370 N.am  483  ARG483     -0.1980
    196  CA        21.5850   39.4460   80.4790 C.3   483  ARG483      0.1597
    197  C         21.7490   40.8600   80.9600 C.2   483  ARG483      0.2287
    198  O         21.6550   41.7760   80.1920 O.2   483  ARG483     -0.2864
    199  CB        20.0920   38.9800   80.6570 C.3   483  ARG483      0.0334
    200  CG        19.0580   39.6190   79.6950 C.3   483  ARG483      0.0492
    201  CD        18.7170   41.0740   79.9940 C.3   483  ARG483      0.2205
    202  NE        18.2670   41.0650   81.3760 N.pl3 483  ARG483     -0.0865
    203  CZ        18.2330   42.1400   82.1810 C.cat 483  ARG483      0.5346
    204  NH1       18.6130   43.3420   81.7220 N.pl3 483  ARG483      0.1354
    205  NH2       17.7370   42.0290   83.4180 N.pl3 483  ARG483      0.1354
@<TRIPOS>BOND
     1     1     2    1
     2   168   169    1
     3   169   170    1
     4   169   172    1
     5   171   170    2
     6   175   173    1
     7     2     5    1
     8     2     3    1
     9   160   159    1
    10     5     6    1
    11     9     8    1
    12     8     7    1
    13   154   155    1
    14   157   156    2
    15   155   156    1
    16   155   158    1
    17     3     4    2
    18   172   173    1
    19   173   174    1
    20   156   162   am
    21    10    11    1
    22   165   164    2
    23   164   163    1
    24   159   158    1
    25   159   161    1
    26     6     7    1
    27   162   163    1
    28    14    11    1
    29    14    15    1
    30    11    12    1
    31   163   166    1
    32   167   166    1
    33    17    15    1
    34   194   192    1
    35    15    16    1
    36    12    18   am
    37    12    13    2
    38    18    19    1
    39   148   147    2
    40   192   193    1
    41   192   191    2
    42   147   146    1
    43   190   191    1
    44   190   189    1
    45    25    26    1
    46    25    24    1
    47   145   146    1
    48    23    22    1
    49    23    24    1
    50    22    19    1
    51    19    20    1
    52   146   149    1
    53   189   188    1
    54    20    21    2
    55   200   201    1
    56   200   199    1
    57   126   123    1
    58   201   202    1
    59   187   186    2
    60   124   125    2
    61   124   123    1
    62   198   197    2
    63    27    28    1
    64   196   199    1
    65   196   197    1
    66   196   195    1
    67    32    31    1
    68   123   122    1
    69   149   150    1
    70    83    82    1
    71   186   195   am
    72   186   185    1
    73   188   185    1
    74   150   151    1
    75   202   203    2
    76    28    31    1
    77    28    29    1
    78   103   101    1
    79   120   118   ar
    80   120   121   ar
    81   185   184    1
    82   115   114    2
    83   204   203    1
    84   118   117   ar
    85   203   205    1
    86    82    84    1
    87    82    81    2
    88   121   119   ar
    89    43    42   ar
    90    43    41   ar
    91    42    40   ar
    92   101   102    1
    93   101   100    2
    94   151   152   ar
    95   151   153   ar
    96    29    30    2
    97   114   113    1
    98   117   119   ar
    99   117   116    1
   100   113   116    1
   101   113   112    1
   102    68    66   ar
   103    68    67   ar
   104    66    64   ar
   105    81    80    1
   106   100    99    1
   107    41    39   ar
   108    40    38   ar
   109    67    65   ar
   110   182   181    1
   111    64    63   ar
   112    64    62   ar
   113    39    38   ar
   114   179   178    2
   115    38    37    1
   116    99    98    1
   117    33    34    1
   118   132   131    1
   119    80    79    1
   120    53    54   ar
   121    53    51   ar
   122    63    61   ar
   123    65    62   ar
   124    62    60   ar
   125   143   142    1
   126   177   178    1
   127   177   176    1
   128   177   180    1
   129    54    52   ar
   130   110   109    1
   131   131   133    1
   132   131   128    1
   133   181   180    1
   134   181   183    1
   135    79    78    1
   136    51    49   ar
   137    37    34    1
   138    98    97    1
   139    61    60   ar
   140    34    35    1
   141   107   106    2
   142    60    59    1
   143   109   111    1
   144   109   108    1
   145   142   144    1
   146   142   141    2
   147   127   128    1
   148    52    50   ar
   149   128   129    1
   150    78    75    1
   151    49    50   ar
   152    49    48    1
   153    35    36    2
   154    97    94    1
   155   106   105    1
   156   105   108    1
   157   105   104    1
   158    59    56    1
   159   141   140    1
   160   129   130    2
   161    48    45    1
   162    75    76    1
   163    75    74    1
   164    94    93    1
   165    94    95    1
   166    77    76    2
   167    45    44    1
   168    45    46    1
   169    76    85   am
   170    58    57    2
   171    92    90    1
   172    96    95    2
   173    56    57    1
   174    56    55    1
   175    57    69   am
   176   140   139    1
   177    47    46    2
   178    70    69    1
   179    70    73    1
   180    70    71    1
   181    85    86    1
   182    90    91    1
   183    90    89    1
   184    86    89    1
   185    86    87    1
   186   139   138    1
   187    72    71    2
   188    88    87    2
   189   138   135    1
   190   134   135    1
   191   135   136    1
   192   136   137    2
