@<TRIPOS>MOLECULE
tmp/5id7A00.pdb
 219 200 0 0 0
SMALL
GASTEIGER

@<TRIPOS>ATOM
      1  N         10.9230   36.1770   85.6690 N.3   340  SER340     -0.1217
      2  CA        11.8490   35.1840   85.1390 C.3   340  SER340      0.1889
      3  C         12.4640   34.4360   86.3140 C.2   340  SER340      0.2288
      4  O         12.7650   35.0420   87.3560 O.2   340  SER340     -0.2866
      5  CB        12.9530   35.8460   84.4110 C.3   340  SER340      0.2089
      6  OG        13.6090   36.7130   85.3140 O.3   340  SER340     -0.2183
      7  N         15.4640   33.5280   86.4310 N.3   342  VAL342     -0.1231
      8  CA        16.7430   34.1400   86.6770 C.3   342  VAL342      0.1692
      9  C         16.5930   35.3480   87.6270 C.2   342  VAL342      0.2591
     10  O         17.3890   35.5010   88.5310 O.2   342  VAL342     -0.2718
     11  CB        17.4310   34.4150   85.3410 C.3   342  VAL342      0.0266
     12  CG1       16.8280   35.6100   84.6110 C.3   342  VAL342      0.0020
     13  CG2       18.8920   34.6290   85.5790 C.3   342  VAL342      0.0020
     14  N         15.5280   36.1620   87.4930 N.am  343  LEU343     -0.1980
     15  CA        15.3090   37.2570   88.4860 C.3   343  LEU343      0.1596
     16  C         15.1000   36.6840   89.8670 C.2   343  LEU343      0.2287
     17  O         15.5410   37.2190   90.8580 O.2   343  LEU343     -0.2864
     18  CB        14.1210   38.1220   88.1110 C.3   343  LEU343      0.0297
     19  CG        13.6270   39.0240   89.1770 C.3   343  LEU343      0.0022
     20  CD1       14.5630   40.0930   89.4680 C.3   343  LEU343      0.0001
     21  CD2       12.3840   39.6350   88.6900 C.3   343  LEU343      0.0001
     22  N         18.4500   35.9820   91.0760 N.3   346  ARG346     -0.1245
     23  CA        19.1170   37.1780   91.6210 C.3   346  ARG346      0.1563
     24  C         18.6730   37.5260   93.0550 C.2   346  ARG346      0.2260
     25  O         19.4760   38.0280   93.8470 O.2   346  ARG346     -0.2867
     26  CB        18.8520   38.4050   90.8110 C.3   346  ARG346      0.0307
     27  CG        19.6580   38.4720   89.5540 C.3   346  ARG346      0.0489
     28  CD        19.1340   39.5410   88.6260 C.3   346  ARG346      0.2205
     29  NE        19.5130   39.0470   87.3490 N.pl3 346  ARG346     -0.0865
     30  CZ        18.7380   39.0310   86.2930 C.cat 346  ARG346      0.5346
     31  NH1       19.1650   38.4700   85.1680 N.pl3 346  ARG346      0.1354
     32  NH2       17.5200   39.5500   86.3490 N.pl3 346  ARG346      0.1354
     33  N         14.1740   44.6510   85.1160 N.3   382  PRO382     -0.2116
     34  CA        13.6420   43.9730   83.9070 C.3   382  PRO382      0.1372
     35  C         12.1670   44.3170   83.6410 C.2   382  PRO382      0.2244
     36  O         11.7250   44.2440   82.5180 O.2   382  PRO382     -0.2868
     37  CB        13.8380   42.4700   84.2120 C.3   382  PRO382      0.0268
     38  CG        13.7780   42.3790   85.7250 C.3   382  PRO382      0.0207
     39  CD        14.3840   43.6890   86.2410 C.3   382  PRO382      0.0892
     40  N         12.6360   47.5620   81.4820 N.3   385  LEU385     -0.1231
     41  CA        13.1710   47.2420   80.1510 C.3   385  LEU385      0.1693
     42  C         12.1160   46.5290   79.2620 C.2   385  LEU385      0.2591
     43  O         12.0020   46.8360   78.0790 O.2   385  LEU385     -0.2718
     44  CB        14.4070   46.3960   80.3480 C.3   385  LEU385      0.0284
     45  CG        15.4800   46.2580   79.2840 C.3   385  LEU385      0.0019
     46  CD1       16.2020   47.5530   78.9710 C.3   385  LEU385      0.0001
     47  CD2       16.5380   45.2300   79.7550 C.3   385  LEU385      0.0001
     48  N         11.3840   45.5550   79.7940 N.am  386  ILE386     -0.1980
     49  CA        10.2640   45.0100   79.0200 C.3   386  ILE386      0.1595
     50  C          9.2870   46.1470   78.5870 C.2   386  ILE386      0.2287
     51  O          8.9260   46.2630   77.4200 O.2   386  ILE386     -0.2864
     52  CB         9.5110   43.9020   79.8030 C.3   386  ILE386      0.0276
     53  CG1       10.1570   42.5350   79.5980 C.3   386  ILE386      0.0022
     54  CG2        8.0660   43.7860   79.4190 C.3   386  ILE386      0.0022
     55  CD1       10.0400   41.6690   80.8380 C.3   386  ILE386      0.0001
     56  N         10.8790   48.5580   75.7420 N.3   389  ASN389     -0.1240
     57  CA        10.9390   47.8330   74.4600 C.3   389  ASN389      0.1653
     58  C          9.5670   47.4440   73.8890 C.2   389  ASN389      0.2266
     59  O          9.3780   47.5420   72.7110 O.2   389  ASN389     -0.2867
     60  CB        11.8420   46.6100   74.5440 C.3   389  ASN389      0.1155
     61  CG        13.3000   46.9880   74.5090 C.2   389  ASN389      0.2627
     62  OD1       13.8670   47.3860   73.4620 O.2   389  ASN389     -0.2716
     63  ND2       13.9230   46.9120   75.6600 N.am  389  ASN389     -0.0877
     64  N         20.9920   50.3380   67.3670 N.3   408  ARG408     -0.1231
     65  CA        21.4320   50.2990   68.8090 C.3   408  ARG408      0.1694
     66  C         22.6280   49.3540   69.0320 C.2   408  ARG408      0.2592
     67  O         23.6700   49.7490   69.5590 O.2   408  ARG408     -0.2718
     68  CB        20.2460   49.8830   69.7120 C.3   408  ARG408      0.0321
     69  CG        20.4840   49.8340   71.2450 C.3   408  ARG408      0.0489
     70  CD        19.3730   49.0400   71.9860 C.3   408  ARG408      0.2205
     71  NE        18.0300   49.6790   71.8830 N.pl3 408  ARG408     -0.0865
     72  CZ        16.8690   49.0440   72.1120 C.cat 408  ARG408      0.5346
     73  NH1       15.7030   49.6760   71.9100 N.pl3 408  ARG408      0.1354
     74  NH2       16.8710   47.7910   72.5760 N.pl3 408  ARG408      0.1354
     75  N         22.4480   48.1190   68.5990 N.am  409  TYR409     -0.1976
     76  CA        23.4660   47.1090   68.7590 C.3   409  TYR409      0.1639
     77  C         24.6490   47.1800   67.8330 C.2   409  TYR409      0.2290
     78  O         25.7140   46.7470   68.2310 O.2   409  TYR409     -0.2864
     79  CB        22.8760   45.6970   68.6860 C.3   409  TYR409      0.0560
     80  CG        21.8250   45.5330   69.6960 C.ar  409  TYR409     -0.0198
     81  CD1       22.0910   45.7660   71.0360 C.ar  409  TYR409     -0.0009
     82  CD2       20.5640   45.1950   69.3350 C.ar  409  TYR409     -0.0009
     83  CE1       21.0900   45.6770   72.0290 C.ar  409  TYR409      0.0417
     84  CE2       19.5360   45.1120   70.2880 C.ar  409  TYR409      0.0417
     85  CZ        19.8100   45.3500   71.6470 C.ar  409  TYR409      0.1957
     86  OH        18.8100   45.2480   72.5820 O.3   409  TYR409     -0.2866
     87  N         28.4360   47.0200   69.6300 N.3   413  VAL413     -0.1245
     88  CA        29.4790   46.1040   69.3240 C.3   413  VAL413      0.1561
     89  C         29.6030   46.0880   67.8150 C.2   413  VAL413      0.2260
     90  O         29.2100   45.1080   67.1830 O.2   413  VAL413     -0.2867
     91  CB        29.0740   44.6830   69.7820 C.3   413  VAL413      0.0252
     92  CG1       30.2940   43.7380   69.7670 C.3   413  VAL413      0.0019
     93  CG2       28.5370   44.7200   71.1840 C.3   413  VAL413      0.0019
     94  N         31.0650   43.0890   65.3090 N.3   416  VAL416     -0.1245
     95  CA        30.3820   41.8300   65.0510 C.3   416  VAL416      0.1561
     96  C         30.0940   41.8710   63.5570 C.2   416  VAL416      0.2260
     97  O         29.8620   42.9810   62.9780 O.2   416  VAL416     -0.2867
     98  CB        29.0800   41.6610   65.9240 C.3   416  VAL416      0.0252
     99  CG1       28.3040   40.3950   65.5630 C.3   416  VAL416      0.0019
    100  CG2       29.4410   41.5290   67.3820 C.3   416  VAL416      0.0019
    101  N         24.7920   40.5110   63.1370 N.3   421  LEU421     -0.1245
    102  CA        24.0390   41.5720   63.7820 C.3   421  LEU421      0.1561
    103  C         22.6350   41.5580   63.2830 C.2   421  LEU421      0.2260
    104  O         21.7370   41.9280   64.0120 O.2   421  LEU421     -0.2867
    105  CB        24.6360   42.9220   63.5610 C.3   421  LEU421      0.0270
    106  CG        25.8680   43.2890   64.3600 C.3   421  LEU421      0.0019
    107  CD1       26.7080   44.3350   63.6510 C.3   421  LEU421      0.0001
    108  CD2       25.3860   43.8790   65.6280 C.3   421  LEU421      0.0001
    109  N         20.7220   38.4570   64.7850 N.3   424  VAL424     -0.1245
    110  CA        20.4170   38.6490   66.1400 C.3   424  VAL424      0.1561
    111  C         19.3630   39.7110   66.3350 C.2   424  VAL424      0.2260
    112  O         18.5500   39.5850   67.2510 O.2   424  VAL424     -0.2867
    113  CB        21.6610   39.0480   66.9050 C.3   424  VAL424      0.0252
    114  CG1       21.2900   39.5710   68.2910 C.3   424  VAL424      0.0019
    115  CG2       22.5960   37.8160   66.9680 C.3   424  VAL424      0.0019
    116  N         15.8140   39.3020   67.9970 N.3   428  LEU428     -0.1245
    117  CA        15.3210   40.0470   69.1410 C.3   428  LEU428      0.1561
    118  C         13.9920   40.6540   68.7910 C.2   428  LEU428      0.2260
    119  O         13.1100   40.7440   69.6510 O.2   428  LEU428     -0.2867
    120  CB        16.2380   41.1300   69.5700 C.3   428  LEU428      0.0270
    121  CG        17.4850   40.4780   70.0840 C.3   428  LEU428      0.0019
    122  CD1       18.6250   41.4540   69.8690 C.3   428  LEU428      0.0001
    123  CD2       17.2880   40.0530   71.5180 C.3   428  LEU428      0.0001
    124  N         11.3120   38.0980   69.2220 N.3   431  VAL431     -0.1245
    125  CA        11.0680   37.9130   70.6140 C.3   431  VAL431      0.1561
    126  C         10.1290   38.9950   71.1310 C.2   431  VAL431      0.2260
    127  O          9.3080   38.7280   72.0390 O.2   431  VAL431     -0.2867
    128  CB        12.3830   38.0210   71.4120 C.3   431  VAL431      0.0252
    129  CG1       12.1780   38.0610   72.9300 C.3   431  VAL431      0.0019
    130  CG2       13.3060   36.8780   70.9860 C.3   431  VAL431      0.0019
    131  N          7.8120   38.5480   81.3080 N.3   444  MET444     -0.1245
    132  CA         9.1730   38.3190   81.7430 C.3   444  MET444      0.1570
    133  C          9.5880   36.8960   81.5480 C.2   444  MET444      0.2261
    134  O         10.6370   36.6640   81.0910 O.2   444  MET444     -0.2867
    135  CB         9.3930   38.8160   83.1840 C.3   444  MET444      0.0387
    136  CG        10.8240   39.3460   83.3470 C.3   444  MET444      0.0595
    137  SD        11.2910   39.4920   85.0400 S.3   444  MET444     -0.1393
    138  CE        10.1700   40.7710   85.5000 C.3   444  MET444      0.0692
    139  N         10.2120   36.4430   77.8480 N.3   447  ALA447     -0.1231
    140  CA        11.4150   37.0530   77.3710 C.3   447  ALA447      0.1694
    141  C         12.6260   36.2580   77.7830 C.2   447  ALA447      0.2591
    142  O         13.5230   36.0050   76.9850 O.2   447  ALA447     -0.2718
    143  CB        11.4990   38.4710   77.8820 C.3   447  ALA447      0.0304
    144  N         12.5900   35.7900   78.9990 N.am  448  GLU448     -0.1979
    145  CA        13.6540   35.0100   79.4790 C.3   448  GLU448      0.1602
    146  C         13.8230   33.7910   78.5840 C.2   448  GLU448      0.2287
    147  O         14.9330   33.4870   78.2150 O.2   448  GLU448     -0.2864
    148  CB        13.3500   34.5360   80.8780 C.3   448  GLU448      0.0415
    149  CG        14.3720   33.5300   81.3530 C.3   448  GLU448      0.1163
    150  CD        14.1330   33.0760   82.7640 C.2   448  GLU448      0.3649
    151  OE1       12.9600   32.8050   83.1180 O.co2 448  GLU448     -0.2457
    152  OE2       15.1100   33.0340   83.5390 O.co2 448  GLU448     -0.2457
    153  N         15.0580   34.9340   74.9150 N.3   451  LEU451     -0.1245
    154  CA        16.2780   35.7370   74.9670 C.3   451  LEU451      0.1561
    155  C         17.4190   34.8800   75.4240 C.2   451  LEU451      0.2260
    156  O         18.5380   34.9880   74.9380 O.2   451  LEU451     -0.2867
    157  CB        16.0320   36.8450   75.9250 C.3   451  LEU451      0.0270
    158  CG        16.8000   38.0660   75.8110 C.3   451  LEU451      0.0019
    159  CD1       16.5410   38.7060   74.4550 C.3   451  LEU451      0.0001
    160  CD2       16.2380   39.0010   76.8510 C.3   451  LEU451      0.0001
    161  N         20.6060   34.7990   73.1770 N.3   455  LEU455     -0.1245
    162  CA        21.8230   35.2930   73.7360 C.3   455  LEU455      0.1561
    163  C         22.8530   34.1580   73.8430 C.2   455  LEU455      0.2260
    164  O         24.0500   34.4050   73.7830 O.2   455  LEU455     -0.2867
    165  CB        21.5840   35.9170   75.1010 C.3   455  LEU455      0.0270
    166  CG        20.9530   37.3060   75.2350 C.3   455  LEU455      0.0019
    167  CD1       21.0580   37.9130   76.6120 C.3   455  LEU455      0.0001
    168  CD2       21.5730   38.3200   74.3110 C.3   455  LEU455      0.0001
    169  N         24.3740   33.5930   70.5310 N.3   458  LEU458     -0.1245
    170  CA        25.2590   34.6910   70.1980 C.3   458  LEU458      0.1561
    171  C         26.6660   34.3510   70.7730 C.2   458  LEU458      0.2260
    172  O         27.6890   34.4420   70.0750 O.2   458  LEU458     -0.2867
    173  CB        24.6720   35.9810   70.7380 C.3   458  LEU458      0.0270
    174  CG        25.4100   37.3130   70.7600 C.3   458  LEU458      0.0019
    175  CD1       26.0910   37.6780   69.4640 C.3   458  LEU458      0.0001
    176  CD2       24.4220   38.4030   71.1510 C.3   458  LEU458      0.0001
    177  N         31.6170   41.4580   74.6610 N.3   471  VAL471     -0.1245
    178  CA        30.7470   40.2840   74.4450 C.3   471  VAL471      0.1561
    179  C         31.2930   39.0700   75.1940 C.2   471  VAL471      0.2260
    180  O         30.5260   38.4070   75.8660 O.2   471  VAL471     -0.2867
    181  CB        30.5340   39.9910   72.9840 C.3   471  VAL471      0.0252
    182  CG1       29.5840   38.8550   72.8180 C.3   471  VAL471      0.0019
    183  CG2       29.9220   41.1800   72.3210 C.3   471  VAL471      0.0019
    184  N         22.5110   38.6110   81.2370 N.3   483  ARG483     -0.1245
    185  CA        21.5850   39.4460   80.4790 C.3   483  ARG483      0.1563
    186  C         21.7490   40.8600   80.9600 C.2   483  ARG483      0.2260
    187  O         21.6550   41.7760   80.1920 O.2   483  ARG483     -0.2867
    188  CB        20.0920   38.9800   80.6570 C.3   483  ARG483      0.0307
    189  CG        19.0580   39.6190   79.6950 C.3   483  ARG483      0.0489
    190  CD        18.7170   41.0740   79.9940 C.3   483  ARG483      0.2205
    191  NE        18.2670   41.0650   81.3760 N.pl3 483  ARG483     -0.0865
    192  CZ        18.2330   42.1400   82.1810 C.cat 483  ARG483      0.5346
    193  NH1       18.6130   43.3420   81.7220 N.pl3 483  ARG483      0.1354
    194  NH2       17.7370   42.0290   83.4180 N.pl3 483  ARG483      0.1354
    195  N         24.8260   42.1010   79.1300 N.3   486  PHE486     -0.1227
    196  CA        24.3710   42.6070   77.7850 C.3   486  PHE486      0.1736
    197  C         23.5690   43.9600   77.7460 C.2   486  PHE486      0.2596
    198  O         23.8520   44.8520   76.9310 O.2   486  PHE486     -0.2718
    199  CB        23.6250   41.5080   77.0150 C.3   486  PHE486      0.0547
    200  CG        24.5450   40.4740   76.3790 C.ar  486  PHE486     -0.0202
    201  CD1       25.2020   40.7530   75.2130 C.ar  486  PHE486     -0.0042
    202  CD2       24.6720   39.2240   76.9000 C.ar  486  PHE486     -0.0042
    203  CE1       25.9880   39.8300   74.5630 C.ar  486  PHE486     -0.0003
    204  CE2       25.4780   38.2660   76.2790 C.ar  486  PHE486     -0.0003
    205  CZ        26.0900   38.5720   75.0680 C.ar  486  PHE486     -0.0000
    206  N         22.5840   44.0960   78.6120 N.am  487  SER487     -0.1952
    207  CA        21.8180   45.3630   78.7320 C.3   487  SER487      0.1924
    208  C         22.6590   46.5920   79.0930 C.2   487  SER487      0.2314
    209  O         22.2400   47.7330   78.8150 O.2   487  SER487     -0.2863
    210  CB        20.7900   45.2420   79.8100 C.3   487  SER487      0.2116
    211  OG        19.7720   44.3440   79.4080 O.3   487  SER487     -0.2180
    212  N         25.8900   47.0490   77.9640 N.3   489  LEU489     -0.1245
    213  CA        26.8240   47.4400   76.9360 C.3   489  LEU489      0.1561
    214  C         26.4910   48.8470   76.5230 C.2   489  LEU489      0.2260
    215  O         25.2980   49.2350   76.4000 O.2   489  LEU489     -0.2867
    216  CB        26.7200   46.5500   75.7520 C.3   489  LEU489      0.0270
    217  CG        27.1260   45.1310   75.9960 C.3   489  LEU489      0.0019
    218  CD1       26.8190   44.3690   74.7100 C.3   489  LEU489      0.0001
    219  CD2       28.5810   45.0850   76.3150 C.3   489  LEU489      0.0001
@<TRIPOS>BOND
     1    97    96    2
     2   101   102    1
     3   103   102    1
     4   103   104    2
     5    96    95    1
     6   105   102    1
     7   105   106    1
     8   107   106    1
     9   106   108    1
    10   109   110    1
    11    95    94    1
    12    95    98    1
    13    99    98    1
    14    98   100    1
    15   110   111    1
    16   110   113    1
    17   111   112    2
    18   113   115    1
    19   113   114    1
    20    90    89    2
    21    64    65    1
    22    89    88    1
    23    77    78    2
    24    77    76    1
    25   116   117    1
    26    75    76    1
    27    75    66   am
    28    79    76    1
    29    79    80    1
    30   118   117    1
    31   118   119    2
    32    65    66    1
    33    65    68    1
    34    66    67    2
    35   117   120    1
    36   124   125    1
    37    88    87    1
    38    88    91    1
    39    82    80   ar
    40    82    84   ar
    41   175   174    1
    42   120   121    1
    43    80    81   ar
    44    68    69    1
    45    92    91    1
    46    91    93    1
    47   122   121    1
    48   172   171    2
    49   121   123    1
    50   170   169    1
    51   170   173    1
    52   170   171    1
    53    84    85   ar
    54   125   126    1
    55   125   128    1
    56   173   174    1
    57   174   176    1
    58   130   128    1
    59    81    83   ar
    60   126   127    2
    61    69    70    1
    62   128   129    1
    63    85    83   ar
    64    85    86    1
    65    71    70    1
    66    71    72    2
    67    73    72    1
    68    72    74    1
    69   183   181    1
    70    59    58    2
    71   182   181    1
    72   181   178    1
    73   161   162    1
    74    62    61    2
    75   162   163    1
    76   162   165    1
    77   164   163    2
    78    58    57    1
    79   168   166    1
    80   178   177    1
    81   178   179    1
    82   159   158    1
    83    57    60    1
    84    57    56    1
    85    61    60    1
    86    61    63   am
    87   203   205   ar
    88   203   201   ar
    89   218   217    1
    90   153   154    1
    91   156   155    2
    92   154   155    1
    93   154   157    1
    94   205   204   ar
    95   165   166    1
    96   179   180    2
    97   201   200   ar
    98   166   167    1
    99   216   217    1
   100   216   213    1
   101   158   157    1
   102   158   160    1
   103   217   219    1
   104   204   202   ar
   105   200   202   ar
   106   200   199    1
   107   215   214    2
   108   214   213    1
   109   198   197    2
   110   213   212    1
   111   142   141    2
   112   199   196    1
   113   140   141    1
   114   140   139    1
   115   140   143    1
   116    51    50    2
   117   197   196    1
   118   197   206   am
   119   141   144   am
   120   196   195    1
   121    43    42    2
   122   147   146    2
   123   146   145    1
   124    50    49    1
   125   206   207    1
   126   207   208    1
   127   207   210    1
   128   209   208    2
   129    46    45    1
   130   144   145    1
   131    49    48    1
   132    49    52    1
   133    42    48   am
   134    42    41    1
   135    45    47    1
   136    45    44    1
   137   211   210    1
   138    54    52    1
   139   145   148    1
   140    53    52    1
   141    53    55    1
   142   189   190    1
   143   189   188    1
   144   190   191    1
   145    41    44    1
   146    41    40    1
   147   187   186    2
   148   185   188    1
   149   185   186    1
   150   185   184    1
   151   148   149    1
   152   134   133    2
   153   131   132    1
   154   149   150    1
   155   191   192    2
   156   133   132    1
   157   193   192    1
   158   132   135    1
   159   192   194    1
   160    36    35    2
   161   150   151   ar
   162   150   152   ar
   163   135   136    1
   164   136   137    1
   165    35    34    1
   166    34    37    1
   167    34    33    1
   168    37    38    1
   169     5     2    1
   170     5     6    1
   171    12    11    1
   172   137   138    1
   173    33    39    1
   174     2     1    1
   175     2     3    1
   176    31    30    1
   177    11    13    1
   178    11     8    1
   179    38    39    1
   180    30    32    1
   181    30    29    2
   182     3     4    2
   183     7     8    1
   184     8     9    1
   185    29    28    1
   186    14     9   am
   187    14    15    1
   188     9    10    2
   189    18    15    1
   190    18    19    1
   191    15    16    1
   192    28    27    1
   193    21    19    1
   194    19    20    1
   195    27    26    1
   196    16    17    2
   197    26    23    1
   198    22    23    1
   199    23    24    1
   200    24    25    2
