@<TRIPOS>MOLECULE
tmp/5id7A04.pdb
 91 82 0 0 0
SMALL
GASTEIGER

@<TRIPOS>ATOM
      1  N         24.8560   23.5320   91.7260 N.3   207  ARG207     -0.1245
      2  CA        24.0790   24.2480   92.6850 C.3   207  ARG207      0.1563
      3  C         23.1020   25.1610   91.9420 C.2   207  ARG207      0.2260
      4  O         21.9130   25.0640   92.1390 O.2   207  ARG207     -0.2867
      5  CB        24.9510   25.0090   93.6760 C.3   207  ARG207      0.0307
      6  CG        24.1440   25.7470   94.7350 C.3   207  ARG207      0.0489
      7  CD        24.9760   25.8550   95.9780 C.3   207  ARG207      0.2205
      8  NE        24.4540   26.8430   96.8980 N.pl3 207  ARG207     -0.0865
      9  CZ        24.5960   28.1580   96.7480 C.cat 207  ARG207      0.5346
     10  NH1       25.2050   28.6470   95.6750 N.pl3 207  ARG207      0.1354
     11  NH2       24.1410   28.9860   97.6810 N.pl3 207  ARG207      0.1354
     12  N         20.0790   23.4670   90.2970 N.3   210  LYS210     -0.1231
     13  CA        19.0510   23.1340   91.2620 C.3   210  LYS210      0.1693
     14  C         18.3160   24.4070   91.6380 C.2   210  LYS210      0.2591
     15  O         17.0620   24.4370   91.7350 O.2   210  LYS210     -0.2718
     16  CB        19.6860   22.4580   92.5010 C.3   210  LYS210      0.0285
     17  CG        19.8030   20.9190   92.4460 C.3   210  LYS210      0.0035
     18  CD        20.6700   20.3260   93.5820 C.3   210  LYS210      0.0206
     19  CE        20.1120   19.0240   94.2030 C.3   210  LYS210      0.1093
     20  NZ        20.2870   17.7490   93.4160 N.3   210  LYS210     -0.1314
     21  N         19.0570   25.4550   91.8940 N.am  211  ALA211     -0.1980
     22  CA        18.4040   26.7030   92.1880 C.3   211  ALA211      0.1597
     23  C         17.4320   27.1060   91.0360 C.2   211  ALA211      0.2287
     24  O         16.2930   27.4260   91.3020 O.2   211  ALA211     -0.2864
     25  CB        19.4320   27.7890   92.4700 C.3   211  ALA211      0.0319
     26  N         14.2450   24.4060   91.1540 N.3   214  VAL214     -0.1245
     27  CA        13.4170   24.9080   92.2460 C.3   214  VAL214      0.1561
     28  C         12.5800   26.1080   91.8790 C.2   214  VAL214      0.2260
     29  O         11.3610   26.1540   92.1440 O.2   214  VAL214     -0.2867
     30  CB        14.3410   25.3500   93.3500 C.3   214  VAL214      0.0252
     31  CG1       13.6620   26.2370   94.3210 C.3   214  VAL214      0.0019
     32  CG2       14.8850   24.0920   94.0770 C.3   214  VAL214      0.0019
     33  N         21.7200   25.9470  101.9580 N.3   322  ASP322     -0.1239
     34  CA        21.0500   25.6580  100.7360 C.3   322  ASP322      0.1674
     35  C         19.5770   25.3150  100.8930 C.2   322  ASP322      0.2266
     36  O         18.7550   25.7450  100.0820 O.2   322  ASP322     -0.2867
     37  CB        21.8360   24.5760   99.9940 C.3   322  ASP322      0.1410
     38  CG        23.1850   25.1170   99.4990 C.2   322  ASP322      0.3668
     39  OD1       23.4830   26.3080   99.7770 O.co2 322  ASP322     -0.2456
     40  OD2       23.8830   24.4050   98.7370 O.co2 322  ASP322     -0.2456
     41  N         17.7920   28.6440  101.7730 N.3   325  LEU325     -0.1231
     42  CA        17.7880   29.3520  100.4730 C.3   325  LEU325      0.1693
     43  C         16.7930   28.7830   99.4710 C.2   325  LEU325      0.2592
     44  O         16.0640   29.5310   98.8860 O.2   325  LEU325     -0.2718
     45  CB        19.1860   29.4040   99.8940 C.3   325  LEU325      0.0284
     46  CG        20.1160   30.3230  100.6490 C.3   325  LEU325      0.0019
     47  CD1       21.5160   30.1830  100.0940 C.3   325  LEU325      0.0001
     48  CD2       19.5820   31.7600  100.6240 C.3   325  LEU325      0.0001
     49  N         16.7520   27.4580   99.2940 N.am  326  GLY326     -0.1957
     50  CA        15.7610   26.8170   98.3780 C.3   326  GLY326      0.1869
     51  C         14.2850   27.0110   98.7810 C.2   326  GLY326      0.2309
     52  O         13.3870   27.1800   97.9390 O.2   326  GLY326     -0.2863
     53  N         13.5600   30.3120   97.8070 N.3   329  LEU329     -0.1245
     54  CA        13.2570   30.3170   96.4020 C.3   329  LEU329      0.1561
     55  C         11.8980   29.8250   96.0750 C.2   329  LEU329      0.2260
     56  O         11.1910   30.3620   95.1800 O.2   329  LEU329     -0.2867
     57  CB        14.2460   29.4690   95.6520 C.3   329  LEU329      0.0270
     58  CG        15.2380   30.3760   94.9550 C.3   329  LEU329      0.0019
     59  CD1       16.2040   29.4570   94.2750 C.3   329  LEU329      0.0001
     60  CD2       14.4990   31.2050   93.8720 C.3   329  LEU329      0.0001
     61  N         16.3480   33.9670   90.9100 N.3   345  LEU345     -0.1245
     62  CA        17.7340   33.6470   91.3910 C.3   345  LEU345      0.1561
     63  C         18.5260   34.8670   91.8140 C.2   345  LEU345      0.2260
     64  O         19.1830   34.8070   92.8540 O.2   345  LEU345     -0.2867
     65  CB        18.5640   32.8720   90.4110 C.3   345  LEU345      0.0270
     66  CG        17.9160   31.5920   89.9060 C.3   345  LEU345      0.0019
     67  CD1       18.9060   30.9200   88.9820 C.3   345  LEU345      0.0001
     68  CD2       17.5260   30.6120   90.9850 C.3   345  LEU345      0.0001
     69  N         17.2420   35.5320   95.4140 N.3   348  ALA348     -0.1231
     70  CA        17.8200   34.6070   96.3590 C.3   348  ALA348      0.1694
     71  C         19.3330   34.7990   96.5900 C.2   348  ALA348      0.2591
     72  O         19.8150   34.5830   97.6710 O.2   348  ALA348     -0.2718
     73  CB        17.5470   33.1860   95.9230 C.3   348  ALA348      0.0304
     74  N         20.1110   35.0750   95.5650 N.am  349  LYS349     -0.1980
     75  CA        21.5340   35.3700   95.7730 C.3   349  LYS349      0.1596
     76  C         21.7140   36.6740   96.5710 C.2   349  LYS349      0.2287
     77  O         22.6330   36.7950   97.3820 O.2   349  LYS349     -0.2864
     78  CB        22.2740   35.4710   94.4510 C.3   349  LYS349      0.0298
     79  CG        23.7860   35.3990   94.6350 C.3   349  LYS349      0.0038
     80  CD        24.5670   36.2750   93.6550 C.3   349  LYS349      0.0206
     81  CE        24.8600   35.5490   92.3550 C.3   349  LYS349      0.1093
     82  NZ        26.0630   34.6890   92.4990 N.3   349  LYS349     -0.1314
     83  N         20.9040   35.5990  100.1060 N.3   352  GLU352     -0.1245
     84  CA        22.1170   34.8520  100.5780 C.3   352  GLU352      0.1567
     85  C         23.2760   35.7660  100.9970 C.2   352  GLU352      0.2260
     86  O         23.7160   35.7420  102.1360 O.2   352  GLU352     -0.2867
     87  CB        22.5560   33.8370   99.5210 C.3   352  GLU352      0.0388
     88  CG        23.8580   33.0980   99.7920 C.3   352  GLU352      0.1160
     89  CD        24.4180   32.3950   98.5540 C.2   352  GLU352      0.3649
     90  OE1       24.7670   31.1930   98.6560 O.co2 352  GLU352     -0.2457
     91  OE2       24.4670   33.0310   97.4630 O.co2 352  GLU352     -0.2457
@<TRIPOS>BOND
     1    67    66    1
     2    66    65    1
     3    66    68    1
     4    12    13    1
     5    65    62    1
     6    61    62    1
     7    23    24    2
     8    23    22    1
     9    26    27    1
    10    13    14    1
    11    13    16    1
    12    62    63    1
    13    14    15    2
    14    14    21   am
    15     1     2    1
    16    63    64    2
    17    28    29    2
    18    28    27    1
    19    21    22    1
    20     3     4    2
    21     3     2    1
    22    22    25    1
    23    27    30    1
    24    81    82    1
    25    81    80    1
    26    17    16    1
    27    17    18    1
    28     2     5    1
    29    30    32    1
    30    30    31    1
    31    20    19    1
    32    18    19    1
    33    80    79    1
    34     5     6    1
    35    60    58    1
    36    59    58    1
    37    78    79    1
    38    78    75    1
    39     6     7    1
    40    58    57    1
    41    56    55    2
    42    69    70    1
    43    74    75    1
    44    74    71   am
    45    57    54    1
    46    10     9    1
    47    75    76    1
    48    73    70    1
    49     7     8    1
    50    55    54    1
    51    70    71    1
    52    54    53    1
    53    76    77    2
    54    71    72    2
    55     9     8    2
    56     9    11    1
    57    91    89   ar
    58    52    51    2
    59    50    51    1
    60    50    49    1
    61    89    90   ar
    62    89    88    1
    63    40    38   ar
    64    44    43    2
    65    49    43   am
    66    43    42    1
    67    38    39   ar
    68    38    37    1
    69    87    88    1
    70    87    84    1
    71    45    42    1
    72    45    46    1
    73    37    34    1
    74    36    35    2
    75    47    46    1
    76    83    84    1
    77    42    41    1
    78    84    85    1
    79    48    46    1
    80    34    35    1
    81    34    33    1
    82    85    86    2
