@<TRIPOS>MOLECULE
tmp/5id7A06.pdb
 119 113 0 0 0
SMALL
GASTEIGER

@<TRIPOS>ATOM
      1  N         13.5160   -4.4900   72.2520 N.3     5  VAL5       -0.1245
      2  CA        13.0740   -4.0060   70.9790 C.3     5  VAL5        0.1561
      3  C         11.5630   -4.1810   70.7640 C.2     5  VAL5        0.2260
      4  O         10.9260   -3.3100   70.1710 O.2     5  VAL5       -0.2867
      5  CB        13.9090   -4.5900   69.8370 C.3     5  VAL5        0.0252
      6  CG1       13.6580   -6.0720   69.6630 C.3     5  VAL5        0.0019
      7  CG2       13.6190   -3.8660   68.5440 C.3     5  VAL5        0.0019
      8  N          7.9560    4.4560   65.9700 N.3    17  PHE17      -0.1241
      9  CA         9.1300    3.5980   65.9710 C.3    17  PHE17       0.1605
     10  C         10.0320    3.9660   64.8450 C.2    17  PHE17       0.2264
     11  O         11.2070    4.2910   65.0330 O.2    17  PHE17      -0.2867
     12  CB         8.7610    2.1330   65.8010 C.3    17  PHE17       0.0534
     13  CG         9.8870    1.2000   66.1320 C.ar   17  PHE17      -0.0203
     14  CD1       10.2900    1.0500   67.4370 C.ar   17  PHE17      -0.0042
     15  CD2       10.5490    0.4910   65.1380 C.ar   17  PHE17      -0.0042
     16  CE1       11.3070    0.1940   67.7500 C.ar   17  PHE17      -0.0003
     17  CE2       11.5600   -0.3760   65.4450 C.ar   17  PHE17      -0.0003
     18  CZ        11.9470   -0.5210   66.7520 C.ar   17  PHE17      -0.0000
     19  N         11.5510    7.4820   65.0360 N.3    20  LEU20      -0.1231
     20  CA        12.5950    7.5890   66.0400 C.3    20  LEU20       0.1693
     21  C         13.8540    6.8430   65.6170 C.2    20  LEU20       0.2591
     22  O         14.9750    7.3240   65.7220 O.2    20  LEU20      -0.2718
     23  CB        12.0790    7.0970   67.3810 C.3    20  LEU20       0.0284
     24  CG        11.0430    8.0530   67.9890 C.3    20  LEU20       0.0019
     25  CD1       10.4010    7.4100   69.2240 C.3    20  LEU20       0.0001
     26  CD2       11.5870    9.4130   68.3990 C.3    20  LEU20       0.0001
     27  N         13.6330    5.6960   65.0080 N.am   21  VAL21      -0.1980
     28  CA        14.7620    4.9520   64.4620 C.3    21  VAL21       0.1595
     29  C         15.4280    5.7350   63.3020 C.2    21  VAL21       0.2287
     30  O         16.6560    5.7210   63.1320 O.2    21  VAL21      -0.2864
     31  CB        14.3170    3.5630   63.9800 C.3    21  VAL21       0.0276
     32  CG1       15.4280    2.8350   63.2910 C.3    21  VAL21       0.0022
     33  CG2       13.8950    2.7470   65.1510 C.3    21  VAL21       0.0022
     34  N         17.3290    8.5210   65.0030 N.3    24  ALA24      -0.1231
     35  CA        18.4100    8.0450   65.8200 C.3    24  ALA24       0.1694
     36  C         19.5540    7.7910   64.9100 C.2    24  ALA24       0.2592
     37  O         20.5830    8.4310   65.0270 O.2    24  ALA24      -0.2718
     38  CB        18.0190    6.8070   66.5720 C.3    24  ALA24       0.0304
     39  N         19.3650    6.9340   63.9230 N.am   25  PHE25      -0.1976
     40  CA        20.4010    6.8160   62.8740 C.3    25  PHE25       0.1639
     41  C         20.8430    8.1060   62.1370 C.2    25  PHE25       0.2290
     42  O         22.0040    8.2890   61.7870 O.2    25  PHE25      -0.2864
     43  CB        20.0260    5.7230   61.8850 C.3    25  PHE25       0.0560
     44  CG        20.0550    4.3440   62.4900 C.ar   25  PHE25      -0.0200
     45  CD1       21.2670    3.7340   62.7630 C.ar   25  PHE25      -0.0042
     46  CD2       18.8780    3.6190   62.7140 C.ar   25  PHE25      -0.0042
     47  CE1       21.3480    2.4930   63.2710 C.ar   25  PHE25      -0.0003
     48  CE2       18.9470    2.3510   63.2720 C.ar   25  PHE25      -0.0003
     49  CZ        20.2070    1.8070   63.5620 C.ar   25  PHE25      -0.0000
     50  N         15.3320   -2.5320   60.1830 N.3    44  VAL44      -0.1245
     51  CA        15.0960   -2.5110   61.6120 C.3    44  VAL44       0.1561
     52  C         13.6180   -2.6610   62.0090 C.2    44  VAL44       0.2260
     53  O         13.3250   -3.2550   63.0400 O.2    44  VAL44      -0.2867
     54  CB        15.7540   -1.2830   62.2180 C.3    44  VAL44       0.0252
     55  CG1       15.3910   -1.1200   63.6790 C.3    44  VAL44       0.0019
     56  CG2       17.2490   -1.4160   62.0720 C.3    44  VAL44       0.0019
     57  N         12.7110   -6.4450   61.1910 N.3    47  PHE47      -0.1241
     58  CA        13.3090   -7.1370   62.3360 C.3    47  PHE47       0.1605
     59  C         12.5640   -6.9840   63.6850 C.2    47  PHE47       0.2264
     60  O         12.4190   -7.9390   64.4430 O.2    47  PHE47      -0.2867
     61  CB        14.7930   -6.7670   62.4860 C.3    47  PHE47       0.0534
     62  CG        15.3520   -7.1790   63.8030 C.ar   47  PHE47      -0.0203
     63  CD1       15.5800   -8.5100   64.0820 C.ar   47  PHE47      -0.0042
     64  CD2       15.4590   -6.2690   64.8090 C.ar   47  PHE47      -0.0042
     65  CE1       15.9920   -8.9130   65.3380 C.ar   47  PHE47      -0.0003
     66  CE2       15.8630   -6.6590   66.0520 C.ar   47  PHE47      -0.0003
     67  CZ        16.1710   -7.9760   66.3250 C.ar   47  PHE47      -0.0000
     68  N         18.6490   -3.1970   73.3540 N.3    64  LEU64      -0.1245
     69  CA        18.6410   -2.1400   72.3280 C.3    64  LEU64       0.1561
     70  C         19.9650   -1.5140   71.9760 C.2    64  LEU64       0.2260
     71  O         20.2320   -1.2620   70.8160 O.2    64  LEU64      -0.2867
     72  CB        17.6970   -0.9960   72.6820 C.3    64  LEU64       0.0270
     73  CG        16.2980   -1.1640   72.1240 C.3    64  LEU64       0.0019
     74  CD1       15.5090    0.0450   72.5910 C.3    64  LEU64       0.0001
     75  CD2       16.3060   -1.2150   70.5940 C.3    64  LEU64       0.0001
     76  N         21.7130   -3.9970   69.8110 N.3    67  LEU67      -0.1231
     77  CA        21.0800   -4.0010   68.4940 C.3    67  LEU67       0.1693
     78  C         21.4790   -2.7310   67.6740 C.2    67  LEU67       0.2592
     79  O         21.9400   -2.8360   66.5530 O.2    67  LEU67      -0.2718
     80  CB        19.5620   -4.0870   68.6270 C.3    67  LEU67       0.0284
     81  CG        19.0440   -5.4500   69.0250 C.3    67  LEU67       0.0019
     82  CD1       17.5190   -5.3860   69.2120 C.3    67  LEU67       0.0001
     83  CD2       19.4210   -6.5700   68.0260 C.3    67  LEU67       0.0001
     84  N         21.2180   -1.5650   68.2300 N.am   68  PHE68      -0.1976
     85  CA        21.5950   -0.3540   67.6040 C.3    68  PHE68       0.1639
     86  C         23.0820   -0.3580   67.1990 C.2    68  PHE68       0.2290
     87  O         23.4400   -0.0710   66.0590 O.2    68  PHE68      -0.2864
     88  CB        21.3330    0.7970   68.5770 C.3    68  PHE68       0.0560
     89  CG        21.6790    2.1270   68.0360 C.ar   68  PHE68      -0.0200
     90  CD1       20.8470    2.7170   67.1190 C.ar   68  PHE68      -0.0042
     91  CD2       22.8220    2.7870   68.4600 C.ar   68  PHE68      -0.0042
     92  CE1       21.0920    3.9660   66.6410 C.ar   68  PHE68      -0.0003
     93  CE2       23.0990    4.0680   67.9910 C.ar   68  PHE68      -0.0003
     94  CZ        22.2280    4.6540   67.0550 C.ar   68  PHE68      -0.0000
     95  N         23.9000   -2.7050   64.4670 N.3    71  LYS71      -0.1245
     96  CA        23.4310   -2.1150   63.2220 C.3    71  LYS71       0.1561
     97  C         24.3800   -1.0590   62.6950 C.2    71  LYS71       0.2260
     98  O         24.7250   -1.0580   61.4920 O.2    71  LYS71      -0.2867
     99  CB        22.0200   -1.5980   63.4280 C.3    71  LYS71       0.0271
    100  CG        21.2570   -1.3760   62.2030 C.3    71  LYS71       0.0035
    101  CD        20.9540   -2.6680   61.4970 C.3    71  LYS71       0.0206
    102  CE        21.0950   -2.4440   60.0040 C.3    71  LYS71       0.1093
    103  NZ        20.6140   -3.6390   59.2860 N.3    71  LYS71      -0.1314
    104  N         20.2150    8.6180   73.9880 N.3   248  LEU248     -0.1231
    105  CA        18.7210    8.6190   73.8480 C.3   248  LEU248      0.1693
    106  C         17.9390    7.7690   74.8370 C.2   248  LEU248      0.2591
    107  O         16.9800    8.2480   75.4490 O.2   248  LEU248     -0.2718
    108  CB        18.2870    8.2240   72.4250 C.3   248  LEU248      0.0284
    109  CG        16.7550    8.1310   72.2250 C.3   248  LEU248      0.0019
    110  CD1       16.0670    9.4590   72.5360 C.3   248  LEU248      0.0001
    111  CD2       16.3660    7.6910   70.8240 C.3   248  LEU248      0.0001
    112  N         18.3240    6.5070   74.9820 N.am  249  LEU249     -0.1980
    113  CA        17.4790    5.5480   75.6880 C.3   249  LEU249      0.1596
    114  C         17.5760    5.7290   77.1680 C.2   249  LEU249      0.2287
    115  O         16.5830    5.5750   77.8800 O.2   249  LEU249     -0.2864
    116  CB        17.8380    4.1330   75.3380 C.3   249  LEU249      0.0297
    117  CG        17.6470    3.8540   73.8550 C.3   249  LEU249      0.0022
    118  CD1       18.6040    2.7900   73.3650 C.3   249  LEU249      0.0001
    119  CD2       16.2200    3.4420   73.5790 C.3   249  LEU249      0.0001
@<TRIPOS>BOND
     1   103   102    1
     2   102   101    1
     3    50    51    1
     4    57    58    1
     5    98    97    2
     6   101   100    1
     7    51    52    1
     8    51    54    1
     9    42    41    2
    10    43    44    1
    11    43    40    1
    12    52    53    2
    13    56    54    1
    14    41    40    1
    15   100    99    1
    16    54    55    1
    17    58    61    1
    18    58    59    1
    19    61    62    1
    20    44    46   ar
    21    44    45   ar
    22    97    96    1
    23    46    48   ar
    24    45    47   ar
    25    40    39    1
    26    30    29    2
    27    96    99    1
    28    96    95    1
    29    47    49   ar
    30    48    49   ar
    31    32    31    1
    32    29    28    1
    33    59    60    2
    34    62    63   ar
    35    62    64   ar
    36    39    36   am
    37    31    28    1
    38    31    33    1
    39    63    65   ar
    40    28    27    1
    41    64    66   ar
    42    10    11    2
    43    10     9    1
    44    36    37    2
    45    36    35    1
    46    34    35    1
    47    27    21   am
    48    19    20    1
    49    15    17   ar
    50    15    13   ar
    51    65    67   ar
    52    17    18   ar
    53    21    22    2
    54    21    20    1
    55    12     9    1
    56    12    13    1
    57    35    38    1
    58     8     9    1
    59    20    23    1
    60    66    67   ar
    61    87    86    2
    62    13    14   ar
    63    79    78    2
    64    92    94   ar
    65    92    90   ar
    66    18    16   ar
    67    94    93   ar
    68    90    89   ar
    69    86    85    1
    70    23    24    1
    71    14    16   ar
    72    85    84    1
    73    85    88    1
    74    78    84   am
    75    78    77    1
    76    24    26    1
    77    24    25    1
    78    93    91   ar
    79    83    81    1
    80    89    91   ar
    81    89    88    1
    82    77    80    1
    83    77    76    1
    84     7     5    1
    85    80    81    1
    86    81    82    1
    87     6     5    1
    88     5     2    1
    89     4     3    2
    90    75    73    1
    91     3     2    1
    92    71    70    2
    93   111   109    1
    94     2     1    1
    95    70    69    1
    96    73    74    1
    97    73    72    1
    98   109   108    1
    99   109   110    1
   100    69    72    1
   101    69    68    1
   102   108   105    1
   103   118   117    1
   104   119   117    1
   105   105   104    1
   106   105   106    1
   107   117   116    1
   108   106   112   am
   109   106   107    2
   110   112   113    1
   111   116   113    1
   112   113   114    1
   113   114   115    2
