@<TRIPOS>MOLECULE
tmp/5id9A02.pdb
 117 109 0 0 0
SMALL
GASTEIGER

@<TRIPOS>ATOM
      1  N         43.9620   25.1850   71.1840 N.3   146  TYR146     -0.1241
      2  CA        44.6600   25.5670   72.4520 C.3   146  TYR146      0.1605
      3  C         45.6140   26.6550   71.9580 C.2   146  TYR146      0.2264
      4  O         46.5330   26.3850   71.1960 O.2   146  TYR146     -0.2867
      5  CB        45.3220   24.3140   73.1010 C.3   146  TYR146      0.0534
      6  CG        45.7340   24.3740   74.6040 C.ar  146  TYR146     -0.0201
      7  CD1       45.3190   25.3920   75.4430 C.ar  146  TYR146     -0.0009
      8  CD2       46.4460   23.3510   75.1620 C.ar  146  TYR146     -0.0009
      9  CE1       45.6360   25.4210   76.7900 C.ar  146  TYR146      0.0417
     10  CE2       46.7630   23.3540   76.4930 C.ar  146  TYR146      0.0417
     11  CZ        46.3600   24.4030   77.3080 C.ar  146  TYR146      0.1957
     12  OH        46.6830   24.3970   78.6420 O.3   146  TYR146     -0.2866
     13  N         44.6040   12.5370   84.5560 N.3   215  LEU215     -0.1245
     14  CA        45.7430   12.8960   85.3860 C.3   215  LEU215      0.1561
     15  C         46.1390   11.8330   86.4010 C.2   215  LEU215      0.2260
     16  O         47.2980   11.7630   86.7900 O.2   215  LEU215     -0.2867
     17  CB        45.5320   14.2130   86.1090 C.3   215  LEU215      0.0270
     18  CG        45.4720   15.4940   85.2460 C.3   215  LEU215      0.0019
     19  CD1       45.9270   16.6580   86.0510 C.3   215  LEU215      0.0001
     20  CD2       46.2880   15.4510   83.9790 C.3   215  LEU215      0.0001
     21  N         48.1780    9.2880   84.5640 N.3   218  LYS218     -0.1182
     22  CA        49.4490    9.8690   84.1970 C.3   218  LYS218      0.1909
     23  C         50.3610    9.9700   85.4260 C.2   218  LYS218      0.2634
     24  O         51.5670    9.7300   85.2810 O.2   218  LYS218     -0.2714
     25  CB        49.2510   11.2510   83.4670 C.2   218  LYS218     -0.0028
     26  CG        49.2030   11.1800   81.9050 C.2   218  LYS218     -0.0272
     27  CD        48.7020   12.4380   81.1240 C.3   218  LYS218      0.0462
     28  CE        49.6770   13.6400   81.1130 C.3   218  LYS218      0.1140
     29  NZ        49.1500   15.0860   81.1520 N.3   218  LYS218     -0.1310
     30  N         49.7970   10.2790   86.6160 N.am  219  PHE219     -0.1973
     31  CA        50.5900   10.5890   87.7990 C.3   219  PHE219      0.1639
     32  C         50.1220    9.7170   88.9170 C.2   219  PHE219      0.2290
     33  O         49.7120   10.2230   89.9620 O.2   219  PHE219     -0.2864
     34  CB        50.4880   12.0320   88.2810 C.3   219  PHE219      0.0560
     35  CG        50.7600   13.0770   87.2350 C.ar  219  PHE219     -0.0200
     36  CD1       51.8490   12.9840   86.3830 C.ar  219  PHE219     -0.0042
     37  CD2       49.9370   14.1800   87.1240 C.ar  219  PHE219     -0.0042
     38  CE1       52.0880   13.9610   85.4290 C.ar  219  PHE219     -0.0003
     39  CE2       50.1850   15.1680   86.1920 C.ar  219  PHE219     -0.0003
     40  CZ        51.2490   15.0460   85.3470 C.ar  219  PHE219     -0.0000
     41  N         45.7990   20.1240   90.6810 N.3   230  ILE230     -0.1245
     42  CA        46.1890   20.2670   89.2820 C.3   230  ILE230      0.1561
     43  C         44.9360   20.3460   88.4240 C.2   230  ILE230      0.2260
     44  O         44.8500   21.1920   87.5630 O.2   230  ILE230     -0.2867
     45  CB        47.1120   19.1530   88.8330 C.3   230  ILE230      0.0252
     46  CG1       48.4320   19.3170   89.5530 C.3   230  ILE230      0.0019
     47  CG2       47.3810   19.2020   87.3310 C.3   230  ILE230      0.0019
     48  CD1       49.1820   17.9950   89.6440 C.3   230  ILE230      0.0001
     49  N         44.0290   23.2070   85.9820 N.3   234  LEU234     -0.1245
     50  CA        43.9750   22.9330   84.5340 C.3   234  LEU234      0.1561
     51  C         42.5680   23.1330   83.9860 C.2   234  LEU234      0.2260
     52  O         42.3980   23.6710   82.8840 O.2   234  LEU234     -0.2867
     53  CB        44.4370   21.5390   84.2540 C.3   234  LEU234      0.0270
     54  CG        44.6630   21.0160   82.8640 C.3   234  LEU234      0.0019
     55  CD1       45.6200   21.9650   82.1810 C.3   234  LEU234      0.0001
     56  CD2       45.2650   19.5870   82.8680 C.3   234  LEU234      0.0001
     57  N         41.7920   25.6570   80.8100 N.3   238  HIS238     -0.1241
     58  CA        41.0360   25.3160   79.6040 C.3   238  HIS238      0.1621
     59  C         39.6820   26.0680   79.5870 C.2   238  HIS238      0.2264
     60  O         39.2480   26.4930   78.5540 O.2   238  HIS238     -0.2867
     61  CB        40.8540   23.8020   79.4520 C.3   238  HIS238      0.0745
     62  CG        42.1250   23.0800   79.1260 C.ar  238  HIS238      0.0817
     63  ND1       42.6330   22.9980   77.8460 N.ar  238  HIS238     -0.2268
     64  CD2       43.0140   22.4370   79.9140 C.ar  238  HIS238      0.1154
     65  CE1       43.7570   22.3100   77.8530 C.ar  238  HIS238      0.1986
     66  NE2       44.0170   21.9670   79.1010 N.ar  238  HIS238     -0.2212
     67  N         48.2210   29.0150   82.6470 N.3   253  ARG253     -0.1245
     68  CA        48.9510   27.8730   82.2210 C.3   253  ARG253      0.1563
     69  C         50.4290   27.9900   82.7310 C.2   253  ARG253      0.2260
     70  O         50.9910   27.0240   83.2970 O.2   253  ARG253     -0.2867
     71  CB        48.8400   27.7120   80.7190 C.3   253  ARG253      0.0307
     72  CG        49.4270   26.4080   80.2330 C.3   253  ARG253      0.0489
     73  CD        49.7910   26.3630   78.7380 C.3   253  ARG253      0.2205
     74  NE        49.6830   24.9890   78.1860 N.pl3 253  ARG253     -0.0865
     75  CZ        50.3740   24.5370   77.1230 C.cat 253  ARG253      0.5346
     76  NH1       51.2510   25.3510   76.4780 N.pl3 253  ARG253      0.1354
     77  NH2       50.2090   23.2530   76.7020 N.pl3 253  ARG253      0.1354
     78  N         50.7580   27.1920   86.3910 N.3   256  LEU256     -0.1231
     79  CA        50.5370   25.7560   86.6550 C.3   256  LEU256      0.1693
     80  C         51.7450   24.8640   86.3380 C.2   256  LEU256      0.2591
     81  O         52.1180   23.9670   87.1190 O.2   256  LEU256     -0.2718
     82  CB        49.3890   25.3040   85.8380 C.3   256  LEU256      0.0284
     83  CG        49.1150   23.8340   85.9860 C.3   256  LEU256      0.0019
     84  CD1       48.5670   23.5250   87.3830 C.3   256  LEU256      0.0001
     85  CD2       48.1680   23.4020   84.8800 C.3   256  LEU256      0.0001
     86  N         52.3450   25.0820   85.1740 N.am  257  ALA257     -0.1980
     87  CA        53.5860   24.3630   84.8540 C.3   257  ALA257      0.1597
     88  C         54.6910   24.6680   85.9110 C.2   257  ALA257      0.2287
     89  O         55.4130   23.8050   86.3470 O.2   257  ALA257     -0.2864
     90  CB        54.0330   24.6870   83.4320 C.3   257  ALA257      0.0319
     91  N         53.7740   22.5830   88.9490 N.3   260  ILE260     -0.1245
     92  CA        53.9940   21.1720   88.7250 C.3   260  ILE260      0.1561
     93  C         55.4790   20.8750   88.8310 C.2   260  ILE260      0.2260
     94  O         55.8150   19.8980   89.3940 O.2   260  ILE260     -0.2867
     95  CB        53.3790   20.7450   87.3930 C.3   260  ILE260      0.0252
     96  CG1       51.8890   20.6970   87.5320 C.3   260  ILE260      0.0019
     97  CG2       53.8180   19.3540   86.9440 C.3   260  ILE260      0.0019
     98  CD1       51.1730   20.6680   86.2090 C.3   260  ILE260      0.0001
     99  N         55.6050   23.3000   79.1450 N.3   283  SER283     -0.1217
    100  CA        54.1580   23.1280   79.1680 C.3   283  SER283      0.1889
    101  C         53.7000   22.0410   78.2640 C.2   283  SER283      0.2288
    102  O         52.7950   21.2600   78.6380 O.2   283  SER283     -0.2866
    103  CB        53.4600   24.4050   78.7000 C.3   283  SER283      0.2089
    104  OG        53.6240   25.4510   79.6290 O.3   283  SER283     -0.2183
    105  N         54.7930   18.5360   79.5640 N.3   286  ILE286     -0.1231
    106  CA        53.9510   18.0980   80.7190 C.3   286  ILE286      0.1692
    107  C         52.5910   17.6080   80.2190 C.2   286  ILE286      0.2591
    108  O         52.0040   16.7170   80.7480 O.2   286  ILE286     -0.2718
    109  CB        53.6930   19.2850   81.6940 C.3   286  ILE286      0.0266
    110  CG1       54.9850   19.6550   82.3810 C.3   286  ILE286      0.0019
    111  CG2       52.6080   18.9550   82.7020 C.3   286  ILE286      0.0020
    112  CD1       54.9060   21.0320   82.9520 C.3   286  ILE286      0.0001
    113  N         52.0780   18.2810   79.2040 N.am  287  ALA287     -0.1980
    114  CA        50.7410   18.0120   78.7150 C.3   287  ALA287      0.1597
    115  C         50.6760   16.7020   77.9610 C.2   287  ALA287      0.2287
    116  O         49.6360   16.0430   77.9790 O.2   287  ALA287     -0.2864
    117  CB        50.2250   19.1860   77.8700 C.3   287  ALA287      0.0319
@<TRIPOS>BOND
     1     1     2    1
     2     4     3    2
     3     3     2    1
     4     2     5    1
     5     5     6    1
     6     6     8   ar
     7     6     7   ar
     8     8    10   ar
     9     7     9   ar
    10    76    75    1
    11    10    11   ar
    12    77    75    1
    13     9    11   ar
    14    75    74    2
    15    11    12    1
    16    63    65   ar
    17    63    62   ar
    18    65    66   ar
    19   117   114    1
    20   115   116    2
    21   115   114    1
    22    74    73    1
    23   101   102    2
    24   101   100    1
    25    60    59    2
    26   103   100    1
    27   103   104    1
    28   114   113    1
    29    73    72    1
    30    66    64   ar
    31    62    61    1
    32    62    64   ar
    33    99   100    1
    34   113   107   am
    35    61    58    1
    36   105   106    1
    37    59    58    1
    38    58    57    1
    39   107   106    1
    40   107   108    2
    41    72    71    1
    42   106   109    1
    43    71    68    1
    44    28    27    1
    45    28    29    1
    46    27    26    1
    47   109   110    1
    48   109   111    1
    49    26    25    2
    50    55    54    1
    51    68    67    1
    52    68    69    1
    53   110   112    1
    54    69    70    2
    55    54    56    1
    56    54    53    1
    57    52    51    2
    58    90    87    1
    59    25    22    1
    60    20    18    1
    61    51    50    1
    62    22    21    1
    63    22    23    1
    64    53    50    1
    65    50    49    1
    66    13    14    1
    67    87    86    1
    68    87    88    1
    69    85    83    1
    70    86    80   am
    71    18    19    1
    72    18    17    1
    73    24    23    2
    74    40    38   ar
    75    40    39   ar
    76    14    17    1
    77    14    15    1
    78    23    30   am
    79    38    36   ar
    80    82    83    1
    81    82    79    1
    82    88    89    2
    83    83    84    1
    84    39    37   ar
    85    98    96    1
    86    80    79    1
    87    80    81    2
    88    36    35   ar
    89    78    79    1
    90    15    16    2
    91    30    31    1
    92    97    95    1
    93    37    35   ar
    94    35    34    1
    95    47    45    1
    96    95    96    1
    97    95    92    1
    98    44    43    2
    99    31    34    1
   100    31    32    1
   101    43    42    1
   102    92    93    1
   103    92    91    1
   104    93    94    2
   105    45    42    1
   106    45    46    1
   107    32    33    2
   108    42    41    1
   109    46    48    1
