@<TRIPOS>MOLECULE
tmp/5id9A00.pdb
 164 152 0 0 0
SMALL
GASTEIGER

@<TRIPOS>ATOM
      1  N         28.1670   19.6720   78.5340 N.3   202  PHE202     -0.1241
      2  CA        28.0350   18.9480   79.7830 C.3   202  PHE202      0.1605
      3  C         28.4240   19.6480   81.0530 C.2   202  PHE202      0.2264
      4  O         28.0950   19.1620   82.0930 O.2   202  PHE202     -0.2867
      5  CB        28.8580   17.6930   79.6650 C.3   202  PHE202      0.0534
      6  CG        28.5360   16.8950   78.4310 C.ar  202  PHE202     -0.0203
      7  CD1       27.2660   16.3720   78.2440 C.ar  202  PHE202     -0.0042
      8  CD2       29.4970   16.6560   77.4730 C.ar  202  PHE202     -0.0042
      9  CE1       26.9670   15.6290   77.1260 C.ar  202  PHE202     -0.0003
     10  CE2       29.2020   15.9190   76.3470 C.ar  202  PHE202     -0.0003
     11  CZ        27.9220   15.4340   76.1560 C.ar  202  PHE202     -0.0000
     12  N         31.8790   19.8910   85.6160 N.3   205  ARG205     -0.1231
     13  CA        32.0070   18.6340   86.2910 C.3   205  ARG205      0.1694
     14  C         32.4940   17.5270   85.3790 C.2   205  ARG205      0.2591
     15  O         33.2720   16.6680   85.7750 O.2   205  ARG205     -0.2718
     16  CB        30.6570   18.2160   86.8540 C.3   205  ARG205      0.0321
     17  CG        30.7010   16.9890   87.7660 C.3   205  ARG205      0.0489
     18  CD        29.5320   17.0690   88.7370 C.3   205  ARG205      0.2205
     19  NE        29.3420   15.8770   89.5920 N.pl3 205  ARG205     -0.0865
     20  CZ        28.8410   14.7230   89.1720 C.cat 205  ARG205      0.5346
     21  NH1       28.7060   13.7450   89.9940 N.pl3 205  ARG205      0.1354
     22  NH2       28.5130   14.5590   87.9010 N.pl3 205  ARG205      0.1354
     23  N         31.9780   17.5550   84.1660 N.am  206  ALA206     -0.1980
     24  CA        32.3300   16.6110   83.1820 C.3   206  ALA206      0.1597
     25  C         33.8000   16.7360   82.8330 C.2   206  ALA206      0.2287
     26  O         34.4990   15.7190   82.6610 O.2   206  ALA206     -0.2864
     27  CB        31.4500   16.7910   81.9640 C.3   206  ALA206      0.0319
     28  N         36.1680   18.1400   84.8710 N.3   208  LYS208     -0.1231
     29  CA        36.9390   17.6920   86.0100 C.3   208  LYS208      0.1693
     30  C         37.0090   16.1690   86.1160 C.2   208  LYS208      0.2591
     31  O         38.1170   15.5680   86.3420 O.2   208  LYS208     -0.2718
     32  CB        36.4010   18.2950   87.2610 C.3   208  LYS208      0.0285
     33  CG        36.6200   19.7950   87.3460 C.3   208  LYS208      0.0035
     34  CD        35.8690   20.3870   88.5170 C.3   208  LYS208      0.0206
     35  CE        36.1820   21.8770   88.6880 C.3   208  LYS208      0.1093
     36  NZ        35.9500   22.3350   90.0960 N.3   208  LYS208     -0.1314
     37  N         35.8640   15.5120   85.9320 N.am  209  ALA209     -0.1980
     38  CA        35.8260   14.0660   86.0160 C.3   209  ALA209      0.1597
     39  C         36.7900   13.5330   84.9890 C.2   209  ALA209      0.2287
     40  O         37.7060   12.7590   85.3410 O.2   209  ALA209     -0.2864
     41  CB        34.4510   13.5180   85.7760 C.3   209  ALA209      0.0319
     42  N         40.4020   14.2460   86.1630 N.3   212  VAL212     -0.1245
     43  CA        40.8520   13.4500   87.3000 C.3   212  VAL212      0.1561
     44  C         41.2710   12.0530   86.8240 C.2   212  VAL212      0.2260
     45  O         42.3160   11.4970   87.2400 O.2   212  VAL212     -0.2867
     46  CB        39.7320   13.3490   88.4040 C.3   212  VAL212      0.0252
     47  CG1       40.0520   12.2890   89.4180 C.3   212  VAL212      0.0019
     48  CG2       39.5350   14.6860   89.1150 C.3   212  VAL212      0.0019
     49  N         46.0570   12.5510   96.1720 N.3   224  PHE224     -0.1241
     50  CA        44.8580   13.1450   95.6930 C.3   224  PHE224      0.1605
     51  C         44.8660   14.6860   95.8480 C.2   224  PHE224      0.2264
     52  O         44.3220   15.4090   95.0260 O.2   224  PHE224     -0.2867
     53  CB        43.7020   12.4230   96.3910 C.3   224  PHE224      0.0534
     54  CG        42.3620   12.9870   96.1070 C.ar  224  PHE224     -0.0203
     55  CD1       41.6400   12.5810   94.9980 C.ar  224  PHE224     -0.0042
     56  CD2       41.7910   13.9240   96.9840 C.ar  224  PHE224     -0.0042
     57  CE1       40.3760   13.0980   94.7420 C.ar  224  PHE224     -0.0003
     58  CE2       40.5250   14.4410   96.7350 C.ar  224  PHE224     -0.0003
     59  CZ        39.8160   14.0200   95.6130 C.ar  224  PHE224     -0.0000
     60  N         44.0640   16.7340   92.5550 N.3   228  SER228     -0.1217
     61  CA        42.9200   17.6160   92.7410 C.3   228  SER228      0.1889
     62  C         43.1370   19.0870   92.3770 C.2   228  SER228      0.2288
     63  O         42.3030   19.7390   91.7710 O.2   228  SER228     -0.2866
     64  CB        42.5740   17.6000   94.2370 C.3   228  SER228      0.2089
     65  OG        41.4510   18.4170   94.4190 O.3   228  SER228     -0.2183
     66  N         43.9550   19.5070   88.7590 N.3   231  VAL231     -0.1231
     67  CA        42.7310   19.4020   88.0160 C.3   231  VAL231      0.1692
     68  C         41.9490   20.6720   88.0740 C.2   231  VAL231      0.2592
     69  O         41.4080   21.1390   87.0480 O.2   231  VAL231     -0.2718
     70  CB        41.8390   18.2040   88.5250 C.3   231  VAL231      0.0266
     71  CG1       40.4160   18.3170   87.9990 C.3   231  VAL231      0.0020
     72  CG2       42.4710   16.8570   88.1370 C.3   231  VAL231      0.0020
     73  N         41.8260   21.1960   89.2770 N.am  232  THR232     -0.1953
     74  CA        41.1970   22.5040   89.5270 C.3   232  THR232      0.1897
     75  C         41.8310   23.6280   88.7080 C.2   232  THR232      0.2313
     76  O         41.1240   24.4150   88.0860 O.2   232  THR232     -0.2863
     77  CB        41.3260   22.8820   91.0400 C.3   232  THR232      0.1794
     78  OG1       40.7130   21.8470   91.8380 O.3   232  THR232     -0.2208
     79  CG2       40.6950   24.1820   91.3010 C.3   232  THR232      0.0378
     80  N         30.8460   14.5200   95.6020 N.3   320  ASP320     -0.1225
     81  CA        31.8310   14.6960   94.5700 C.3   320  ASP320      0.1805
     82  C         33.2650   14.5500   95.0380 C.2   320  ASP320      0.2597
     83  O         34.1380   14.1670   94.2350 O.2   320  ASP320     -0.2718
     84  CB        31.6050   16.0030   93.8050 C.3   320  ASP320      0.1424
     85  CG        30.5160   15.8790   92.7530 C.2   320  ASP320      0.3668
     86  OD1       30.0100   14.7660   92.5430 O.co2 320  ASP320     -0.2456
     87  OD2       30.1680   16.8930   92.1350 O.co2 320  ASP320     -0.2456
     88  N         33.5450   14.8090   96.3120 N.am  321  VAL321     -0.1980
     89  CA        34.9280   14.5080   96.8050 C.3   321  VAL321      0.1595
     90  C         35.1490   12.9930   96.9540 C.2   321  VAL321      0.2287
     91  O         36.2030   12.4770   96.6210 O.2   321  VAL321     -0.2864
     92  CB        35.3330   15.3220   98.0920 C.3   321  VAL321      0.0276
     93  CG1       35.7630   14.4260   99.2690 C.3   321  VAL321      0.0022
     94  CG2       36.4420   16.3330   97.7440 C.3   321  VAL321      0.0022
     95  N         33.4490   10.5770   95.3230 N.3   323  LEU323     -0.1231
     96  CA        33.4720    9.9830   93.9990 C.3   323  LEU323      0.1693
     97  C         34.7820   10.2830   93.3480 C.2   323  LEU323      0.2592
     98  O         35.3890    9.3880   92.7450 O.2   323  LEU323     -0.2718
     99  CB        32.3420   10.5390   93.1730 C.3   323  LEU323      0.0284
    100  CG        30.9650   10.0990   93.6160 C.3   323  LEU323      0.0019
    101  CD1       29.9710   10.6580   92.6130 C.3   323  LEU323      0.0001
    102  CD2       30.7530    8.5790   93.6660 C.3   323  LEU323      0.0001
    103  N         35.2240   11.5410   93.4820 N.am  324  GLY324     -0.1957
    104  CA        36.4990   11.9740   92.9350 C.3   324  GLY324      0.1869
    105  C         37.6150   11.0720   93.3650 C.2   324  GLY324      0.2309
    106  O         38.4650   10.6780   92.5520 O.2   324  GLY324     -0.2863
    107  N         37.2450    7.7760   91.8230 N.3   327  LEU327     -0.1245
    108  CA        37.6640    7.8530   90.4710 C.3   327  LEU327      0.1561
    109  C         39.2000    7.8790   90.3710 C.2   327  LEU327      0.2260
    110  O         39.7740    7.2400   89.5180 O.2   327  LEU327     -0.2867
    111  CB        36.9920    9.0730   89.8020 C.3   327  LEU327      0.0270
    112  CG        37.3440    9.3450   88.3340 C.3   327  LEU327      0.0019
    113  CD1       37.0550    8.1260   87.4850 C.3   327  LEU327      0.0001
    114  CD2       36.5730   10.5490   87.8450 C.3   327  LEU327      0.0001
    115  N         35.1020    6.5700   83.2720 N.3   343  LEU343     -0.1245
    116  CA        33.9180    7.3410   83.6660 C.3   343  LEU343      0.1561
    117  C         32.6440    6.5460   83.6530 C.2   343  LEU343      0.2260
    118  O         31.8240    6.7320   84.5370 O.2   343  LEU343     -0.2867
    119  CB        33.7510    8.6220   82.8740 C.3   343  LEU343      0.0270
    120  CG        35.0200    9.4680   82.7900 C.3   343  LEU343      0.0019
    121  CD1       34.8820   10.4020   81.6120 C.3   343  LEU343      0.0001
    122  CD2       35.3030   10.2750   84.0220 C.3   343  LEU343      0.0001
    123  N         32.8400    4.9530   86.9890 N.3   346  ALA346     -0.1231
    124  CA        32.4310    5.8250   88.0430 C.3   346  ALA346      0.1694
    125  C         30.9060    6.1810   88.0160 C.2   346  ALA346      0.2591
    126  O         30.2870    6.2170   89.1210 O.2   346  ALA346     -0.2718
    127  CB        33.2560    7.0860   88.0100 C.3   346  ALA346      0.0304
    128  N         30.2810    6.4420   86.8210 N.am  347  LYS347     -0.1980
    129  CA        28.7860    6.7130   86.8460 C.3   347  LYS347      0.1596
    130  C         28.0590    5.4820   87.4100 C.2   347  LYS347      0.2287
    131  O         27.0080    5.6070   88.0050 O.2   347  LYS347     -0.2864
    132  CB        28.1270    7.1010   85.5090 C.3   347  LYS347      0.0298
    133  CG        28.7610    8.2460   84.7210 C.3   347  LYS347      0.0038
    134  CD        27.7930    9.3370   84.1740 C.3   347  LYS347      0.0206
    135  CE        26.9550    9.0080   82.9350 C.3   347  LYS347      0.1093
    136  NZ        27.5580    7.9670   82.0390 N.3   347  LYS347     -0.1314
    137  N         28.4580    5.5720   91.2150 N.3   350  GLU350     -0.1245
    138  CA        27.5520    6.6190   91.7240 C.3   350  GLU350      0.1567
    139  C         26.1060    6.1460   91.7110 C.2   350  GLU350      0.2260
    140  O         25.4430    6.1670   92.7260 O.2   350  GLU350     -0.2867
    141  CB        27.7170    7.8760   90.8950 C.3   350  GLU350      0.0388
    142  CG        26.7410    8.9850   91.1630 C.3   350  GLU350      0.1160
    143  CD        26.9430   10.1350   90.2130 C.2   350  GLU350      0.3649
    144  OE1       26.9460    9.8930   88.9800 O.co2 350  GLU350     -0.2457
    145  OE2       27.0860   11.2960   90.6880 O.co2 350  GLU350     -0.2457
    146  N         25.4410   12.0000   76.5690 N.3   476  SER476     -0.1202
    147  CA        26.4070   11.9100   77.6550 C.3   476  SER476      0.2020
    148  C         27.7840   11.6260   77.1590 C.2   476  SER476      0.2619
    149  O         27.9540   10.7430   76.3830 O.2   476  SER476     -0.2717
    150  CB        25.9730   10.7730   78.6030 C.3   476  SER476      0.2103
    151  OG        27.0470   10.2320   79.3410 O.3   476  SER476     -0.2182
    152  N         28.7790   12.2890   77.6720 N.am  477  LEU477     -0.1965
    153  CA        30.1280   12.0970   77.1810 C.3   477  LEU477      0.1728
    154  C         30.6550   10.6810   77.3510 C.2   477  LEU477      0.2616
    155  O         31.2090   10.0890   76.4440 O.2   477  LEU477     -0.2715
    156  CB        31.0560   13.0520   77.9100 C.3   477  LEU477      0.0311
    157  CG        32.4750   13.0790   77.3820 C.3   477  LEU477      0.0022
    158  CD1       32.5050   13.7310   75.9990 C.3   477  LEU477      0.0001
    159  CD2       33.3410   13.8200   78.3820 C.3   477  LEU477      0.0001
    160  N         30.4760   10.1200   78.5240 N.am  478  ALA478     -0.1977
    161  CA        30.8400    8.7230   78.7190 C.3   478  ALA478      0.1597
    162  C         30.1190    7.7320   77.8060 C.2   478  ALA478      0.2287
    163  O         30.6760    6.7120   77.4700 O.2   478  ALA478     -0.2864
    164  CB        30.6080    8.3180   80.1480 C.3   478  ALA478      0.0319
@<TRIPOS>BOND
     1   158   157    1
     2    11    10   ar
     3    11     9   ar
     4    10     8   ar
     5   149   148    2
     6   155   154    2
     7   146   147    1
     8     9     7   ar
     9   148   147    1
    10   148   152   am
    11   153   154    1
    12   153   152    1
    13   153   156    1
    14   154   160   am
    15   157   156    1
    16   157   159    1
    17   163   162    2
    18     8     6   ar
    19   147   150    1
    20   162   161    1
    21     7     6   ar
    22     6     5    1
    23   160   161    1
    24     1     2    1
    25   150   151    1
    26   161   164    1
    27     5     2    1
    28     2     3    1
    29     3     4    2
    30   121   120    1
    31    27    24    1
    32   136   135    1
    33    26    25    2
    34   120   119    1
    35   120   122    1
    36    25    24    1
    37   119   116    1
    38   135   134    1
    39    24    23    1
    40   115   116    1
    41   117   116    1
    42   117   118    2
    43    23    14   am
    44   134   133    1
    45   133   132    1
    46    28    29    1
    47    39    40    2
    48    39    38    1
    49    14    15    2
    50    14    13    1
    51   132   129    1
    52    12    13    1
    53    41    38    1
    54    37    38    1
    55    37    30   am
    56    29    30    1
    57    29    32    1
    58    30    31    2
    59    42    43    1
    60    13    16    1
    61   128   129    1
    62   128   125   am
    63    44    45    2
    64    44    43    1
    65   129   130    1
    66    16    17    1
    67   123   124    1
    68    69    68    2
    69    32    33    1
    70    43    46    1
    71    33    34    1
    72   130   131    2
    73   113   112    1
    74    17    18    1
    75   114   112    1
    76    22    20    1
    77    71    70    1
    78   127   124    1
    79   125   124    1
    80   125   126    2
    81    67    68    1
    82    67    70    1
    83    67    66    1
    84    68    73   am
    85    76    75    2
    86    72    70    1
    87   112   111    1
    88    46    48    1
    89    46    47    1
    90    34    35    1
    91    35    36    1
    92    75    74    1
    93    18    19    1
    94   144   143   ar
    95    20    19    2
    96    20    21    1
    97    73    74    1
    98   110   109    2
    99    74    77    1
   100   111   108    1
   101   143   145   ar
   102   143   142    1
   103   109   108    1
   104   108   107    1
   105   141   142    1
   106   141   138    1
   107    77    79    1
   108    77    78    1
   109   137   138    1
   110   139   138    1
   111   139   140    2
   112    63    62    2
   113    87    85   ar
   114    62    61    1
   115    86    85   ar
   116   106   105    2
   117    60    61    1
   118   101   100    1
   119    61    64    1
   120    98    97    2
   121    85    84    1
   122   104   105    1
   123   104   103    1
   124    99   100    1
   125    99    96    1
   126    97   103   am
   127    97    96    1
   128   100   102    1
   129    84    81    1
   130    96    95    1
   131    83    82    2
   132    64    65    1
   133    81    82    1
   134    81    80    1
   135    57    55   ar
   136    57    59   ar
   137    55    54   ar
   138    52    51    2
   139    82    88   am
   140    59    58   ar
   141    50    51    1
   142    50    49    1
   143    50    53    1
   144    54    53    1
   145    54    56   ar
   146    88    89    1
   147    91    90    2
   148    58    56   ar
   149    89    90    1
   150    89    92    1
   151    94    92    1
   152    92    93    1
