@<TRIPOS>MOLECULE
tmp/5idjA00.pdb
 161 153 0 0 0
SMALL
GASTEIGER

@<TRIPOS>ATOM
      1  N        119.1700   45.2290   82.3200 N.3   128  LEU128     -0.1245
      2  CA       120.2240   44.2260   82.3290 C.3   128  LEU128      0.1561
      3  C        120.0710   43.1890   81.2140 C.2   128  LEU128      0.2260
      4  O        121.0650   42.8200   80.5690 O.2   128  LEU128     -0.2867
      5  CB       120.2850   43.5090   83.6800 C.3   128  LEU128      0.0270
      6  CG       120.6390   44.3380   84.9050 C.3   128  LEU128      0.0019
      7  CD1      121.0080   43.4270   86.0530 C.3   128  LEU128      0.0001
      8  CD2      121.7980   45.2680   84.6270 C.3   128  LEU128      0.0001
      9  N        120.6450   44.5780   77.7430 N.3   131  ASN131     -0.1225
     10  CA       122.1090   44.6400   77.6650 C.3   131  ASN131      0.1785
     11  C        122.7690   43.3170   77.3200 C.2   131  ASN131      0.2597
     12  O        123.5780   43.2410   76.4020 O.2   131  ASN131     -0.2718
     13  CB       122.6910   45.1380   78.9820 C.3   131  ASN131      0.1169
     14  CG       122.6860   46.6450   79.0960 C.2   131  ASN131      0.2627
     15  OD1      122.1890   47.3850   78.2280 O.2   131  ASN131     -0.2716
     16  ND2      123.2460   47.1080   80.1900 N.am  131  ASN131     -0.0877
     17  N        122.4180   42.2880   78.0790 N.am  132  ALA132     -0.1979
     18  CA       122.8420   40.9130   77.7900 C.3   132  ALA132      0.1597
     19  C        122.4500   40.4400   76.3870 C.2   132  ALA132      0.2287
     20  O        123.1940   39.6960   75.7690 O.2   132  ALA132     -0.2864
     21  CB       122.2840   39.9490   78.8350 C.3   132  ALA132      0.0319
     22  N        122.1080   42.2980   73.5800 N.3   134  ASP134     -0.1225
     23  CA       122.9100   42.9260   72.5390 C.3   134  ASP134      0.1805
     24  C        124.3390   42.4410   72.6440 C.2   134  ASP134      0.2597
     25  O        125.0160   42.3240   71.6350 O.2   134  ASP134     -0.2718
     26  CB       122.8300   44.4390   72.6350 C.3   134  ASP134      0.1424
     27  CG       121.3900   44.9410   72.6900 C.2   134  ASP134      0.3668
     28  OD1      120.4610   44.1610   72.3730 O.co2 134  ASP134     -0.2456
     29  OD2      121.1850   46.1180   73.0650 O.co2 134  ASP134     -0.2456
     30  N        124.7730   42.1180   73.8600 N.am  135  ALA135     -0.1979
     31  CA       126.1150   41.6060   74.0990 C.3   135  ALA135      0.1597
     32  C        126.3650   40.2430   73.4930 C.2   135  ALA135      0.2287
     33  O        127.5060   39.8420   73.3760 O.2   135  ALA135     -0.2864
     34  CB       126.3880   41.5430   75.5820 C.3   135  ALA135      0.0319
     35  N        125.7790   36.4220   80.9590 N.3   176  ASP176     -0.1239
     36  CA       125.7330   36.2040   79.5130 C.3   176  ASP176      0.1674
     37  C        127.0490   35.6550   78.9670 C.2   176  ASP176      0.2266
     38  O        128.0610   35.5990   79.6690 O.2   176  ASP176     -0.2867
     39  CB       125.3210   37.4850   78.7730 C.3   176  ASP176      0.1410
     40  CG       126.1920   38.6590   79.1240 C.2   176  ASP176      0.3668
     41  OD1      127.3930   38.6370   78.7180 O.co2 176  ASP176     -0.2456
     42  OD2      125.6670   39.5920   79.8050 O.co2 176  ASP176     -0.2456
     43  N        131.1610   39.1510   74.7690 N.3   179  PRO179     -0.2102
     44  CA       132.6060   39.3700   74.7340 C.3   179  PRO179      0.1504
     45  C        133.1720   39.8320   76.0780 C.2   179  PRO179      0.2576
     46  O        134.3980   39.7850   76.2730 O.2   179  PRO179     -0.2718
     47  CB       132.7560   40.4790   73.6930 C.3   179  PRO179      0.0282
     48  CG       131.5030   41.2720   73.8430 C.3   179  PRO179      0.0208
     49  CD       130.4230   40.3020   74.2160 C.3   179  PRO179      0.0893
     50  N        132.2880   40.2820   76.9790 N.am  180  GLY180     -0.1943
     51  CA       132.6860   40.8560   78.2500 C.3   180  GLY180      0.2014
     52  C        133.0840   42.3110   78.1010 C.2   180  GLY180      0.2638
     53  O        133.0720   42.8830   77.0010 O.2   180  GLY180     -0.2714
     54  N        133.4770   42.8820   79.2330 N.am  181  ILE181     -0.1977
     55  CA       133.6790   44.3120   79.3960 C.3   181  ILE181      0.1596
     56  C        135.1720   44.4780   79.7070 C.2   181  ILE181      0.2287
     57  O        135.6560   43.9450   80.7160 O.2   181  ILE181     -0.2864
     58  CB       132.7640   44.8250   80.5370 C.3   181  ILE181      0.0276
     59  CG1      131.2790   44.5480   80.2050 C.3   181  ILE181      0.0022
     60  CG2      132.9210   46.3060   80.7560 C.3   181  ILE181      0.0022
     61  CD1      130.3270   44.5470   81.3870 C.3   181  ILE181      0.0001
     62  N        136.9860   50.1250   80.4330 N.3   185  VAL185     -0.1245
     63  CA       135.6500   50.6860   80.5480 C.3   185  VAL185      0.1561
     64  C        134.9520   50.3430   81.8570 C.2   185  VAL185      0.2260
     65  O        134.1110   51.1100   82.2840 O.2   185  VAL185     -0.2867
     66  CB       134.7460   50.3270   79.3330 C.3   185  VAL185      0.0252
     67  CG1      135.4820   50.5150   78.0100 C.3   185  VAL185      0.0019
     68  CG2      134.2280   48.9240   79.4230 C.3   185  VAL185      0.0019
     69  N        131.0380   52.6620   83.5990 N.3   189  ILE189     -0.1245
     70  CA       130.0050   51.9010   82.8920 C.3   189  ILE189      0.1561
     71  C        128.5870   52.3030   83.3180 C.2   189  ILE189      0.2260
     72  O        127.6720   52.3010   82.5100 O.2   189  ILE189     -0.2867
     73  CB       130.2730   50.3700   82.9950 C.3   189  ILE189      0.0252
     74  CG1      129.8030   49.6930   81.7220 C.3   189  ILE189      0.0019
     75  CG2      129.6380   49.7390   84.2410 C.3   189  ILE189      0.0019
     76  CD1      129.6520   48.1980   81.8330 C.3   189  ILE189      0.0001
     77  N        127.1010   56.9960   79.2240 N.3   194  PHE194     -0.1227
     78  CA       128.3080   56.3670   78.7330 C.3   194  PHE194      0.1736
     79  C        127.9060   55.1660   77.9030 C.2   194  PHE194      0.2596
     80  O        127.1970   54.2910   78.3880 O.2   194  PHE194     -0.2718
     81  CB       129.2580   55.9200   79.8380 C.3   194  PHE194      0.0547
     82  CG       130.4160   55.1320   79.3060 C.ar  194  PHE194     -0.0202
     83  CD1      131.5470   55.7800   78.8430 C.ar  194  PHE194     -0.0042
     84  CD2      130.3330   53.7430   79.1780 C.ar  194  PHE194     -0.0042
     85  CE1      132.6020   55.0590   78.3030 C.ar  194  PHE194     -0.0003
     86  CE2      131.3720   53.0160   78.6310 C.ar  194  PHE194     -0.0003
     87  CZ       132.5130   53.6750   78.1950 C.ar  194  PHE194     -0.0000
     88  N        128.4090   55.1100   76.6730 N.am  195  THR195     -0.1939
     89  CA       128.2430   53.9540   75.8280 C.3   195  THR195      0.2028
     90  C        129.3710   53.7760   74.8130 C.2   195  THR195      0.2643
     91  O        130.0400   54.7320   74.4150 O.2   195  THR195     -0.2714
     92  CB       126.9050   54.0260   75.0850 C.3   195  THR195      0.1808
     93  OG1      126.6910   52.8130   74.3430 O.3   195  THR195     -0.2208
     94  CG2      126.8580   55.2190   74.1500 C.3   195  THR195      0.0379
     95  N        129.5530   52.5210   74.4160 N.am  196  THR196     -0.1936
     96  CA       130.4310   52.1010   73.3240 C.3   196  THR196      0.2028
     97  C        129.6620   51.9570   71.9890 C.2   196  THR196      0.2642
     98  O        130.2610   52.0010   70.9030 O.2   196  THR196     -0.2714
     99  CB       131.0590   50.7370   73.6730 C.3   196  THR196      0.1808
    100  OG1      130.0170   49.7460   73.7710 O.3   196  THR196     -0.2208
    101  CG2      131.8430   50.8130   75.0020 C.3   196  THR196      0.0379
    102  N        128.3430   51.7770   72.0940 N.am  197  LYS197     -0.1977
    103  CA       127.4410   51.6130   70.9500 C.3   197  LYS197      0.1596
    104  C        127.2280   52.9670   70.2140 C.2   197  LYS197      0.2287
    105  O        127.1030   54.0180   70.8610 O.2   197  LYS197     -0.2864
    106  CB       126.1140   51.0150   71.4530 C.3   197  LYS197      0.0298
    107  CG       126.2900   49.6390   72.1040 C.3   197  LYS197      0.0038
    108  CD       125.3920   49.3260   73.3100 C.3   197  LYS197      0.0206
    109  CE       125.5840   47.8420   73.6960 C.3   197  LYS197      0.1093
    110  NZ       124.9570   47.3070   74.9530 N.3   197  LYS197     -0.1314
    111  N        123.2070   53.6090   70.6990 N.3   202  GLY202     -0.1210
    112  CA       123.4150   53.7020   72.1440 C.3   202  GLY202      0.1956
    113  C        122.9910   55.0360   72.7340 C.2   202  GLY202      0.2613
    114  O        123.0470   56.0810   72.0710 O.2   202  GLY202     -0.2717
    115  N        122.5380   54.9930   73.9810 N.am  203  THR203     -0.1938
    116  CA       122.1780   56.2040   74.7310 C.3   203  THR203      0.2028
    117  C        122.9950   56.3810   76.0200 C.2   203  THR203      0.2643
    118  O        123.2340   57.5230   76.4400 O.2   203  THR203     -0.2714
    119  CB       120.6670   56.2110   75.0750 C.3   203  THR203      0.1808
    120  OG1      120.2690   54.9280   75.6090 O.3   203  THR203     -0.2208
    121  CG2      119.8350   56.5480   73.8350 C.3   203  THR203      0.0379
    122  N        123.3900   55.2580   76.6380 N.am  204  GLY204     -0.1939
    123  CA       124.0990   55.2430   77.9090 C.3   204  GLY204      0.2014
    124  C        123.2060   55.4480   79.1150 C.2   204  GLY204      0.2639
    125  O        123.6930   55.7260   80.2080 O.2   204  GLY204     -0.2714
    126  N        121.8970   55.2840   78.9270 N.am  205  LEU205     -0.1963
    127  CA       120.9170   55.4950   79.9780 C.3   205  LEU205      0.1728
    128  C        120.7430   54.2660   80.8550 C.2   205  LEU205      0.2617
    129  O        120.5290   54.4010   82.0480 O.2   205  LEU205     -0.2715
    130  CB       119.5720   55.8180   79.3690 C.3   205  LEU205      0.0311
    131  CG       119.4820   56.9980   78.4030 C.3   205  LEU205      0.0022
    132  CD1      118.2570   56.8790   77.4970 C.3   205  LEU205      0.0001
    133  CD2      119.4280   58.3300   79.1280 C.3   205  LEU205      0.0001
    134  N        120.8330   53.0750   80.2800 N.am  206  GLY206     -0.1940
    135  CA       120.4070   51.8500   80.9670 C.3   206  GLY206      0.2014
    136  C        120.9900   51.5410   82.3320 C.2   206  GLY206      0.2638
    137  O        120.2640   51.2700   83.2760 O.2   206  GLY206     -0.2714
    138  N        122.3120   51.5850   82.4280 N.am  207  LEU207     -0.1977
    139  CA       123.0170   51.1630   83.6430 C.3   207  LEU207      0.1596
    140  C        123.0900   52.2540   84.6950 C.2   207  LEU207      0.2287
    141  O        123.1820   51.9760   85.8890 O.2   207  LEU207     -0.2864
    142  CB       124.4180   50.7290   83.2780 C.3   207  LEU207      0.0297
    143  CG       124.5280   49.4980   82.4210 C.3   207  LEU207      0.0022
    144  CD1      125.9890   49.2590   82.1190 C.3   207  LEU207      0.0001
    145  CD2      123.9490   48.3110   83.1750 C.3   207  LEU207      0.0001
    146  N        129.8540   39.0010   80.1500 N.3   231  ALA231     -0.1245
    147  CA       129.5360   39.8230   81.3200 C.3   231  ALA231      0.1562
    148  C        128.6600   39.0920   82.3540 C.2   231  ALA231      0.2260
    149  O        128.0400   38.0840   82.0350 O.2   231  ALA231     -0.2867
    150  CB       128.8440   41.1030   80.8710 C.3   231  ALA231      0.0290
    151  N        126.2270   40.8060   85.5920 N.3   233  PHE233     -0.1241
    152  CA       125.7980   41.8370   86.5320 C.3   233  PHE233      0.1605
    153  C        125.0260   41.1940   87.6820 C.2   233  PHE233      0.2264
    154  O        124.1150   40.4300   87.4380 O.2   233  PHE233     -0.2867
    155  CB       124.9520   42.8790   85.7930 C.3   233  PHE233      0.0534
    156  CG       125.7190   43.6350   84.7240 C.ar  233  PHE233     -0.0203
    157  CD1      125.8680   43.1100   83.4380 C.ar  233  PHE233     -0.0042
    158  CD2      126.3060   44.8650   85.0010 C.ar  233  PHE233     -0.0042
    159  CE1      126.5840   43.7940   82.4570 C.ar  233  PHE233     -0.0003
    160  CE2      127.0180   45.5500   84.0200 C.ar  233  PHE233     -0.0003
    161  CZ       127.1560   45.0160   82.7450 C.ar  233  PHE233     -0.0000
@<TRIPOS>BOND
     1   104   105    2
     2   104   103    1
     3   111   112    1
     4    98    97    2
     5   103   106    1
     6   103   102    1
     7   106   107    1
     8    25    24    2
     9    97   102   am
    10    97    96    1
    11   114   113    2
    12   107   108    1
    13   112   113    1
    14    28    27   ar
    15    23    26    1
    16    23    24    1
    17    23    22    1
    18    26    27    1
    19    24    30   am
    20    27    29   ar
    21   113   115   am
    22   108   109    1
    23    96    99    1
    24    96    95    1
    25    33    32    2
    26    32    31    1
    27    99   100    1
    28    99   101    1
    29    47    48    1
    30    47    44    1
    31   109   110    1
    32   121   119    1
    33    48    49    1
    34    30    31    1
    35   115   116    1
    36    31    34    1
    37    94    92    1
    38    49    43    1
    39    93    92    1
    40    91    90    2
    41    95    90   am
    42   116   119    1
    43   116   117    1
    44    44    43    1
    45    44    45    1
    46    90    89    1
    47   119   120    1
    48    92    89    1
    49    20    19    2
    50    89    88    1
    51   117   118    2
    52   117   122   am
    53    45    46    2
    54    45    50   am
    55    19    18    1
    56    12    11    2
    57   122   123    1
    58    88    79   am
    59    50    51    1
    60    53    52    2
    61    11    10    1
    62    11    17   am
    63   132   131    1
    64    10     9    1
    65    10    13    1
    66    18    17    1
    67    18    21    1
    68    79    80    2
    69    79    78    1
    70   123   124    1
    71    67    66    1
    72    52    51    1
    73    52    54   am
    74    87    85   ar
    75    87    86   ar
    76    15    14    2
    77    85    83   ar
    78   131   133    1
    79   131   130    1
    80    86    84   ar
    81    41    40   ar
    82    78    77    1
    83    78    81    1
    84    39    40    1
    85    39    36    1
    86    83    82   ar
    87   126   124   am
    88   126   127    1
    89    37    36    1
    90    37    38    2
    91    13    14    1
    92    14    16   am
    93   124   125    2
    94    40    42   ar
    95    84    82   ar
    96    54    55    1
    97    82    81    1
    98    66    68    1
    99    66    63    1
   100   130   127    1
   101    55    56    1
   102    55    58    1
   103    36    35    1
   104    56    57    2
   105   127   128    1
   106   146   147    1
   107    59    58    1
   108    59    61    1
   109   134   128   am
   110   134   135    1
   111    62    63    1
   112    58    60    1
   113    63    64    1
   114     4     3    2
   115   128   129    2
   116   150   147    1
   117   135   136    1
   118     3     2    1
   119   147   148    1
   120    74    76    1
   121    74    73    1
   122    64    65    2
   123   149   148    2
   124   144   143    1
   125     1     2    1
   126     2     5    1
   127   136   138   am
   128   136   137    2
   129   143   145    1
   130   143   142    1
   131   138   139    1
   132   159   161   ar
   133   159   157   ar
   134    72    71    2
   135   161   160   ar
   136    70    73    1
   137    70    71    1
   138    70    69    1
   139    73    75    1
   140   142   139    1
   141   157   156   ar
   142   139   140    1
   143     5     6    1
   144   160   158   ar
   145     8     6    1
   146   140   141    2
   147   156   158   ar
   148   156   155    1
   149     6     7    1
   150   151   152    1
   151   155   152    1
   152   152   153    1
   153   154   153    2
