@<TRIPOS>MOLECULE
tmp/5idkA00.pdb
 155 153 0 0 0
SMALL
GASTEIGER

@<TRIPOS>ATOM
      1  N          7.2690   19.3300   20.4610 N.3    32  ASP32      -0.1225
      2  CA         7.0640   19.0720   21.8640 C.3    32  ASP32       0.1805
      3  C          6.6740   17.5920   22.1940 C.2    32  ASP32       0.2598
      4  O          6.4350   17.2980   23.3560 O.2    32  ASP32      -0.2718
      5  CB         5.9830   19.9560   22.4390 C.3    32  ASP32       0.1424
      6  CG         6.3540   21.4920   22.4070 C.2    32  ASP32       0.3668
      7  OD1        7.4960   21.7630   22.7310 O.co2  32  ASP32      -0.2456
      8  OD2        5.4570   22.2640   22.0080 O.co2  32  ASP32      -0.2456
      9  N          6.6910   16.7330   21.1650 N.am   33  GLY33      -0.1942
     10  CA         6.4190   15.3420   21.3730 C.3    33  GLY33       0.2014
     11  C          4.9240   15.0270   21.3570 C.2    33  GLY33       0.2639
     12  O          4.5170   13.9030   21.7730 O.2    33  GLY33      -0.2714
     13  N          4.0480   15.8900   20.8640 N.am   34  ASN34      -0.1958
     14  CA         2.6090   15.6400   20.8110 C.3    34  ASN34       0.1819
     15  C          2.1950   15.1890   19.4140 C.2    34  ASN34       0.2621
     16  O          2.4870   15.8640   18.4190 O.2    34  ASN34      -0.2715
     17  CB         1.8000   16.9060   21.1860 C.3    34  ASN34       0.1195
     18  CG         2.0920   17.3650   22.5340 C.2    34  ASN34       0.2630
     19  OD1        1.9990   16.6360   23.5130 O.2    34  ASN34      -0.2716
     20  ND2        2.4400   18.6510   22.6390 N.am   34  ASN34      -0.0877
     21  N          1.4290   14.1050   19.3420 N.am   35  PHE35      -0.1974
     22  CA         0.7640   13.7190   18.0970 C.3    35  PHE35       0.1639
     23  C         -0.5630   14.4660   17.8960 C.2    35  PHE35       0.2290
     24  O         -1.3090   14.6860   18.8670 O.2    35  PHE35      -0.2864
     25  CB         0.4240   12.2120   18.1350 C.3    35  PHE35       0.0560
     26  CG         1.6480   11.3060   18.0270 C.ar   35  PHE35      -0.0200
     27  CD1        2.2450   11.1000   16.7860 C.ar   35  PHE35      -0.0042
     28  CD2        2.1350   10.5990   19.0820 C.ar   35  PHE35      -0.0042
     29  CE1        3.3840   10.2840   16.6340 C.ar   35  PHE35      -0.0003
     30  CE2        3.2210    9.7990   18.9780 C.ar   35  PHE35      -0.0003
     31  CZ         3.8100    9.5660   17.7360 C.ar   35  PHE35      -0.0000
     32  N          8.2720   12.4160   29.2930 N.3    86  HIS86      -0.1241
     33  CA         7.2950   13.2440   30.0290 C.3    86  HIS86       0.1621
     34  C          7.0120   12.7160   31.4190 C.2    86  HIS86       0.2264
     35  O          6.3320   13.4450   32.1920 O.2    86  HIS86      -0.2867
     36  CB         6.0030   13.4240   29.1760 C.3    86  HIS86       0.0745
     37  CG         5.0830   12.2490   29.1820 C.ar   86  HIS86       0.0817
     38  ND1        4.8620   11.4430   28.0810 N.ar   86  HIS86      -0.2268
     39  CD2        4.2290   11.8350   30.1130 C.ar   86  HIS86       0.1154
     40  CE1        3.9420   10.5540   28.3760 C.ar   86  HIS86       0.1986
     41  NE2        3.5210   10.7710   29.5970 N.ar   86  HIS86      -0.2212
     42  N         12.8370   15.2200   23.7850 N.3   107  VAL107     -0.1245
     43  CA        11.4770   15.7320   23.9760 C.3   107  VAL107      0.1561
     44  C         10.5460   15.3160   22.8120 C.2   107  VAL107      0.2260
     45  O          9.4020   14.8270   23.0180 O.2   107  VAL107     -0.2867
     46  CB        11.4180   17.2350   24.2320 C.3   107  VAL107      0.0252
     47  CG1       10.0110   17.7310   24.3060 C.3   107  VAL107      0.0019
     48  CG2       12.1240   17.5550   25.5790 C.3   107  VAL107      0.0019
     49  N          9.9030   11.7610   22.8030 N.3   110  ASP110     -0.1239
     50  CA         9.3760   11.4320   24.1450 C.3   110  ASP110      0.1674
     51  C         10.0590   10.2320   24.8240 C.2   110  ASP110      0.2266
     52  O          9.3870    9.3790   25.4150 O.2   110  ASP110     -0.2867
     53  CB         7.8330   11.2710   24.1370 C.3   110  ASP110      0.1410
     54  CG         7.2240   11.3880   25.5040 C.2   110  ASP110      0.3668
     55  OD1        7.8310   12.0220   26.4240 O.co2 110  ASP110     -0.2456
     56  OD2        6.0180   11.0180   25.7110 O.co2 110  ASP110     -0.2456
     57  N         -6.6200    1.6880   26.6790 N.3   164  ASP164     -0.1225
     58  CA        -6.7610    2.8270   27.6010 C.3   164  ASP164      0.1805
     59  C         -6.5920    2.3990   29.0260 C.2   164  ASP164      0.2598
     60  O         -7.2410    1.4650   29.5240 O.2   164  ASP164     -0.2718
     61  CB        -8.1020    3.5860   27.4740 C.3   164  ASP164      0.1424
     62  CG        -8.0790    4.9010   28.3270 C.2   164  ASP164      0.3668
     63  OD1       -7.2440    5.7240   28.0670 O.co2 164  ASP164     -0.2456
     64  OD2       -8.8250    4.9850   29.3580 O.co2 164  ASP164     -0.2456
     65  N         -5.6210    3.0290   29.7100 N.am  165  TYR165     -0.1963
     66  CA        -5.3370    2.8510   31.1020 C.3   165  TYR165      0.1756
     67  C         -5.2320    4.2370   31.7960 C.2   165  TYR165      0.2461
     68  O         -5.1310    5.2440   31.0980 O.2   165  TYR165     -0.2730
     69  CB        -4.0380    2.0210   31.2460 C.3   165  TYR165      0.0574
     70  CG        -4.2770    0.6080   30.8850 C.ar  165  TYR165     -0.0198
     71  CD1       -4.9690   -0.2730   31.7240 C.ar  165  TYR165     -0.0009
     72  CD2       -3.8460    0.1060   29.6960 C.ar  165  TYR165     -0.0009
     73  CE1       -5.3220   -1.5560   31.3190 C.ar  165  TYR165      0.0417
     74  CE2       -4.1230   -1.1840   29.3160 C.ar  165  TYR165      0.0417
     75  CZ        -4.9200   -1.9730   30.0690 C.ar  165  TYR165      0.1957
     76  OH        -5.2580   -3.2800   29.7470 O.3   165  TYR165     -0.2866
     77  N         -5.3220    4.2770   33.1050 N.am  166  PRO166     -0.2716
     78  CA        -5.3180    5.5450   33.7850 C.3   166  PRO166      0.1536
     79  C         -3.9760    6.2590   33.7460 C.2   166  PRO166      0.2599
     80  O         -2.8690    5.6540   33.5420 O.2   166  PRO166     -0.2715
     81  CB        -5.5560    5.1190   35.2340 C.3   166  PRO166      0.0310
     82  CG        -6.2300    3.8420   35.2310 C.3   166  PRO166      0.0237
     83  CD        -5.6650    3.1510   33.9860 C.3   166  PRO166      0.0939
     84  N         -3.9970    7.5940   33.9110 N.am  167  THR167     -0.1937
     85  CA        -2.8280    8.3650   34.1540 C.3   167  THR167      0.2028
     86  C         -1.8900    7.7000   35.1780 C.2   167  THR167      0.2642
     87  O         -2.3710    7.2440   36.2180 O.2   167  THR167     -0.2714
     88  CB        -3.2430    9.7590   34.6990 C.3   167  THR167      0.1808
     89  OG1       -4.2530   10.3440   33.8670 O.3   167  THR167     -0.2208
     90  CG2       -2.0580   10.6030   34.7800 C.3   167  THR167      0.0379
     91  N         -0.6000    7.6530   34.9070 N.am  168  GLY168     -0.1954
     92  CA         0.4040    7.0180   35.7120 C.3   168  GLY168      0.1869
     93  C          0.8900    5.6670   35.1770 C.2   168  GLY168      0.2309
     94  O          1.9430    5.1600   35.5650 O.2   168  GLY168     -0.2863
     95  N          1.8570    5.3990   32.0030 N.3   170  SER170     -0.1217
     96  CA         2.8690    5.7630   30.9700 C.3   170  SER170      0.1889
     97  C          4.2220    5.2700   31.2700 C.2   170  SER170      0.2288
     98  O          4.7190    5.4170   32.4030 O.2   170  SER170     -0.2866
     99  CB         2.9590    7.2750   30.7530 C.3   170  SER170      0.2089
    100  OG         1.7220    7.6960   30.3110 O.3   170  SER170     -0.2183
    101  N          4.4750    2.3810   26.3320 N.3   185  TYR185     -0.1227
    102  CA         3.1400    2.9260   26.2730 C.3   185  TYR185      0.1736
    103  C          2.9620    4.3320   26.8050 C.2   185  TYR185      0.2596
    104  O          3.6080    4.6870   27.8310 O.2   185  TYR185     -0.2718
    105  CB         2.2110    2.0340   27.0540 C.3   185  TYR185      0.0548
    106  CG         0.7550    2.4930   27.1750 C.ar  185  TYR185     -0.0200
    107  CD1       -0.1680    2.1690   26.2260 C.ar  185  TYR185     -0.0009
    108  CD2        0.3360    3.2270   28.3080 C.ar  185  TYR185     -0.0009
    109  CE1       -1.4890    2.5460   26.3420 C.ar  185  TYR185      0.0417
    110  CE2       -0.9960    3.5810   28.4800 C.ar  185  TYR185      0.0417
    111  CZ        -1.8920    3.2490   27.4840 C.ar  185  TYR185      0.1957
    112  OH        -3.2490    3.5940   27.6570 O.3   185  TYR185     -0.2866
    113  N          2.1000    5.1540   26.1960 N.am  186  GLY186     -0.1942
    114  CA         1.5670    6.3710   26.8610 C.3   186  GLY186      0.2014
    115  C          1.7570    7.6630   26.1590 C.2   186  GLY186      0.2639
    116  O          1.7340    8.7090   26.8220 O.2   186  GLY186     -0.2714
    117  N          1.8820    7.6840   24.8150 N.am  187  ASN187     -0.1958
    118  CA         1.9440    8.9430   24.0200 C.3   187  ASN187      0.1819
    119  C          1.1740    8.6920   22.7040 C.2   187  ASN187      0.2622
    120  O          1.5880    7.7990   21.9140 O.2   187  ASN187     -0.2715
    121  CB         3.3630    9.3120   23.7190 C.3   187  ASN187      0.1195
    122  CG         3.4490   10.6250   22.9740 C.2   187  ASN187      0.2630
    123  OD1        2.4950   11.0180   22.3790 O.2   187  ASN187     -0.2716
    124  ND2        4.5170   11.3620   23.1680 N.am  187  ASN187     -0.0877
    125  N          0.0010    9.2940   22.5540 N.am  188  GLY188     -0.1940
    126  CA        -0.8460    8.9900   21.4230 C.3   188  GLY188      0.2014
    127  C         -1.8030   10.0830   21.0300 C.2   188  GLY188      0.2639
    128  O         -1.4820   11.2820   21.0630 O.2   188  GLY188     -0.2714
    129  N         -2.9790    9.6400   20.6830 N.am  189  VAL189     -0.1963
    130  CA        -4.0970   10.5080   20.2530 C.3   189  VAL189      0.1727
    131  C         -5.4200   10.0090   20.7910 C.2   189  VAL189      0.2616
    132  O         -5.5790    8.8250   21.1540 O.2   189  VAL189     -0.2715
    133  CB        -4.2460   10.6230   18.7240 C.3   189  VAL189      0.0290
    134  CG1       -3.0280   11.2150   18.1220 C.3   189  VAL189      0.0023
    135  CG2       -4.6530    9.3140   18.0900 C.3   189  VAL189      0.0023
    136  N         -6.3950   10.9040   20.8410 N.am  190  ILE190     -0.1977
    137  CA        -7.8130   10.5810   21.1680 C.3   190  ILE190      0.1596
    138  C         -8.6100   10.7260   19.8970 C.2   190  ILE190      0.2287
    139  O         -8.5880   11.7940   19.2160 O.2   190  ILE190     -0.2864
    140  CB        -8.3470   11.5040   22.2700 C.3   190  ILE190      0.0276
    141  CG1       -7.6060   11.2520   23.6160 C.3   190  ILE190      0.0022
    142  CG2       -9.8820   11.2580   22.4620 C.3   190  ILE190      0.0022
    143  CD1       -8.0820   10.1110   24.3950 C.3   190  ILE190      0.0001
    144  N         -8.7000    5.9940   22.9310 N.3   196  TYR196     -0.1241
    145  CA        -7.3000    6.3870   23.0930 C.3   196  TYR196      0.1605
    146  C         -6.4400    5.3670   22.3480 C.2   196  TYR196      0.2264
    147  O         -6.6220    4.1430   22.5000 O.2   196  TYR196     -0.2867
    148  CB        -6.8680    6.4370   24.5540 C.3   196  TYR196      0.0534
    149  CG        -5.3690    6.8200   24.7270 C.ar  196  TYR196     -0.0201
    150  CD1       -4.9200    8.1040   24.4560 C.ar  196  TYR196     -0.0009
    151  CD2       -4.4620    5.9530   25.2410 C.ar  196  TYR196     -0.0009
    152  CE1       -3.5900    8.4950   24.6220 C.ar  196  TYR196      0.0417
    153  CE2       -3.1540    6.3010   25.4070 C.ar  196  TYR196      0.0417
    154  CZ        -2.7090    7.5800   25.1670 C.ar  196  TYR196      0.1957
    155  OH        -1.3560    7.9500   25.3910 O.3   196  TYR196     -0.2866
@<TRIPOS>BOND
     1    29    27   ar
     2    29    31   ar
     3    27    26   ar
     4    31    30   ar
     5    23    22    1
     6    23    24    2
     7    26    25    1
     8    26    28   ar
     9   135   133    1
    10    22    25    1
    11    22    21    1
    12   134   133    1
    13    16    15    2
    14   133   130    1
    15    30    28   ar
    16   139   138    2
    17    21    15   am
    18    15    14    1
    19   138   137    1
    20   130   129    1
    21   130   131    1
    22     1     2    1
    23   129   127   am
    24   131   136   am
    25   131   132    2
    26    14    13    1
    27    14    17    1
    28   136   137    1
    29    13    11   am
    30   127   128    2
    31   127   126    1
    32     9    10    1
    33     9     3   am
    34   137   140    1
    35    17    18    1
    36    11    10    1
    37    11    12    2
    38   126   125    1
    39     2     3    1
    40     2     5    1
    41   120   119    2
    42     8     6   ar
    43     3     4    2
    44   140   142    1
    45   140   141    1
    46   146   147    2
    47   146   145    1
    48   123   122    2
    49     6     5    1
    50     6     7   ar
    51    18    20   am
    52    18    19    2
    53   125   119   am
    54   119   118    1
    55    49    50    1
    56    44    45    2
    57    44    43    1
    58   144   145    1
    59   122   124   am
    60   122   121    1
    61   145   148    1
    62   141   143    1
    63   121   118    1
    64    42    43    1
    65    43    46    1
    66   118   117    1
    67    53    50    1
    68    53    54    1
    69    50    51    1
    70    46    47    1
    71    46    48    1
    72   150   152   ar
    73   150   149   ar
    74   148   149    1
    75   152   154   ar
    76   149   151   ar
    77   117   115   am
    78    51    52    2
    79   154   155    1
    80   154   153   ar
    81   151   153   ar
    82    54    56   ar
    83    54    55   ar
    84   115   116    2
    85   115   114    1
    86   113   103   am
    87   113   114    1
    88   107   109   ar
    89   107   106   ar
    90   102   101    1
    91   102   103    1
    92   102   105    1
    93   109   111   ar
    94    57    58    1
    95   103   104    2
    96   105   106    1
    97   106   108   ar
    98    61    58    1
    99    61    62    1
   100   111   112    1
   101   111   110   ar
   102    58    59    1
   103    63    62   ar
   104    38    40   ar
   105    38    37   ar
   106   108   110   ar
   107    62    64   ar
   108    40    41   ar
   109    59    60    2
   110    59    65   am
   111    36    37    1
   112    36    33    1
   113    37    39   ar
   114    32    33    1
   115    74    72   ar
   116    74    75   ar
   117    41    39   ar
   118    72    70   ar
   119    65    66    1
   120    76    75    1
   121    33    34    1
   122    75    73   ar
   123   100    99    1
   124    99    96    1
   125    70    69    1
   126    70    71   ar
   127    96    97    1
   128    96    95    1
   129    68    67    2
   130    66    69    1
   131    66    67    1
   132    97    98    2
   133    73    71   ar
   134    34    35    2
   135    67    77   am
   136    77    78    1
   137    77    83    1
   138    80    79    2
   139    79    78    1
   140    79    84   am
   141    78    81    1
   142    89    88    1
   143    84    85    1
   144    83    82    1
   145    85    88    1
   146    85    86    1
   147    88    90    1
   148    91    86   am
   149    91    92    1
   150    93    94    2
   151    93    92    1
   152    86    87    2
   153    82    81    1
