@<TRIPOS>MOLECULE
tmp/5idmB01.pdb
 197 189 0 0 0
SMALL
GASTEIGER

@<TRIPOS>ATOM
      1  N         -8.0450  -18.8970  -47.9400 N.3    52  LEU52      -0.1245
      2  CA        -6.6770  -18.5270  -48.2910 C.3    52  LEU52       0.1561
      3  C         -5.9540  -19.6810  -48.9900 C.2    52  LEU52       0.2260
      4  O         -5.3150  -19.4830  -50.0140 O.2    52  LEU52      -0.2867
      5  CB        -5.9070  -18.0900  -47.0490 C.3    52  LEU52       0.0270
      6  CG        -6.3930  -16.8050  -46.3800 C.3    52  LEU52       0.0019
      7  CD1       -5.6270  -16.5920  -45.0820 C.3    52  LEU52       0.0001
      8  CD2       -6.2490  -15.5970  -47.3110 C.3    52  LEU52       0.0001
      9  N         -7.1960  -22.2760  -50.6880 N.3    54  VAL54      -0.1231
     10  CA        -7.7160  -22.4890  -52.0290 C.3    54  VAL54       0.1692
     11  C         -7.2390  -21.4030  -53.0160 C.2    54  VAL54       0.2592
     12  O         -6.9310  -21.7160  -54.1680 O.2    54  VAL54      -0.2718
     13  CB        -9.2550  -22.6440  -52.0000 C.3    54  VAL54       0.0266
     14  CG1       -9.8520  -22.5750  -53.3910 C.3    54  VAL54       0.0020
     15  CG2       -9.6180  -23.9630  -51.3370 C.3    54  VAL54       0.0020
     16  N         -7.1650  -20.1480  -52.5650 N.am   55  ASN55      -0.1960
     17  CA        -6.5850  -19.0750  -53.3790 C.3    55  ASN55       0.1819
     18  C         -5.1420  -19.3650  -53.7600 C.2    55  ASN55       0.2621
     19  O         -4.7520  -19.1330  -54.9060 O.2    55  ASN55      -0.2715
     20  CB        -6.6420  -17.7230  -52.6540 C.3    55  ASN55       0.1195
     21  CG        -8.0190  -17.1070  -52.6650 C.2    55  ASN55       0.2630
     22  OD1       -8.8820  -17.5090  -53.4370 O.2    55  ASN55      -0.2716
     23  ND2       -8.2380  -16.1300  -51.8060 N.am   55  ASN55      -0.0877
     24  N         -4.3680  -19.8730  -52.8030 N.am   56  ALA56      -0.1977
     25  CA        -2.9800  -20.2700  -53.0480 C.3    56  ALA56       0.1597
     26  C         -2.9300  -21.3830  -54.0940 C.2    56  ALA56       0.2287
     27  O         -2.1310  -21.3300  -55.0210 O.2    56  ALA56      -0.2864
     28  CB        -2.3040  -20.7050  -51.7540 C.3    56  ALA56       0.0319
     29  N         -5.2800  -22.0720  -56.4080 N.3    58  ASP58      -0.1225
     30  CA        -5.6730  -21.4390  -57.6740 C.3    58  ASP58       0.1805
     31  C         -4.4930  -20.6910  -58.3250 C.2    58  ASP58       0.2597
     32  O         -4.2160  -20.8720  -59.5200 O.2    58  ASP58      -0.2718
     33  CB        -6.8170  -20.4480  -57.4590 C.3    58  ASP58       0.1424
     34  CG        -8.1190  -21.1140  -57.0280 C.2    58  ASP58       0.3668
     35  OD1       -8.2190  -22.3510  -57.0390 O.co2  58  ASP58      -0.2456
     36  OD2       -9.0430  -20.3710  -56.6340 O.co2  58  ASP58      -0.2456
     37  N         -3.7760  -19.9120  -57.5140 N.am   59  ALA59      -0.1979
     38  CA        -2.6200  -19.1450  -57.9610 C.3    59  ALA59       0.1597
     39  C         -1.4990  -20.0170  -58.5450 C.2    59  ALA59       0.2287
     40  O         -0.9130  -19.6650  -59.5540 O.2    59  ALA59      -0.2864
     41  CB        -2.0670  -18.3000  -56.8140 C.3    59  ALA59       0.0319
     42  N          2.5050  -18.7450  -50.6650 N.3   100  ASP100     -0.1239
     43  CA         2.6950  -19.5760  -51.8630 C.3   100  ASP100      0.1674
     44  C          3.8320  -19.0530  -52.7060 C.2   100  ASP100      0.2266
     45  O          4.2450  -17.9080  -52.5510 O.2   100  ASP100     -0.2867
     46  CB         1.3920  -19.7200  -52.6920 C.3   100  ASP100      0.1410
     47  CG         0.9160  -18.4070  -53.3120 C.2   100  ASP100      0.3668
     48  OD1        1.5850  -17.8980  -54.2360 O.co2 100  ASP100     -0.2456
     49  OD2       -0.1720  -17.9110  -52.9410 O.co2 100  ASP100     -0.2456
     50  N          2.4620  -16.7200  -58.9350 N.3   103  PRO103     -0.2102
     51  CA         2.7990  -15.4970  -59.6630 C.3   103  PRO103      0.1504
     52  C          2.6280  -14.2090  -58.8710 C.2   103  PRO103      0.2576
     53  O          3.0700  -13.1620  -59.3400 O.2   103  PRO103     -0.2718
     54  CB         1.8430  -15.5110  -60.8580 C.3   103  PRO103      0.0282
     55  CG         0.6870  -16.3160  -60.4180 C.3   103  PRO103      0.0208
     56  CD         1.2120  -17.3230  -59.4320 C.3   103  PRO103      0.0893
     57  N          2.0250  -14.2620  -57.6820 N.am  104  GLY104     -0.1943
     58  CA         1.8400  -13.0720  -56.8790 C.3   104  GLY104      0.2014
     59  C          0.6600  -12.2760  -57.3720 C.2   104  GLY104      0.2639
     60  O         -0.0110  -12.6530  -58.3280 O.2   104  GLY104     -0.2714
     61  N          0.4260  -11.1570  -56.7150 N.am  105  ILE105     -0.1963
     62  CA        -0.7300  -10.3390  -56.9910 C.3   105  ILE105      0.1712
     63  C         -0.2390   -9.1300  -57.7720 C.2   105  ILE105      0.2458
     64  O          0.5750   -8.3700  -57.2560 O.2   105  ILE105     -0.2730
     65  CB        -1.4050   -9.9310  -55.6740 C.3   105  ILE105      0.0289
     66  CG1       -1.9280  -11.1870  -54.9670 C.3   105  ILE105      0.0022
     67  CG2       -2.5240   -8.9340  -55.9250 C.3   105  ILE105      0.0023
     68  CD1       -2.3090  -10.9800  -53.5230 C.3   105  ILE105      0.0001
     69  N         -0.7280   -8.9440  -59.0130 N.am  106  PRO106     -0.2727
     70  CA        -0.3400   -7.7230  -59.7360 C.3   106  PRO106      0.1402
     71  C         -0.6770   -6.4450  -58.9510 C.2   106  PRO106      0.2269
     72  O         -1.7500   -6.3740  -58.3250 O.2   106  PRO106     -0.2865
     73  CB        -1.1520   -7.8010  -61.0300 C.3   106  PRO106      0.0296
     74  CG        -1.4330   -9.2540  -61.2200 C.3   106  PRO106      0.0237
     75  CD        -1.6110   -9.7990  -59.8290 C.3   106  PRO106      0.0939
     76  N         -4.1110   -4.9370  -59.2280 N.3   109  VAL109     -0.1245
     77  CA        -5.2240   -5.7020  -58.6520 C.3   109  VAL109      0.1561
     78  C         -5.2130   -5.6620  -57.1040 C.2   109  VAL109      0.2260
     79  O         -6.2660   -5.7990  -56.4800 O.2   109  VAL109     -0.2867
     80  CB        -5.3440   -7.1360  -59.2570 C.3   109  VAL109      0.0252
     81  CG1       -4.8700   -7.2220  -60.7160 C.3   109  VAL109      0.0019
     82  CG2       -4.6200   -8.1490  -58.4190 C.3   109  VAL109      0.0019
     83  N         -8.5630   -6.6540  -53.9410 N.3   113  ILE113     -0.1245
     84  CA        -8.7310   -8.0900  -53.6660 C.3   113  ILE113      0.1561
     85  C         -9.7350   -8.4160  -52.5610 C.2   113  ILE113      0.2260
     86  O        -10.3400   -9.4690  -52.5990 O.2   113  ILE113     -0.2867
     87  CB        -7.3950   -8.8390  -53.4180 C.3   113  ILE113      0.0252
     88  CG1       -6.6570   -8.3140  -52.1710 C.3   113  ILE113      0.0019
     89  CG2       -6.5350   -8.7950  -54.6780 C.3   113  ILE113      0.0019
     90  CD1       -5.4440   -9.1370  -51.7710 C.3   113  ILE113      0.0001
     91  N        -12.4940   -6.6440  -51.9490 N.3   115  ASP115     -0.1239
     92  CA       -13.8140   -6.1300  -52.3370 C.3   115  ASP115      0.1674
     93  C        -14.7740   -7.2840  -52.6100 C.2   115  ASP115      0.2266
     94  O        -14.4130   -8.2150  -53.3360 O.2   115  ASP115     -0.2867
     95  CB       -13.7380   -5.3080  -53.6230 C.3   115  ASP115      0.1410
     96  CG       -13.0050   -3.9910  -53.4660 C.2   115  ASP115      0.3668
     97  OD1      -12.5740   -3.6130  -52.3540 O.co2 115  ASP115     -0.2456
     98  OD2      -12.8560   -3.3130  -54.4920 O.co2 115  ASP115     -0.2456
     99  N        -14.9790   -9.0170  -56.2680 N.3   118  PHE118     -0.1227
    100  CA       -13.8210   -8.8300  -57.1190 C.3   118  PHE118      0.1736
    101  C        -13.1300  -10.1550  -57.3800 C.2   118  PHE118      0.2596
    102  O        -12.8310  -10.9150  -56.4550 O.2   118  PHE118     -0.2718
    103  CB       -12.7920   -7.8480  -56.5660 C.3   118  PHE118      0.0547
    104  CG       -11.6210   -7.6850  -57.4860 C.ar  118  PHE118     -0.0202
    105  CD1      -11.7440   -6.9360  -58.6500 C.ar  118  PHE118     -0.0042
    106  CD2      -10.4320   -8.3590  -57.2470 C.ar  118  PHE118     -0.0042
    107  CE1      -10.6800   -6.8160  -59.5360 C.ar  118  PHE118     -0.0003
    108  CE2       -9.3670   -8.2370  -58.1240 C.ar  118  PHE118     -0.0003
    109  CZ        -9.4920   -7.4670  -59.2630 C.ar  118  PHE118     -0.0000
    110  N        -12.8490  -10.4150  -58.6480 N.am  119  THR119     -0.1939
    111  CA       -12.1410  -11.6190  -59.0260 C.3   119  THR119      0.2028
    112  C        -11.3610  -11.3770  -60.3180 C.2   119  THR119      0.2643
    113  O        -11.7530  -10.5410  -61.1300 O.2   119  THR119     -0.2714
    114  CB       -13.1310  -12.8060  -59.1850 C.3   119  THR119      0.1808
    115  OG1      -12.4150  -14.0210  -59.4120 O.3   119  THR119     -0.2208
    116  CG2      -14.1110  -12.5660  -60.3250 C.3   119  THR119      0.0379
    117  N        -10.2500  -12.0940  -60.4770 N.am  120  THR120     -0.1936
    118  CA        -9.5470  -12.1760  -61.7590 C.3   120  THR120      0.2028
    119  C         -9.8240  -13.5140  -62.4470 C.2   120  THR120      0.2642
    120  O         -9.2750  -13.7810  -63.5180 O.2   120  THR120     -0.2714
    121  CB        -8.0220  -12.0260  -61.5740 C.3   120  THR120      0.1808
    122  OG1       -7.5540  -13.0030  -60.6340 O.3   120  THR120     -0.2208
    123  CG2       -7.6960  -10.6520  -61.0790 C.3   120  THR120      0.0379
    124  N        -10.6800  -14.3440  -61.8500 N.am  121  LYS121     -0.1977
    125  CA       -10.9360  -15.6880  -62.3450 C.3   121  LYS121      0.1596
    126  C        -12.1030  -15.6280  -63.3290 C.2   121  LYS121      0.2287
    127  O        -12.8760  -14.6780  -63.3120 O.2   121  LYS121     -0.2864
    128  CB       -11.2390  -16.6480  -61.1860 C.3   121  LYS121      0.0298
    129  CG       -10.1370  -16.5890  -60.1220 C.3   121  LYS121      0.0038
    130  CD        -9.9360  -17.7280  -59.1290 C.3   121  LYS121      0.0206
    131  CE        -8.7060  -17.4310  -58.2410 C.3   121  LYS121      0.1093
    132  NZ        -8.8320  -17.7730  -56.7920 N.3   121  LYS121     -0.1314
    133  N        -15.8910  -19.9480  -62.0860 N.3   125  GLU125     -0.1231
    134  CA       -15.0540  -20.5500  -61.0190 C.3   125  GLU125      0.1699
    135  C        -15.4720  -20.3350  -59.5740 C.2   125  GLU125      0.2593
    136  O        -15.2270  -21.1950  -58.7260 O.2   125  GLU125     -0.2718
    137  CB       -13.5660  -20.2530  -61.2470 C.3   125  GLU125      0.0402
    138  CG       -13.0390  -21.2640  -62.2480 C.3   125  GLU125      0.1161
    139  CD       -11.6030  -21.0370  -62.6590 C.2   125  GLU125      0.3649
    140  OE1      -10.8530  -20.3920  -61.8970 O.co2 125  GLU125     -0.2457
    141  OE2      -11.2310  -21.5220  -63.7510 O.co2 125  GLU125     -0.2457
    142  N        -16.1000  -19.2150  -59.2840 N.am  126  GLY126     -0.1942
    143  CA       -16.4900  -18.9360  -57.8950 C.3   126  GLY126      0.2014
    144  C        -17.4330  -17.7580  -57.8430 C.2   126  GLY126      0.2640
    145  O        -18.1690  -17.5190  -58.8000 O.2   126  GLY126     -0.2714
    146  N        -17.4260  -17.0310  -56.7290 N.am  127  THR127     -0.1936
    147  CA       -18.2750  -15.8410  -56.5480 C.3   127  THR127      0.2028
    148  C        -17.4830  -14.5270  -56.4150 C.2   127  THR127      0.2643
    149  O        -18.0220  -13.4510  -56.6540 O.2   127  THR127     -0.2714
    150  CB       -19.1710  -16.0110  -55.3130 C.3   127  THR127      0.1808
    151  OG1      -18.3520  -16.2100  -54.1470 O.3   127  THR127     -0.2208
    152  CG2      -20.0820  -17.2210  -55.5020 C.3   127  THR127      0.0379
    153  N        -16.2080  -14.6160  -56.0320 N.am  128  GLY128     -0.1939
    154  CA       -15.4050  -13.4410  -55.7020 C.3   128  GLY128      0.2014
    155  C        -15.6230  -12.9160  -54.2850 C.2   128  GLY128      0.2639
    156  O        -15.3070  -11.7640  -54.0040 O.2   128  GLY128     -0.2714
    157  N        -16.1630  -13.7450  -53.3900 N.am  129  LEU129     -0.1963
    158  CA       -16.3240  -13.3700  -51.9810 C.3   129  LEU129      0.1728
    159  C        -15.2790  -13.9450  -51.0270 C.2   129  LEU129      0.2617
    160  O        -15.2520  -13.5400  -49.8600 O.2   129  LEU129     -0.2715
    161  CB       -17.7170  -13.7650  -51.4730 C.3   129  LEU129      0.0311
    162  CG       -18.8980  -13.0240  -52.1110 C.3   129  LEU129      0.0022
    163  CD1      -20.2040  -13.6410  -51.6350 C.3   129  LEU129      0.0001
    164  CD2      -18.8730  -11.5500  -51.7750 C.3   129  LEU129      0.0001
    165  N        -14.4310  -14.8610  -51.4920 N.am  130  GLY130     -0.1940
    166  CA       -13.4740  -15.5550  -50.6000 C.3   130  GLY130      0.2014
    167  C        -12.7270  -14.6290  -49.6420 C.2   130  GLY130      0.2639
    168  O        -12.7320  -14.8320  -48.4330 O.2   130  GLY130     -0.2714
    169  N        -12.1150  -13.5820  -50.1820 N.am  131  LEU131     -0.1963
    170  CA       -11.3130  -12.6690  -49.3700 C.3   131  LEU131      0.1728
    171  C        -12.1600  -11.6620  -48.5870 C.2   131  LEU131      0.2616
    172  O        -11.7290  -11.2180  -47.5240 O.2   131  LEU131     -0.2715
    173  CB       -10.2200  -11.9620  -50.1990 C.3   131  LEU131      0.0311
    174  CG        -8.9870  -12.8150  -50.5330 C.3   131  LEU131      0.0022
    175  CD1       -8.0180  -12.0730  -51.4370 C.3   131  LEU131      0.0001
    176  CD2       -8.2530  -13.2630  -49.2740 C.3   131  LEU131      0.0001
    177  N        -13.3440  -11.3000  -49.0960 N.am  132  ALA132     -0.1977
    178  CA       -14.2790  -10.4680  -48.3200 C.3   132  ALA132      0.1597
    179  C        -14.6800  -11.2040  -47.0500 C.2   132  ALA132      0.2287
    180  O        -14.6900  -10.6250  -45.9680 O.2   132  ALA132     -0.2864
    181  CB       -15.5070  -10.0890  -49.1420 C.3   132  ALA132      0.0319
    182  N          2.7700  -14.9040  -52.9370 N.3   155  ALA155     -0.1245
    183  CA         1.8870  -14.1070  -52.0820 C.3   155  ALA155      0.1562
    184  C          1.8320  -14.7110  -50.6880 C.2   155  ALA155      0.2260
    185  O          1.7600  -15.9280  -50.5440 O.2   155  ALA155     -0.2867
    186  CB         0.4860  -14.0310  -52.6600 C.3   155  ALA155      0.0290
    187  N         -0.3480  -14.1710  -47.1050 N.3   157  PHE157     -0.1241
    188  CA        -1.4670  -13.5700  -46.4060 C.3   157  PHE157      0.1605
    189  C         -1.2560  -13.8760  -44.9420 C.2   157  PHE157      0.2264
    190  O         -1.2420  -15.0370  -44.5520 O.2   157  PHE157     -0.2867
    191  CB        -2.7880  -14.1650  -46.8970 C.3   157  PHE157      0.0534
    192  CG        -3.2020  -13.6600  -48.2390 C.ar  157  PHE157     -0.0203
    193  CD1       -2.5920  -14.1470  -49.3900 C.ar  157  PHE157     -0.0042
    194  CD2       -4.1960  -12.6970  -48.3610 C.ar  157  PHE157     -0.0042
    195  CE1       -2.9550  -13.6800  -50.6420 C.ar  157  PHE157     -0.0003
    196  CE2       -4.5810  -12.2350  -49.6090 C.ar  157  PHE157     -0.0003
    197  CZ        -3.9560  -12.7350  -50.7550 C.ar  157  PHE157     -0.0000
@<TRIPOS>BOND
     1   141   139   ar
     2   120   119    2
     3   126   127    2
     4   126   125    1
     5   139   138    1
     6   139   140   ar
     7   119   124   am
     8   119   118    1
     9   125   124    1
    10   125   128    1
    11   138   137    1
    12   133   134    1
    13   118   121    1
    14   118   117    1
    15   121   123    1
    16   121   122    1
    17   137   134    1
    18    74    73    1
    19    74    75    1
    20   128   129    1
    21   113   112    2
    22    73    70    1
    23   134   135    1
    24    54    55    1
    25    54    51    1
    26    81    80    1
    27   117   112   am
    28    55    56    1
    29   116   114    1
    30   112   111    1
    31   129   130    1
    32    75    69    1
    33    70    69    1
    34    70    71    1
    35    51    50    1
    36    51    52    1
    37   135   142   am
    38   135   136    2
    39    40    39    2
    40   107   109   ar
    41   107   105   ar
    42    32    31    2
    43    56    50    1
    44   115   114    1
    45    53    52    2
    46   142   143    1
    47   109   108   ar
    48    80    77    1
    49    80    82    1
    50    76    77    1
    51   114   111    1
    52   130   131    1
    53   111   110    1
    54    69    63   am
    55    71    72    2
    56    52    57   am
    57   145   144    2
    58    77    78    1
    59   105   104   ar
    60   110   101   am
    61    39    38    1
    62    60    59    2
    63    31    30    1
    64    31    37   am
    65   131   132    1
    66   108   106   ar
    67    38    37    1
    68    38    41    1
    69   143   144    1
    70   144   146   am
    71    63    64    2
    72    63    62    1
    73    57    58    1
    74    30    33    1
    75    30    29    1
    76   104   106   ar
    77   104   103    1
    78    33    34    1
    79   101   100    1
    80   101   102    2
    81    59    58    1
    82    59    61   am
    83   100   103    1
    84   100    99    1
    85    78    79    2
    86    35    34   ar
    87    34    36   ar
    88    62    61    1
    89    62    65    1
    90   146   147    1
    91   149   148    2
    92   147   148    1
    93   147   150    1
    94   148   153   am
    95   153   154    1
    96    67    65    1
    97   154   155    1
    98    65    66    1
    99   152   150    1
   100   150   151    1
   101    27    26    2
   102    66    68    1
   103    19    18    2
   104    89    87    1
   105    98    96   ar
   106   155   156    2
   107   155   157   am
   108    48    47   ar
   109    12    11    2
   110    26    25    1
   111    83    84    1
   112    18    17    1
   113    18    24   am
   114    84    87    1
   115    84    85    1
   116    95    96    1
   117    95    92    1
   118    96    97   ar
   119    22    21    2
   120    87    88    1
   121    14    13    1
   122   157   158    1
   123    17    20    1
   124    17    16    1
   125    94    93    2
   126    47    49   ar
   127    47    46    1
   128    25    24    1
   129    25    28    1
   130    11    16   am
   131    11    10    1
   132   182   183    1
   133    44    45    2
   134    44    43    1
   135    46    43    1
   136    21    20    1
   137    21    23   am
   138   186   183    1
   139    93    92    1
   140    86    85    2
   141    92    91    1
   142    88    90    1
   143   162   164    1
   144   162   163    1
   145   162   161    1
   146   183   184    1
   147    10    13    1
   148    10     9    1
   149    13    15    1
   150   158   161    1
   151   158   159    1
   152    43    42    1
   153   165   159   am
   154   165   166    1
   155   175   174    1
   156   159   160    2
   157   197   195   ar
   158   197   196   ar
   159   184   185    2
   160   195   193   ar
   161   166   167    1
   162   174   173    1
   163   174   176    1
   164   173   170    1
   165   169   167   am
   166   169   170    1
   167     4     3    2
   168   167   168    2
   169   196   194   ar
   170   193   192   ar
   171   170   171    1
   172   181   178    1
   173   177   171   am
   174   177   178    1
   175     3     2    1
   176   171   172    2
   177   194   192   ar
   178   178   179    1
   179     2     1    1
   180     2     5    1
   181   192   191    1
   182     8     6    1
   183   187   188    1
   184   179   180    2
   185     5     6    1
   186   191   188    1
   187   188   189    1
   188     6     7    1
   189   189   190    2
