@<TRIPOS>MOLECULE
tmp/5idnA00.pdb
 160 150 0 0 0
SMALL
GASTEIGER

@<TRIPOS>ATOM
      1  N        -10.8400   15.3410   -2.7430 N.3    27  VAL27      -0.1231
      2  CA        -9.6510   14.5190   -2.4810 C.3    27  VAL27       0.1692
      3  C         -8.3430   15.1400   -2.9830 C.2    27  VAL27       0.2592
      4  O         -7.2720   14.7400   -2.5310 O.2    27  VAL27      -0.2718
      5  CB        -9.7990   13.0730   -3.0370 C.3    27  VAL27       0.0266
      6  CG1      -10.9230   12.3410   -2.3090 C.3    27  VAL27       0.0020
      7  CG2      -10.0100   13.0440   -4.5680 C.3    27  VAL27       0.0020
      8  N         -8.4190   16.1050   -3.9000 N.am   28  GLY28      -0.1957
      9  CA        -7.2240   16.7450   -4.4400 C.3    28  GLY28       0.1869
     10  C         -7.4220   18.1520   -4.9790 C.2    28  GLY28       0.2309
     11  O         -8.4910   18.4920   -5.4810 O.2    28  GLY28      -0.2863
     12  N         -4.3870   21.0890  -12.3350 N.3    32  TYR32      -0.1241
     13  CA        -5.5240   20.3970  -12.9630 C.3    32  TYR32       0.1605
     14  C         -6.9070   20.9200  -12.5270 C.2    32  TYR32       0.2264
     15  O         -7.8600   20.8540  -13.3060 O.2    32  TYR32      -0.2867
     16  CB        -5.4420   18.8860  -12.6950 C.3    32  TYR32       0.0534
     17  CG        -5.3960   18.4950  -11.2280 C.ar   32  TYR32      -0.0201
     18  CD1       -6.5680   18.4100  -10.4620 C.ar   32  TYR32      -0.0009
     19  CD2       -4.1790   18.2000  -10.6020 C.ar   32  TYR32      -0.0009
     20  CE1       -6.5270   18.0520   -9.1110 C.ar   32  TYR32       0.0417
     21  CE2       -4.1290   17.8380   -9.2490 C.ar   32  TYR32       0.0417
     22  CZ        -5.3090   17.7620   -8.5130 C.ar   32  TYR32       0.1957
     23  OH        -5.2740   17.4060   -7.1850 O.3    32  TYR32      -0.2866
     24  N        -10.5130   17.8050   -7.7150 N.3    35  VAL35      -0.1245
     25  CA       -11.0200   16.4360   -7.8610 C.3    35  VAL35       0.1561
     26  C        -11.7810   16.0040   -6.5980 C.2    35  VAL35       0.2260
     27  O        -11.3260   16.2360   -5.4780 O.2    35  VAL35      -0.2867
     28  CB        -9.8950   15.4370   -8.2260 C.3    35  VAL35       0.0252
     29  CG1      -10.4150   13.9910   -8.2640 C.3    35  VAL35       0.0019
     30  CG2       -9.3150   15.7850   -9.5890 C.3    35  VAL35       0.0019
     31  N        -14.7180    9.6320   -9.7810 N.3    50  ALA50      -0.1245
     32  CA       -13.8740   10.8170   -9.6820 C.3    50  ALA50       0.1562
     33  C        -14.5350   11.9230  -10.4880 C.2    50  ALA50       0.2260
     34  O        -14.8120   11.7360  -11.6700 O.2    50  ALA50      -0.2867
     35  CB       -12.4910   10.5350  -10.2060 C.3    50  ALA50       0.0290
     36  N        -13.8110   15.8090  -11.6100 N.3    52  LYS52      -0.1245
     37  CA       -12.8190   16.8680  -11.6980 C.3    52  LYS52       0.1561
     38  C        -13.4410   18.1600  -12.2110 C.2    52  LYS52       0.2260
     39  O        -13.8960   18.2130  -13.3590 O.2    52  LYS52      -0.2867
     40  CB       -11.6540   16.4740  -12.6200 C.3    52  LYS52       0.0271
     41  CG       -10.5900   17.5820  -12.7620 C.3    52  LYS52       0.0035
     42  CD        -9.2510   17.0620  -13.2580 C.3    52  LYS52       0.0206
     43  CE        -9.2970   16.6930  -14.7350 C.3    52  LYS52       0.1093
     44  NZ        -7.9570   16.2550  -15.2120 N.3    52  LYS52      -0.1314
     45  N         -7.3330   17.2740  -23.0130 N.3    66  GLU66      -0.1245
     46  CA        -7.7740   16.1060  -22.2430 C.3    66  GLU66       0.1567
     47  C         -9.1090   15.5790  -22.7600 C.2    66  GLU66       0.2260
     48  O         -9.2600   14.3710  -22.9690 O.2    66  GLU66      -0.2867
     49  CB        -7.8620   16.4050  -20.7490 C.3    66  GLU66       0.0388
     50  CG        -8.1810   15.1680  -19.9220 C.3    66  GLU66       0.1160
     51  CD        -7.8640   15.3230  -18.4540 C.2    66  GLU66       0.3649
     52  OE1       -8.5980   16.0620  -17.7730 O.co2  66  GLU66      -0.2457
     53  OE2       -6.8990   14.6850  -17.9820 O.co2  66  GLU66      -0.2457
     54  N         -6.7850    6.0310  -18.1760 N.3    79  ILE79      -0.1245
     55  CA        -8.0390    6.4370  -17.5330 C.3    79  ILE79       0.1561
     56  C         -9.1190    6.8000  -18.5680 C.2    79  ILE79       0.2260
     57  O         -8.8190    7.3990  -19.6050 O.2    79  ILE79      -0.2867
     58  CB        -7.8090    7.6270  -16.5370 C.3    79  ILE79       0.0252
     59  CG1       -9.0190    7.8250  -15.6180 C.3    79  ILE79       0.0019
     60  CG2       -7.4590    8.9440  -17.2740 C.3    79  ILE79       0.0019
     61  CD1       -9.1550    6.7720  -14.5210 C.3    79  ILE79       0.0001
     62  N        -14.6450   10.5610  -14.2470 N.3    97  PHE97      -0.1227
     63  CA       -13.8640    9.3430  -14.4350 C.3    97  PHE97       0.1736
     64  C        -14.2940    8.3130  -13.4000 C.2    97  PHE97       0.2595
     65  O        -14.9710    8.6390  -12.4110 O.2    97  PHE97      -0.2718
     66  CB       -12.3640    9.6010  -14.2510 C.3    97  PHE97       0.0547
     67  CG       -11.8480   10.8240  -14.9560 C.ar   97  PHE97      -0.0202
     68  CD1      -11.9020   12.0730  -14.3400 C.ar   97  PHE97      -0.0042
     69  CD2      -11.2610   10.7240  -16.2160 C.ar   97  PHE97      -0.0042
     70  CE1      -11.3960   13.2060  -14.9760 C.ar   97  PHE97      -0.0003
     71  CE2      -10.7560   11.8530  -16.8610 C.ar   97  PHE97      -0.0003
     72  CZ       -10.8210   13.0940  -16.2390 C.ar   97  PHE97      -0.0000
     73  N        -13.8850    7.0720  -13.6360 N.am   98  ASP98      -0.1960
     74  CA       -13.9410    6.0260  -12.6170 C.3    98  ASP98       0.1840
     75  C        -12.8910    6.3340  -11.5540 C.2    98  ASP98       0.2622
     76  O        -11.8410    6.9090  -11.8560 O.2    98  ASP98      -0.2715
     77  CB       -13.6950    4.6430  -13.2330 C.3    98  ASP98       0.1450
     78  CG       -14.8300    4.1950  -14.1430 C.2    98  ASP98       0.3671
     79  OD1      -16.0160    4.3560  -13.7680 O.co2  98  ASP98      -0.2456
     80  OD2      -14.5360    3.6660  -15.2350 O.co2  98  ASP98      -0.2456
     81  N        -13.1840    5.9430  -10.3170 N.am   99  TYR99      -0.1960
     82  CA       -12.4160    6.3820   -9.1580 C.3    99  TYR99       0.1771
     83  C        -11.2640    5.4150   -8.8370 C.2    99  TYR99       0.2619
     84  O        -11.4830    4.2190   -8.6520 O.2    99  TYR99      -0.2715
     85  CB       -13.3410    6.5360   -7.9440 C.3    99  TYR99       0.0574
     86  CG       -12.5990    6.9200   -6.6890 C.ar   99  TYR99      -0.0198
     87  CD1      -12.1090    8.2160   -6.5120 C.ar   99  TYR99      -0.0009
     88  CD2      -12.3510    5.9780   -5.6920 C.ar   99  TYR99      -0.0009
     89  CE1      -11.4040    8.5660   -5.3620 C.ar   99  TYR99       0.0417
     90  CE2      -11.6490    6.3150   -4.5480 C.ar   99  TYR99       0.0417
     91  CZ       -11.1770    7.6020   -4.3830 C.ar   99  TYR99       0.1957
     92  OH       -10.4820    7.9170   -3.2390 O.3    99  TYR99      -0.2866
     93  N        -10.0490    5.9520   -8.7680 N.am  100  ALA100     -0.1977
     94  CA        -8.8570    5.1930   -8.3920 C.3   100  ALA100      0.1597
     95  C         -8.5030    5.6040   -6.9740 C.2   100  ALA100      0.2287
     96  O         -8.2510    6.7820   -6.7290 O.2   100  ALA100     -0.2864
     97  CB        -7.7130    5.5040   -9.3320 C.3   100  ALA100      0.0319
     98  N         -2.4180    5.7980   -6.0360 N.3   103  ASP103     -0.1239
     99  CA        -1.4880    6.1740   -7.0930 C.3   103  ASP103      0.1674
    100  C         -0.0610    5.9360   -6.6110 C.2   103  ASP103      0.2266
    101  O          0.1620    5.6410   -5.4270 O.2   103  ASP103     -0.2867
    102  CB        -1.6890    7.6360   -7.5270 C.3   103  ASP103      0.1410
    103  CG        -1.6270    8.6220   -6.3640 C.2   103  ASP103      0.3668
    104  OD1       -2.5400    9.4500   -6.2630 O.co2 103  ASP103     -0.2456
    105  OD2       -0.6670    8.5950   -5.5690 O.co2 103  ASP103     -0.2456
    106  N          1.5620    8.1100   -3.5730 N.3   106  HIS106     -0.1241
    107  CA         1.1550    7.6260   -2.2480 C.3   106  HIS106      0.1621
    108  C          1.6770    6.2310   -1.9070 C.2   106  HIS106      0.2264
    109  O          2.0260    5.9760   -0.7550 O.2   106  HIS106     -0.2867
    110  CB        -0.3710    7.6760   -2.1050 C.3   106  HIS106      0.0745
    111  CG        -0.9070    9.0680   -2.0300 C.ar  106  HIS106      0.0817
    112  ND1       -1.3120    9.7720   -3.1440 N.ar  106  HIS106     -0.2268
    113  CD2       -1.0640    9.9050   -0.9770 C.ar  106  HIS106      0.1154
    114  CE1       -1.7140   10.9750   -2.7780 C.ar  106  HIS106      0.1986
    115  NE2       -1.5720   11.0810   -1.4680 N.ar  106  HIS106     -0.2212
    116  N          2.5560   11.0090   -9.3790 N.3   150  ALA150     -0.1231
    117  CA         1.2760   11.6550   -9.0450 C.3   150  ALA150      0.1694
    118  C          0.1380   11.4510  -10.0670 C.2   150  ALA150      0.2592
    119  O         -1.0380   11.5660   -9.6970 O.2   150  ALA150     -0.2718
    120  CB         1.4910   13.1500   -8.8000 C.3   150  ALA150      0.0304
    121  N          0.4750   11.1600  -11.3280 N.am  151  ASN151     -0.1974
    122  CA        -0.5440   10.9340  -12.3760 C.3   151  ASN151      0.1688
    123  C         -0.5670    9.5050  -12.9470 C.2   151  ASN151      0.2292
    124  O         -1.1610    9.2600  -14.0010 O.2   151  ASN151     -0.2864
    125  CB        -0.4780   12.0170  -13.4780 C.3   151  ASN151      0.1181
    126  CG         0.8900   12.1350  -14.1390 C.2   151  ASN151      0.2629
    127  OD1        1.5440   11.1370  -14.4580 O.2   151  ASN151     -0.2716
    128  ND2        1.3150   13.3700  -14.3750 N.am  151  ASN151     -0.0877
    129  N         -2.2500    6.4310  -11.7070 N.3   153  LEU153     -0.1245
    130  CA        -3.2490    5.9310  -10.7740 C.3   153  LEU153      0.1561
    131  C         -3.1990    4.4090  -10.7020 C.2   153  LEU153      0.2260
    132  O         -2.7360    3.7450  -11.6310 O.2   153  LEU153     -0.2867
    133  CB        -4.6480    6.3890  -11.2050 C.3   153  LEU153      0.0270
    134  CG        -4.8600    7.8970  -11.4030 C.3   153  LEU153      0.0019
    135  CD1       -6.2570    8.2060  -11.9150 C.3   153  LEU153      0.0001
    136  CD2       -4.6200    8.6320  -10.1170 C.3   153  LEU153      0.0001
    137  N         -3.1620    8.9210  -16.0620 N.3   167  ALA167     -0.1231
    138  CA        -4.0840   10.0530  -16.0070 C.3   167  ALA167      0.1694
    139  C         -3.3860   11.3620  -16.3850 C.2   167  ALA167      0.2592
    140  O         -2.1680   11.3990  -16.5930 O.2   167  ALA167     -0.2718
    141  CB        -4.6940   10.1560  -14.6150 C.3   167  ALA167      0.0304
    142  N         -4.1940   12.4200  -16.4790 N.am  168  ASP168     -0.1974
    143  CA        -3.7550   13.7940  -16.7630 C.3   168  ASP168      0.1709
    144  C         -3.2070   13.9440  -18.1870 C.2   168  ASP168      0.2293
    145  O         -1.9920   14.0600  -18.4090 O.2   168  ASP168     -0.2864
    146  CB        -2.7690   14.3250  -15.6980 C.3   168  ASP168      0.1436
    147  CG        -2.6980   15.8660  -15.6610 C.2   168  ASP168      0.3671
    148  OD1       -3.2370   16.5530  -16.5630 O.co2 168  ASP168     -0.2456
    149  OD2       -2.0970   16.4040  -14.7100 O.co2 168  ASP168     -0.2456
    150  N         -8.0390    7.4830    0.3570 N.3   329  ARG329     -0.1245
    151  CA        -7.8400    8.9250    0.2170 C.3   329  ARG329      0.1563
    152  C         -8.6080    9.6720    1.2980 C.2   329  ARG329      0.2260
    153  O         -9.8060    9.4350    1.4960 O.2   329  ARG329     -0.2867
    154  CB        -8.2960    9.4270   -1.1540 C.3   329  ARG329      0.0307
    155  CG        -7.5200    8.8600   -2.3180 C.3   329  ARG329      0.0489
    156  CD        -7.7880    9.6430   -3.5890 C.3   329  ARG329      0.2205
    157  NE        -7.2110    8.9720   -4.7510 N.pl3 329  ARG329     -0.0865
    158  CZ        -5.9460    9.0850   -5.1660 C.cat 329  ARG329      0.5346
    159  NH1       -5.0750    9.8550   -4.5210 N.pl3 329  ARG329      0.1354
    160  NH2       -5.5410    8.4100   -6.2390 N.pl3 329  ARG329      0.1354
@<TRIPOS>BOND
     1    45    46    1
     2    48    47    2
     3    47    46    1
     4    46    49    1
     5    49    50    1
     6    50    51    1
     7    57    56    2
     8    56    55    1
     9    51    53   ar
    10    51    52   ar
    11   145   144    2
    12   144   143    1
    13    54    55    1
    14    55    58    1
    15    60    58    1
    16    71    72   ar
    17    71    69   ar
    18   143   142    1
    19   143   146    1
    20   140   139    2
    21   148   147   ar
    22    58    59    1
    23   142   139   am
    24   139   138    1
    25    72    70   ar
    26    69    67   ar
    27   137   138    1
    28   138   141    1
    29   146   147    1
    30   147   149   ar
    31    59    61    1
    32    80    78   ar
    33    44    43    1
    34    70    68   ar
    35    67    68   ar
    36    67    66    1
    37    43    42    1
    38   127   126    2
    39    63    66    1
    40    63    62    1
    41    63    64    1
    42   128   126   am
    43    78    79   ar
    44    78    77    1
    45   126   125    1
    46   124   123    2
    47    73    64   am
    48    73    74    1
    49   125   122    1
    50    64    65    2
    51    39    38    2
    52    15    14    2
    53    42    41    1
    54    77    74    1
    55    13    16    1
    56    13    14    1
    57    13    12    1
    58   123   122    1
    59    41    40    1
    60    16    17    1
    61    40    37    1
    62    74    75    1
    63   122   121    1
    64    38    37    1
    65   135   134    1
    66    76    75    2
    67   129   130    1
    68    37    36    1
    69    34    33    2
    70   132   131    2
    71    75    81   am
    72   134   133    1
    73   134   136    1
    74   121   118   am
    75    17    19   ar
    76    17    18   ar
    77   133   130    1
    78   130   131    1
    79    19    21   ar
    80    33    32    1
    81    18    20   ar
    82    81    82    1
    83    35    32    1
    84   118   119    2
    85   118   117    1
    86    31    32    1
    87    30    28    1
    88   116   117    1
    89    97    94    1
    90    21    22   ar
    91    82    83    1
    92    82    85    1
    93    20    22   ar
    94   117   120    1
    95    83    93   am
    96    83    84    2
    97    93    94    1
    98    22    23    1
    99    94    95    1
   100    29    28    1
   101    28    25    1
   102    85    86    1
   103    25    24    1
   104    25    26    1
   105   102    99    1
   106   102   103    1
   107    99   100    1
   108    99    98    1
   109    95    96    2
   110    86    87   ar
   111    86    88   ar
   112   100   101    2
   113    26    27    2
   114    87    89   ar
   115   103   104   ar
   116   103   105   ar
   117   160   158    1
   118    88    90   ar
   119    11    10    2
   120    89    91   ar
   121   158   157    2
   122   158   159    1
   123    10     9    1
   124   157   156    1
   125     7     5    1
   126    90    91   ar
   127     9     8    1
   128    91    92    1
   129     8     3   am
   130   156   155    1
   131   106   107    1
   132   112   114   ar
   133   112   111   ar
   134     5     2    1
   135     5     6    1
   136     3     4    2
   137     3     2    1
   138   114   115   ar
   139     1     2    1
   140   155   154    1
   141   107   110    1
   142   107   108    1
   143   110   111    1
   144   111   113   ar
   145   108   109    2
   146   115   113   ar
   147   154   151    1
   148   151   150    1
   149   151   152    1
   150   152   153    2
