@<TRIPOS>MOLECULE
tmp/5idoA00.pdb
 171 158 0 0 0
SMALL
GASTEIGER

@<TRIPOS>ATOM
      1  N        141.5680   76.4160   29.9160 N.3   107  PHE107     -0.1227
      2  CA       141.7580   77.2470   28.7290 C.3   107  PHE107      0.1736
      3  C        141.7630   78.7280   29.1260 C.2   107  PHE107      0.2596
      4  O        141.6400   79.0550   30.3010 O.2   107  PHE107     -0.2718
      5  CB       140.6950   76.9430   27.6550 C.3   107  PHE107      0.0547
      6  CG       139.2870   77.3360   28.0300 C.ar  107  PHE107     -0.0202
      7  CD1      138.5000   76.5040   28.8100 C.ar  107  PHE107     -0.0042
      8  CD2      138.7360   78.5230   27.5630 C.ar  107  PHE107     -0.0042
      9  CE1      137.1950   76.8590   29.1390 C.ar  107  PHE107     -0.0003
     10  CE2      137.4380   78.8840   27.8890 C.ar  107  PHE107     -0.0003
     11  CZ       136.6650   78.0530   28.6780 C.ar  107  PHE107     -0.0000
     12  N        141.9470   79.6150   28.1560 N.am  108  GLY108     -0.1942
     13  CA       141.9980   81.0390   28.4460 C.3   108  GLY108      0.2014
     14  C        143.4040   81.6240   28.4940 C.2   108  GLY108      0.2639
     15  O        144.3270   81.1160   27.8470 O.2   108  GLY108     -0.2714
     16  N        143.5670   82.6890   29.2770 N.am  109  SER109     -0.1949
     17  CA       144.7990   83.4800   29.2650 C.3   109  SER109      0.1924
     18  C        146.0380   82.6990   29.7010 C.2   109  SER109      0.2314
     19  O        147.1200   82.9120   29.1590 O.2   109  SER109     -0.2863
     20  CB       144.6390   84.7220   30.1480 C.3   109  SER109      0.2116
     21  OG       144.3050   84.3670   31.4770 O.3   109  SER109     -0.2180
     22  N        146.9710   81.0030   26.6230 N.3   112  ALA112     -0.1245
     23  CA       147.3650   82.0410   25.6640 C.3   112  ALA112      0.1562
     24  C        148.6970   82.7080   25.9980 C.2   112  ALA112      0.2260
     25  O        149.5390   82.8900   25.1240 O.2   112  ALA112     -0.2867
     26  CB       146.2690   83.1060   25.5680 C.3   112  ALA112      0.0290
     27  N        140.7900   85.1220   36.5070 N.3   121  ASP121     -0.1239
     28  CA       139.9530   83.9280   36.4070 C.3   121  ASP121      0.1674
     29  C        140.6040   82.7780   35.6420 C.2   121  ASP121      0.2266
     30  O        141.2380   82.9770   34.6060 O.2   121  ASP121     -0.2867
     31  CB       138.6240   84.2780   35.7340 C.3   121  ASP121      0.1410
     32  CG       137.5540   84.6700   36.7270 C.2   121  ASP121      0.3668
     33  OD1      137.5250   85.8470   37.1500 O.co2 121  ASP121     -0.2456
     34  OD2      136.7310   83.7970   37.0780 O.co2 121  ASP121     -0.2456
     35  N        139.7440   79.5240   33.4640 N.3   123  ASP123     -0.1239
     36  CA       138.6680   78.8760   32.7210 C.3   123  ASP123      0.1674
     37  C        138.8100   77.3510   32.7360 C.2   123  ASP123      0.2266
     38  O        139.8090   76.8050   32.2590 O.2   123  ASP123     -0.2867
     39  CB       138.6390   79.3800   31.2780 C.3   123  ASP123      0.1410
     40  CG       138.1930   80.8160   31.1790 C.2   123  ASP123      0.3668
     41  OD1      137.1160   81.1360   31.7220 O.co2 123  ASP123     -0.2456
     42  OD2      138.9240   81.6260   30.5700 O.co2 123  ASP123     -0.2456
     43  N        135.0460   74.5520   22.9370 N.3   280  PHE280     -0.1227
     44  CA       135.2660   75.6430   21.9890 C.3   280  PHE280      0.1736
     45  C        136.4590   76.5250   22.3580 C.2   280  PHE280      0.2596
     46  O        137.1800   77.0070   21.4810 O.2   280  PHE280     -0.2718
     47  CB       134.0030   76.5080   21.8790 C.3   280  PHE280      0.0547
     48  CG       133.7280   77.3470   23.1020 C.ar  280  PHE280     -0.0202
     49  CD1      133.0970   76.8010   24.2080 C.ar  280  PHE280     -0.0042
     50  CD2      134.1020   78.6820   23.1420 C.ar  280  PHE280     -0.0042
     51  CE1      132.8450   77.5680   25.3330 C.ar  280  PHE280     -0.0003
     52  CE2      133.8540   79.4540   24.2660 C.ar  280  PHE280     -0.0003
     53  CZ       133.2240   78.8960   25.3610 C.ar  280  PHE280     -0.0000
     54  N        136.6600   76.7340   23.6550 N.am  281  GLY281     -0.1957
     55  CA       137.7010   77.6300   24.1230 C.3   281  GLY281      0.1869
     56  C        139.0780   77.0020   24.1260 C.2   281  GLY281      0.2309
     57  O        140.0880   77.7020   24.1610 O.2   281  GLY281     -0.2863
     58  N        140.7950   77.5020   20.6140 N.3   284  ASN284     -0.1225
     59  CA       141.0240   78.9460   20.5370 C.3   284  ASN284      0.1785
     60  C        142.3130   79.4040   21.1890 C.2   284  ASN284      0.2597
     61  O        143.1440   80.0710   20.5720 O.2   284  ASN284     -0.2718
     62  CB       139.8730   79.6970   21.2070 C.3   284  ASN284      0.1169
     63  CG       138.7390   79.9650   20.2730 C.2   284  ASN284      0.2627
     64  OD1      138.9300   80.0800   19.0640 O.2   284  ASN284     -0.2716
     65  ND2      137.5410   80.0780   20.8240 N.am  284  ASN284     -0.0877
     66  N        142.4380   79.0660   22.4640 N.am  285  SER285     -0.1952
     67  CA       143.5720   79.4710   23.2690 C.3   285  SER285      0.1924
     68  C        144.8650   78.8720   22.7250 C.2   285  SER285      0.2314
     69  O        145.9180   79.5120   22.7490 O.2   285  SER285     -0.2863
     70  CB       143.3470   79.0540   24.7210 C.3   285  SER285      0.2116
     71  OG       142.0730   79.4850   25.1790 O.3   285  SER285     -0.2180
     72  N        145.9830   80.9010   19.8380 N.3   288  LEU288     -0.1245
     73  CA       146.5270   82.1630   20.3300 C.3   288  LEU288      0.1561
     74  C        147.9080   81.9520   20.9330 C.2   288  LEU288      0.2260
     75  O        148.8240   82.7490   20.7120 O.2   288  LEU288     -0.2867
     76  CB       145.5930   82.7940   21.3690 C.3   288  LEU288      0.0270
     77  CG       144.1930   83.2300   20.9280 C.3   288  LEU288      0.0019
     78  CD1      143.4140   83.7750   22.1150 C.3   288  LEU288      0.0001
     79  CD2      144.2710   84.2650   19.8280 C.3   288  LEU288      0.0001
     80  N        145.3930   94.6870   25.8590 N.3   306  LYS306     -0.1245
     81  CA       144.2100   94.2640   26.6000 C.3   306  LYS306      0.1561
     82  C        143.8210   95.2890   27.6580 C.2   306  LYS306      0.2260
     83  O        142.6460   95.6000   27.8300 O.2   306  LYS306     -0.2867
     84  CB       144.4450   92.9070   27.2620 C.3   306  LYS306      0.0271
     85  CG       143.3440   92.5100   28.2360 C.3   306  LYS306      0.0035
     86  CD       143.5850   91.1390   28.8460 C.3   306  LYS306      0.0206
     87  CE       142.5150   90.8300   29.8830 C.3   306  LYS306      0.1093
     88  NZ       142.6630   89.4730   30.4680 N.3   306  LYS306     -0.1314
     89  N        140.5210   97.8020   27.5520 N.3   310  LYS310     -0.1245
     90  CA       139.5510   97.8720   28.6400 C.3   310  LYS310      0.1561
     91  C        139.3770   99.3040   29.1570 C.2   310  LYS310      0.2260
     92  O        138.2510   99.7670   29.3420 O.2   310  LYS310     -0.2867
     93  CB       139.9610   96.9520   29.7890 C.3   310  LYS310      0.0271
     94  CG       139.6770   95.4790   29.5340 C.3   310  LYS310      0.0035
     95  CD       139.7970   94.6780   30.8220 C.3   310  LYS310      0.0206
     96  CE       139.5620   93.1960   30.5910 C.3   310  LYS310      0.1093
     97  NZ       139.6170   92.4370   31.8730 N.3   310  LYS310     -0.1314
     98  N        137.2430   97.4460   24.6270 N.3   315  ASN315     -0.1240
     99  CA       137.0150   96.1060   25.1610 C.3   315  ASN315      0.1653
    100  C        135.8860   96.1830   26.1850 C.2   315  ASN315      0.2266
    101  O        136.0970   96.6180   27.3240 O.2   315  ASN315     -0.2867
    102  CB       138.2950   95.5450   25.7930 C.3   315  ASN315      0.1155
    103  CG       138.1370   94.1140   26.3140 C.2   315  ASN315      0.2627
    104  OD1      137.0230   93.5990   26.4800 O.2   315  ASN315     -0.2716
    105  ND2      139.2670   93.4720   26.5940 N.am  315  ASN315     -0.0877
    106  N        135.8420   91.9170   22.6370 N.3   323  THR323     -0.1203
    107  CA       136.3080   91.1360   23.7670 C.3   323  THR323      0.1994
    108  C        137.8340   91.1740   23.7920 C.2   323  THR323      0.2619
    109  O        138.4650   91.6640   22.8560 O.2   323  THR323     -0.2717
    110  CB       135.8070   89.6890   23.6920 C.3   323  THR323      0.1784
    111  OG1      136.4150   89.0290   22.5750 O.3   323  THR323     -0.2211
    112  CG2      134.2920   89.6710   23.5160 C.3   323  THR323      0.0376
    113  N        138.4250   90.6780   24.8700 N.am  324  SER324     -0.1937
    114  CA       139.8740   90.6250   24.9730 C.3   324  SER324      0.2055
    115  C        140.4130   89.6690   23.9170 C.2   324  SER324      0.2643
    116  O        141.4950   89.8650   23.3670 O.2   324  SER324     -0.2714
    117  CB       140.3010   90.1830   26.3740 C.3   324  SER324      0.2130
    118  OG       139.8850   91.1150   27.3580 O.3   324  SER324     -0.2179
    119  N        139.6300   88.6300   23.6550 N.am  325  TYR325     -0.1973
    120  CA       139.9170   87.6460   22.6220 C.3   325  TYR325      0.1639
    121  C        140.0440   88.3050   21.2470 C.2   325  TYR325      0.2290
    122  O        140.9980   88.0490   20.5090 O.2   325  TYR325     -0.2864
    123  CB       138.8130   86.5910   22.6290 C.3   325  TYR325      0.0560
    124  CG       138.8700   85.5670   21.5250 C.ar  325  TYR325     -0.0198
    125  CD1      139.9240   84.6650   21.4350 C.ar  325  TYR325     -0.0009
    126  CD2      137.8420   85.4730   20.5970 C.ar  325  TYR325     -0.0009
    127  CE1      139.9600   83.7120   20.4300 C.ar  325  TYR325      0.0417
    128  CE2      137.8680   84.5290   19.5980 C.ar  325  TYR325      0.0417
    129  CZ       138.9260   83.6500   19.5170 C.ar  325  TYR325      0.1957
    130  OH       138.9460   82.7150   18.5110 O.3   325  TYR325     -0.2866
    131  N        143.2560   90.3860   20.9190 N.3   328  ASN328     -0.1240
    132  CA       144.4000   89.5300   20.6200 C.3   328  ASN328      0.1653
    133  C        144.5060   89.2380   19.1250 C.2   328  ASN328      0.2266
    134  O        145.5890   89.3050   18.5530 O.2   328  ASN328     -0.2867
    135  CB       144.3170   88.2170   21.4010 C.3   328  ASN328      0.1155
    136  CG       144.7870   88.3570   22.8380 C.2   328  ASN328      0.2627
    137  OD1      145.6460   89.1840   23.1500 O.2   328  ASN328     -0.2716
    138  ND2      144.2290   87.5390   23.7200 N.am  328  ASN328     -0.0877
    139  N        136.0710   85.2930   13.2570 N.3   437  ASP437     -0.1239
    140  CA       136.4130   84.2640   14.2220 C.3   437  ASP437      0.1674
    141  C        137.0310   83.0780   13.4950 C.2   437  ASP437      0.2266
    142  O        136.4630   82.5620   12.5290 O.2   437  ASP437     -0.2867
    143  CB       135.1900   83.8220   15.0190 C.3   437  ASP437      0.1410
    144  CG       135.5670   83.0850   16.2810 C.2   437  ASP437      0.3668
    145  OD1      136.0530   81.9390   16.1770 O.co2 437  ASP437     -0.2456
    146  OD2      135.3880   83.6530   17.3740 O.co2 437  ASP437     -0.2456
    147  N        134.6130   79.7100   14.4460 N.3   440  GLU440     -0.1245
    148  CA       133.1800   79.8760   14.2510 C.3   440  GLU440      0.1567
    149  C        132.9670   80.5760   12.9160 C.2   440  GLU440      0.2260
    150  O        133.4050   81.7100   12.7350 O.2   440  GLU440     -0.2867
    151  CB       132.5540   80.6860   15.3890 C.3   440  GLU440      0.0388
    152  CG       133.2840   80.5850   16.7190 C.3   440  GLU440      0.1160
    153  CD       133.0400   79.2740   17.4380 C.2   440  GLU440      0.3649
    154  OE1      132.1770   78.4930   16.9830 O.co2 440  GLU440     -0.2457
    155  OE2      133.7120   79.0280   18.4640 O.co2 440  GLU440     -0.2457
    156  N        130.8830   84.4960   11.7300 N.3   443  LEU443     -0.1245
    157  CA       130.7050   85.2320   12.9740 C.3   443  LEU443      0.1561
    158  C        131.6490   86.4240   13.0380 C.2   443  LEU443      0.2260
    159  O        132.8640   86.2640   13.1320 O.2   443  LEU443     -0.2867
    160  CB       130.9300   84.3270   14.1850 C.3   443  LEU443      0.0270
    161  CG       130.7480   85.0490   15.5210 C.3   443  LEU443      0.0019
    162  CD1      129.3450   85.6370   15.6210 C.3   443  LEU443      0.0001
    163  CD2      131.0350   84.1160   16.6920 C.3   443  LEU443      0.0001
    164  N        133.2120   89.3180   15.0840 N.3   445  LEU445     -0.1245
    165  CA       133.4470   89.6980   16.4680 C.3   445  LEU445      0.1561
    166  C        133.0550   91.1570   16.7020 C.2   445  LEU445      0.2260
    167  O        132.9490   91.6040   17.8420 O.2   445  LEU445     -0.2867
    168  CB       134.9100   89.4560   16.8510 C.3   445  LEU445      0.0270
    169  CG       135.3560   87.9950   16.7320 C.3   445  LEU445      0.0019
    170  CD1      136.7900   87.8250   17.1960 C.3   445  LEU445      0.0001
    171  CD2      134.4190   87.0740   17.5090 C.3   445  LEU445      0.0001
@<TRIPOS>BOND
     1   156   157    1
     2   142   141    2
     3   150   149    2
     4   149   148    1
     5   157   158    1
     6   157   160    1
     7   158   159    2
     8   139   140    1
     9   141   140    1
    10   160   161    1
    11   140   143    1
    12   148   147    1
    13   148   151    1
    14   143   144    1
    15   164   165    1
    16   151   152    1
    17   161   162    1
    18   161   163    1
    19   145   144   ar
    20   144   146   ar
    21   165   166    1
    22   165   168    1
    23   166   167    2
    24   152   153    1
    25   169   168    1
    26   169   170    1
    27   169   171    1
    28   154   153   ar
    29   153   155   ar
    30   130   129    1
    31   134   133    2
    32    64    63    2
    33   133   132    1
    34   129   128   ar
    35   129   127   ar
    36   128   126   ar
    37    79    77    1
    38    72    73    1
    39    63    65   am
    40    63    62    1
    41    73    74    1
    42    73    76    1
    43   127   125   ar
    44   122   121    2
    45    59    58    1
    46    59    60    1
    47    59    62    1
    48    61    60    2
    49   126   124   ar
    50   132   131    1
    51   132   135    1
    52    75    74    2
    53    77    76    1
    54    77    78    1
    55    60    66   am
    56   121   120    1
    57   135   136    1
    58   125   124   ar
    59    46    45    2
    60   124   123    1
    61    47    44    1
    62    47    48    1
    63    44    45    1
    64    44    43    1
    65    45    54   am
    66    66    67    1
    67   111   110    1
    68   120   123    1
    69   120   119    1
    70   106   107    1
    71    68    69    2
    72    68    67    1
    73   136   137    2
    74   136   138   am
    75   109   108    2
    76    48    50   ar
    77    48    49   ar
    78    50    52   ar
    79    67    70    1
    80   116   115    2
    81   112   110    1
    82   119   115   am
    83    54    55    1
    84   110   107    1
    85   107   108    1
    86   108   113   am
    87   115   114    1
    88    55    56    1
    89    56    57    2
    90    49    51   ar
    91    52    53   ar
    92    98    99    1
    93    70    71    1
    94   113   114    1
    95   114   117    1
    96    25    24    2
    97    99   102    1
    98    99   100    1
    99    51    53   ar
   100    26    23    1
   101    23    24    1
   102    23    22    1
   103   102   103    1
   104    80    81    1
   105   100   101    2
   106   103   104    2
   107   103   105   am
   108   117   118    1
   109    81    84    1
   110    81    82    1
   111    84    85    1
   112    89    90    1
   113     8    10   ar
   114     8     6   ar
   115     5     6    1
   116     5     2    1
   117    82    83    2
   118    15    14    2
   119    10    11   ar
   120     6     7   ar
   121    12    13    1
   122    12     3   am
   123    85    86    1
   124    13    14    1
   125    14    16   am
   126    90    91    1
   127    90    93    1
   128    11     9   ar
   129     2     3    1
   130     2     1    1
   131     7     9   ar
   132    86    87    1
   133     3     4    2
   134    91    92    2
   135    19    18    2
   136    17    16    1
   137    17    18    1
   138    17    20    1
   139    94    93    1
   140    94    95    1
   141    87    88    1
   142    20    21    1
   143    42    40   ar
   144    96    95    1
   145    96    97    1
   146    40    39    1
   147    40    41   ar
   148    39    36    1
   149    38    37    2
   150    36    37    1
   151    36    35    1
   152    30    29    2
   153    29    28    1
   154    31    28    1
   155    31    32    1
   156    28    27    1
   157    32    34   ar
   158    32    33   ar
