@<TRIPOS>MOLECULE
tmp/5idpA00.pdb
 151 142 0 0 0
SMALL
GASTEIGER

@<TRIPOS>ATOM
      1  N         -9.3400  -15.2510    3.4480 N.3    28  VAL28      -0.1231
      2  CA        -8.1190  -14.4370    3.2840 C.3    28  VAL28       0.1692
      3  C         -6.8690  -15.0210    3.9590 C.2    28  VAL28       0.2592
      4  O         -5.7720  -14.4910    3.7880 O.2    28  VAL28      -0.2718
      5  CB        -8.3270  -12.9790    3.7740 C.3    28  VAL28       0.0266
      6  CG1       -9.4900  -12.3310    3.0320 C.3    28  VAL28       0.0020
      7  CG2       -8.5420  -12.8930    5.2850 C.3    28  VAL28       0.0020
      8  N         -7.0390  -16.0950    4.7290 N.am   29  GLY29      -0.1957
      9  CA        -5.9460  -16.7000    5.4860 C.3    29  GLY29       0.1869
     10  C         -6.1940  -18.1670    5.7770 C.2    29  GLY29       0.2309
     11  O         -7.3360  -18.5930    5.9600 O.2    29  GLY29      -0.2863
     12  N         -3.0910  -21.8440   12.8440 N.3    33  TYR33      -0.1241
     13  CA        -4.1800  -21.0970   13.5050 C.3    33  TYR33       0.1605
     14  C         -5.6050  -21.5240   13.1150 C.2    33  TYR33       0.2264
     15  O         -6.5040  -21.5310   13.9590 O.2    33  TYR33      -0.2867
     16  CB        -4.0130  -19.5830   13.2660 C.3    33  TYR33       0.0534
     17  CG        -3.9260  -19.1490   11.8110 C.ar   33  TYR33      -0.0201
     18  CD1       -5.0790  -18.9250   11.0480 C.ar   33  TYR33      -0.0009
     19  CD2       -2.6870  -18.9330   11.2030 C.ar   33  TYR33      -0.0009
     20  CE1       -4.9930  -18.5240    9.7190 C.ar   33  TYR33       0.0417
     21  CE2       -2.5940  -18.5300    9.8760 C.ar   33  TYR33       0.0417
     22  CZ        -3.7490  -18.3260    9.1390 C.ar   33  TYR33       0.1957
     23  OH        -3.6610  -17.9190    7.8290 O.3    33  TYR33      -0.2866
     24  N         -9.1560  -18.1400    8.2910 N.3    36  VAL36      -0.1245
     25  CA        -9.5810  -16.7490    8.4850 C.3    36  VAL36       0.1561
     26  C        -10.2970  -16.2540    7.2300 C.2    36  VAL36       0.2260
     27  O         -9.8260  -16.4690    6.1140 O.2    36  VAL36      -0.2867
     28  CB        -8.3990  -15.8270    8.8260 C.3    36  VAL36       0.0252
     29  CG1       -8.8600  -14.3880    9.0390 C.3    36  VAL36       0.0019
     30  CG2       -7.7230  -16.3150   10.0860 C.3    36  VAL36       0.0019
     31  N        -13.1360   -9.7520   10.3810 N.3    51  ALA51      -0.1245
     32  CA       -12.3150  -10.9590   10.2600 C.3    51  ALA51       0.1562
     33  C        -12.8970  -12.0920   11.1090 C.2    51  ALA51       0.2260
     34  O        -12.9290  -11.9860   12.3400 O.2    51  ALA51      -0.2867
     35  CB       -10.8890  -10.6730   10.6780 C.3    51  ALA51       0.0290
     36  N        -12.3570  -15.8660   12.3020 N.3    53  LYS53      -0.1245
     37  CA       -11.3940  -16.9460   12.4780 C.3    53  LYS53       0.1561
     38  C        -12.0910  -18.1930   13.0260 C.2    53  LYS53       0.2260
     39  O        -12.5790  -18.1830   14.1550 O.2    53  LYS53      -0.2867
     40  CB       -10.2960  -16.5030   13.4400 C.3    53  LYS53       0.0271
     41  CG        -9.1460  -17.4880   13.6120 C.3    53  LYS53       0.0035
     42  CD        -8.2830  -17.0820   14.7950 C.3    53  LYS53       0.0206
     43  CE        -6.9630  -17.8190   14.7990 C.3    53  LYS53       0.1093
     44  NZ        -6.2090  -17.5670   16.0520 N.3    53  LYS53      -0.1314
     45  N         -5.1920   -6.3880   18.5590 N.3    80  ILE80      -0.1245
     46  CA        -6.4320   -6.8020   17.8740 C.3    80  ILE80       0.1561
     47  C         -7.4770   -7.2380   18.9080 C.2    80  ILE80       0.2260
     48  O         -7.1410   -7.9250   19.8740 O.2    80  ILE80      -0.2867
     49  CB        -6.1650   -7.8950   16.7950 C.3    80  ILE80       0.0252
     50  CG1       -7.3700   -8.0800   15.8650 C.3    80  ILE80       0.0019
     51  CG2       -5.7810   -9.2340   17.4060 C.3    80  ILE80       0.0019
     52  CD1       -7.5690   -6.9670   14.8590 C.3    80  ILE80       0.0001
     53  N        -13.3220  -10.6610   14.8690 N.3    98  PHE98      -0.1227
     54  CA       -12.4580   -9.4840   15.0520 C.3    98  PHE98       0.1736
     55  C        -12.8060   -8.4150   14.0250 C.2    98  PHE98       0.2595
     56  O        -13.4180   -8.7090   12.9970 O.2    98  PHE98      -0.2718
     57  CB       -10.9890   -9.8400   14.8250 C.3    98  PHE98       0.0547
     58  CG       -10.4810  -10.9660   15.6760 C.ar   98  PHE98      -0.0202
     59  CD1      -10.5140  -12.2740   15.2070 C.ar   98  PHE98      -0.0042
     60  CD2       -9.9220  -10.7160   16.9200 C.ar   98  PHE98      -0.0042
     61  CE1      -10.0210  -13.3150   15.9780 C.ar   98  PHE98      -0.0003
     62  CE2       -9.4300  -11.7520   17.6950 C.ar   98  PHE98      -0.0003
     63  CZ        -9.4850  -13.0530   17.2280 C.ar   98  PHE98      -0.0000
     64  N        -12.3830   -7.1810   14.2930 N.am   99  ASP99      -0.1960
     65  CA       -12.3850   -6.1290   13.2720 C.3    99  ASP99       0.1840
     66  C        -11.3390   -6.4630   12.2030 C.2    99  ASP99       0.2622
     67  O        -10.3290   -7.1150   12.4840 O.2    99  ASP99      -0.2715
     68  CB       -12.1050   -4.7460   13.8780 C.3    99  ASP99       0.1450
     69  CG       -13.3400   -4.1050   14.5090 C.2    99  ASP99       0.3671
     70  OD1      -14.2180   -4.8330   15.0200 O.co2  99  ASP99      -0.2456
     71  OD2      -13.4300   -2.8580   14.4960 O.co2  99  ASP99      -0.2456
     72  N        -11.5970   -6.0040   10.9840 N.am  100  TYR100     -0.1960
     73  CA       -10.8230   -6.4050    9.8150 C.3   100  TYR100      0.1771
     74  C         -9.7030   -5.4150    9.5090 C.2   100  TYR100      0.2619
     75  O         -9.9540   -4.2210    9.3470 O.2   100  TYR100     -0.2715
     76  CB       -11.7490   -6.5410    8.6020 C.3   100  TYR100      0.0574
     77  CG       -11.0310   -6.9510    7.3360 C.ar  100  TYR100     -0.0198
     78  CD1      -10.5870   -8.2660    7.1530 C.ar  100  TYR100     -0.0009
     79  CD2      -10.7810   -6.0240    6.3220 C.ar  100  TYR100     -0.0009
     80  CE1       -9.9240   -8.6420    5.9920 C.ar  100  TYR100      0.0417
     81  CE2      -10.1180   -6.3900    5.1610 C.ar  100  TYR100      0.0417
     82  CZ        -9.6850   -7.6930    5.0030 C.ar  100  TYR100      0.1957
     83  OH        -9.0440   -8.0360    3.8400 O.3   100  TYR100     -0.2866
     84  N         -8.4800   -5.9310    9.4200 N.am  101  ALA101     -0.1977
     85  CA        -7.3150   -5.1670    8.9740 C.3   101  ALA101      0.1597
     86  C         -6.9790   -5.5740    7.5380 C.2   101  ALA101      0.2287
     87  O         -6.7010   -6.7410    7.2670 O.2   101  ALA101     -0.2864
     88  CB        -6.1290   -5.4230    9.8880 C.3   101  ALA101      0.0319
     89  N         -0.8690   -5.5710    6.3660 N.3   104  ASP104     -0.1239
     90  CA         0.0890   -6.0360    7.3650 C.3   104  ASP104      0.1674
     91  C          1.5080   -5.7660    6.8830 C.2   104  ASP104      0.2266
     92  O          1.7240   -5.5050    5.6980 O.2   104  ASP104     -0.2867
     93  CB        -0.1150   -7.5230    7.6740 C.3   104  ASP104      0.1410
     94  CG        -0.0480   -8.4020    6.4370 C.2   104  ASP104      0.3668
     95  OD1       -1.1060   -8.8890    5.9830 O.co2 104  ASP104     -0.2456
     96  OD2        1.0620   -8.6100    5.9050 O.co2 104  ASP104     -0.2456
     97  N          3.2520   -7.7780    3.7610 N.3   107  HIS107     -0.1241
     98  CA         2.8580   -7.3220    2.4180 C.3   107  HIS107      0.1621
     99  C          3.3870   -5.9270    2.1060 C.2   107  HIS107      0.2264
    100  O          3.8290   -5.6720    0.9870 O.2   107  HIS107     -0.2867
    101  CB         1.3370   -7.3500    2.2450 C.3   107  HIS107      0.0745
    102  CG         0.7680   -8.7290    2.1240 C.ar  107  HIS107      0.0817
    103  ND1        0.1840   -9.3880    3.1830 N.ar  107  HIS107     -0.2268
    104  CD2        0.6970   -9.5770    1.0720 C.ar  107  HIS107      0.1154
    105  CE1       -0.2250  -10.5790    2.7910 C.ar  107  HIS107      0.1986
    106  NE2        0.0760  -10.7200    1.5140 N.ar  107  HIS107     -0.2212
    107  N          4.4120  -10.6160    9.4990 N.3   151  ALA151     -0.1231
    108  CA         3.1350  -11.2430    9.1350 C.3   151  ALA151      0.1694
    109  C          1.9990  -11.0610   10.1450 C.2   151  ALA151      0.2592
    110  O          0.8350  -11.0170    9.7480 O.2   151  ALA151     -0.2718
    111  CB         3.3400  -12.7270    8.8610 C.3   151  ALA151      0.0304
    112  N          2.3240  -10.9750   11.4330 N.am  152  ASN152     -0.1974
    113  CA         1.2870  -10.8180   12.4710 C.3   152  ASN152      0.1688
    114  C          1.2290   -9.4230   13.1220 C.2   152  ASN152      0.2292
    115  O          0.5750   -9.2300   14.1480 O.2   152  ASN152     -0.2864
    116  CB         1.3280  -11.9730   13.4890 C.3   152  ASN152      0.1181
    117  CG         2.6860  -12.1730   14.1260 C.2   152  ASN152      0.2629
    118  OD1        3.3200  -11.2150   14.5670 O.2   152  ASN152     -0.2716
    119  ND2        3.1240  -13.4310   14.2130 N.am  152  ASN152     -0.0877
    120  N         -0.5290   -6.3900   12.0000 N.3   154  LEU154     -0.1245
    121  CA        -1.5540   -5.9200   11.0680 C.3   154  LEU154      0.1561
    122  C         -1.5970   -4.4010   11.0800 C.2   154  LEU154      0.2260
    123  O         -1.0910   -3.7680   12.0080 O.2   154  LEU154     -0.2867
    124  CB        -2.9300   -6.4860   11.4280 C.3   154  LEU154      0.0270
    125  CG        -3.0160   -7.9850   11.7170 C.3   154  LEU154      0.0019
    126  CD1       -4.4440   -8.3700   12.0550 C.3   154  LEU154      0.0001
    127  CD2       -2.5240   -8.7910   10.5320 C.3   154  LEU154      0.0001
    128  N         -1.4310   -9.0320   16.3350 N.3   168  ALA168     -0.1231
    129  CA        -2.2610  -10.2420   16.2770 C.3   168  ALA168      0.1694
    130  C         -1.4160  -11.4970   16.4590 C.2   168  ALA168      0.2592
    131  O         -0.1900  -11.4180   16.5020 O.2   168  ALA168     -0.2718
    132  CB        -2.9990  -10.2950   14.9480 C.3   168  ALA168      0.0304
    133  N         -2.0940  -12.6400   16.5870 N.am  169  ASP169     -0.1974
    134  CA        -1.4700  -13.9820   16.6640 C.3   169  ASP169      0.1709
    135  C         -0.4980  -14.1540   17.8320 C.2   169  ASP169      0.2293
    136  O          0.6050  -14.6850   17.6700 O.2   169  ASP169     -0.2864
    137  CB        -0.7720  -14.2920   15.3440 C.3   169  ASP169      0.1436
    138  CG        -0.3900  -15.7550   15.1800 C.2   169  ASP169      0.3671
    139  OD1       -1.2950  -16.6200   15.1750 O.co2 169  ASP169     -0.2456
    140  OD2        0.8230  -16.0290   15.0240 O.co2 169  ASP169     -0.2456
    141  N         -6.4840   -7.3640    0.1540 N.3   339  ARG339     -0.1245
    142  CA        -6.2870   -8.8090    0.3180 C.3   339  ARG339      0.1563
    143  C         -7.0270   -9.5990   -0.7620 C.2   339  ARG339      0.2260
    144  O         -8.2340   -9.4160   -0.9490 O.2   339  ARG339     -0.2867
    145  CB        -6.7840   -9.2760    1.6870 C.3   339  ARG339      0.0307
    146  CG        -6.0800   -8.6300    2.8610 C.3   339  ARG339      0.0489
    147  CD        -6.2270   -9.4540    4.1350 C.3   339  ARG339      0.2205
    148  NE        -5.6170   -8.7860    5.2890 N.pl3 339  ARG339     -0.0865
    149  CZ        -4.3200   -8.8130    5.6080 C.cat 339  ARG339      0.5346
    150  NH1       -3.4290   -9.4850    4.8720 N.pl3 339  ARG339      0.1354
    151  NH2       -3.9020   -8.1540    6.6840 N.pl3 339  ARG339      0.1354
@<TRIPOS>BOND
     1   144   143    2
     2   143   142    1
     3   141   142    1
     4   142   145    1
     5   100    99    2
     6   104   106   ar
     7   104   102   ar
     8   106   105   ar
     9   145   146    1
    10    99    98    1
    11   102   101    1
    12   102   103   ar
    13   101    98    1
    14    98    97    1
    15   105   103   ar
    16   146   147    1
    17     6     5    1
    18     2     1    1
    19     2     5    1
    20     2     3    1
    21     5     7    1
    22     4     3    2
    23    83    82    1
    24     3     8   am
    25   147   148    1
    26     8     9    1
    27   150   149    1
    28    82    81   ar
    29    82    80   ar
    30    81    79   ar
    31   148   149    2
    32     9    10    1
    33   149   151    1
    34    92    91    2
    35    10    11    2
    36    96    94   ar
    37    95    94   ar
    38    80    78   ar
    39    27    26    2
    40    79    77   ar
    41    89    90    1
    42    94    93    1
    43    91    90    1
    44    78    77   ar
    45    26    25    1
    46    87    86    2
    47    77    76    1
    48    90    93    1
    49    86    85    1
    50    23    22    1
    51    24    25    1
    52    25    28    1
    53    76    73    1
    54    28    29    1
    55    28    30    1
    56   111   108    1
    57    85    84    1
    58    85    88    1
    59   108   107    1
    60   108   109    1
    61    22    20   ar
    62    22    21   ar
    63    75    74    2
    64    84    74   am
    65    74    73    1
    66    20    18   ar
    67   110   109    2
    68    73    72    1
    69    21    19   ar
    70   109   112   am
    71    32    31    1
    72    32    35    1
    73    32    33    1
    74   127   125    1
    75    72    66   am
    76    18    17   ar
    77   121   122    1
    78   121   124    1
    79   121   120    1
    80   122   123    2
    81    33    34    2
    82    19    17   ar
    83   124   125    1
    84   112   113    1
    85   125   126    1
    86    17    16    1
    87    66    67    2
    88    66    65    1
    89    36    37    1
    90   113   114    1
    91   113   116    1
    92    37    38    1
    93    37    40    1
    94    12    13    1
    95    56    55    2
    96    38    39    2
    97    14    13    1
    98    14    15    2
    99   114   115    2
   100    16    13    1
   101    65    68    1
   102    65    64    1
   103    40    41    1
   104   116   117    1
   105    41    42    1
   106    68    69    1
   107    55    64   am
   108    55    54    1
   109   117   119   am
   110   117   118    2
   111    71    69   ar
   112    69    70   ar
   113    42    43    1
   114    43    44    1
   115    57    54    1
   116    57    58    1
   117    52    50    1
   118    53    54    1
   119   132   129    1
   120   140   138   ar
   121   139   138   ar
   122   138   137    1
   123    59    58   ar
   124    59    61   ar
   125   137   134    1
   126    58    60   ar
   127    50    49    1
   128    61    63   ar
   129   129   128    1
   130   129   130    1
   131   130   131    2
   132   130   133   am
   133   133   134    1
   134   134   135    1
   135    49    51    1
   136    49    46    1
   137    60    62   ar
   138    63    62   ar
   139   136   135    2
   140    46    45    1
   141    46    47    1
   142    47    48    2
