@<TRIPOS>MOLECULE
tmp/5idtA00.pdb
 105 98 0 0 0
SMALL
GASTEIGER

@<TRIPOS>ATOM
      1  N         26.0320   -1.1380   39.3630 N.3     8  LEU8       -0.1245
      2  CA        25.5500   -1.9700   38.2740 C.3     8  LEU8        0.1561
      3  C         24.1990   -1.4130   37.8520 C.2     8  LEU8        0.2260
      4  O         23.2400   -1.4240   38.6410 O.2     8  LEU8       -0.2867
      5  CB        25.4690   -3.4260   38.7060 C.3     8  LEU8        0.0270
      6  CG        25.0620   -4.3990   37.6340 C.3     8  LEU8        0.0019
      7  CD1       26.0130   -4.3340   36.4290 C.3     8  LEU8        0.0001
      8  CD2       25.0280   -5.7950   38.2480 C.3     8  LEU8        0.0001
      9  N         22.3430   -2.0720   34.7180 N.3    10  GLY10      -0.1210
     10  CA        22.0450   -2.7760   33.4940 C.3    10  GLY10       0.1956
     11  C         20.5580   -2.9450   33.2540 C.2    10  GLY10       0.2612
     12  O         19.7240   -2.2070   33.7950 O.2    10  GLY10      -0.2717
     13  N         20.2300   -3.9530   32.4400 N.am   11  GLY11      -0.1942
     14  CA        18.9050   -4.1390   31.8870 C.3    11  GLY11       0.2014
     15  C         17.8160   -4.1160   32.9370 C.2    11  GLY11       0.2639
     16  O         17.8370   -4.8990   33.8890 O.2    11  GLY11      -0.2714
     17  N         16.8860   -3.1700   32.7790 N.am   12  SER12      -0.1949
     18  CA        15.7410   -3.0380   33.6720 C.3    12  SER12       0.1924
     19  C         14.7120   -4.1360   33.4580 C.2    12  SER12       0.2314
     20  O         14.0240   -4.5290   34.4050 O.2    12  SER12      -0.2863
     21  CB        15.0800   -1.6760   33.4750 C.3    12  SER12       0.2116
     22  OG        14.5330   -1.5820   32.1940 O.3    12  SER12      -0.2180
     23  N         15.9410    2.5510   33.0760 N.3    25  LYS25      -0.1231
     24  CA        15.2860    2.7400   34.3740 C.3    25  LYS25       0.1693
     25  C         16.0800    3.6470   35.3030 C.2    25  LYS25       0.2591
     26  O         15.5070    4.5280   35.9550 O.2    25  LYS25      -0.2718
     27  CB        15.0550    1.3880   35.0480 C.3    25  LYS25       0.0285
     28  CG        14.7300    1.4590   36.5210 C.3    25  LYS25       0.0035
     29  CD        14.5360    0.0660   37.0720 C.3    25  LYS25       0.0206
     30  CE        14.0030    0.1150   38.4880 C.3    25  LYS25       0.1093
     31  NZ        13.8820   -1.2320   39.0970 N.3    25  LYS25      -0.1314
     32  N         17.4000    3.4740   35.3530 N.am   26  GLN26      -0.1979
     33  CA        18.2170    4.2300   36.2910 C.3    26  GLN26       0.1601
     34  C         18.4230    5.6780   35.8480 C.2    26  GLN26       0.2287
     35  O         19.1250    6.4240   36.5350 O.2    26  GLN26      -0.2864
     36  CB        19.5650    3.5350   36.4890 C.3    26  GLN26       0.0394
     37  CG        19.4770    2.0660   36.9680 C.3    26  GLN26       0.0908
     38  CD        19.3700    1.0820   35.8100 C.2    26  GLN26       0.2608
     39  OE1       19.0640    1.4680   34.6880 O.2    26  GLN26      -0.2717
     40  NE2       19.6420   -0.1800   36.0730 N.am   26  GLN26      -0.0878
     41  N         28.1730   -4.1730   30.6140 N.3    82  GLN82      -0.1245
     42  CA        27.7350   -5.5530   30.7350 C.3    82  GLN82       0.1566
     43  C         26.9340   -5.9150   29.4950 C.2    82  GLN82       0.2260
     44  O         25.7940   -5.4420   29.3460 O.2    82  GLN82      -0.2867
     45  CB        26.8910   -5.7660   31.9880 C.3    82  GLN82       0.0367
     46  CG        26.6250   -7.2310   32.2310 C.3    82  GLN82       0.0905
     47  CD        25.7620   -7.4880   33.4530 C.2    82  GLN82       0.2608
     48  OE1       24.8890   -6.6950   33.7870 O.2    82  GLN82      -0.2717
     49  NE2       26.0420   -8.5800   34.1530 N.am   82  GLN82      -0.0878
     50  N         22.6530   -9.3000   30.9010 N.3    85  PRO85      -0.2116
     51  CA        22.4360   -9.3130   32.3570 C.3    85  PRO85       0.1372
     52  C         22.4590  -10.7170   32.9450 C.2    85  PRO85       0.2244
     53  O         21.4420  -11.2870   33.3310 O.2    85  PRO85      -0.2868
     54  CB        21.0740   -8.6410   32.4970 C.3    85  PRO85       0.0268
     55  CG        20.3720   -9.0100   31.2320 C.3    85  PRO85       0.0207
     56  CD        21.3840   -9.1900   30.1590 C.3    85  PRO85       0.0892
     57  N         24.0830  -11.7680   35.7400 N.3    87  GLY87      -0.1210
     58  CA        24.1890  -11.9240   37.1720 C.3    87  GLY87       0.1956
     59  C         24.9460  -10.7860   37.8130 C.2    87  GLY87       0.2611
     60  O         25.8430  -10.2000   37.2130 O.2    87  GLY87      -0.2717
     61  N         24.5960  -10.5010   39.0790 N.am   88  LEU88      -0.1979
     62  CA        25.2630   -9.4370   39.8150 C.3    88  LEU88       0.1596
     63  C         26.7440   -9.7180   39.9710 C.2    88  LEU88       0.2287
     64  O         27.5570   -8.7890   39.9870 O.2    88  LEU88      -0.2864
     65  CB        24.6470   -9.2680   41.2030 C.3    88  LEU88       0.0297
     66  CG        23.6370   -8.1320   41.3540 C.3    88  LEU88       0.0022
     67  CD1       22.6040   -8.1960   40.2500 C.3    88  LEU88       0.0001
     68  CD2       22.9880   -8.1580   42.7140 C.3    88  LEU88       0.0001
     69  N         23.4870   -1.5670   43.6160 N.3   108  LEU108     -0.1231
     70  CA        22.6530   -1.6630   42.4280 C.3   108  LEU108      0.1693
     71  C         22.1240   -0.2930   42.0270 C.2   108  LEU108      0.2593
     72  O         21.7610    0.5210   42.8760 O.2   108  LEU108     -0.2718
     73  CB        21.4850   -2.6110   42.6510 C.3   108  LEU108      0.0284
     74  CG        21.8540   -4.0170   43.1000 C.3   108  LEU108      0.0019
     75  CD1       20.6410   -4.9390   42.9570 C.3   108  LEU108      0.0001
     76  CD2       23.0550   -4.5660   42.3770 C.3   108  LEU108      0.0001
     77  N         22.0730   -0.0510   40.7210 N.am  109  GLY109     -0.1942
     78  CA        21.6950    1.2430   40.2030 C.3   109  GLY109      0.2014
     79  C         20.2670    1.6420   40.4710 C.2   109  GLY109      0.2639
     80  O         19.9170    2.8110   40.2790 O.2   109  GLY109     -0.2714
     81  N         19.4350    0.7180   40.9180 N.am  110  ASP110     -0.1957
     82  CA        18.0620    1.0590   41.2210 C.3   110  ASP110      0.1840
     83  C         17.7680    0.9140   42.7050 C.2   110  ASP110      0.2622
     84  O         16.6080    0.7290   43.0770 O.2   110  ASP110     -0.2715
     85  CB        17.1070    0.2060   40.3900 C.3   110  ASP110      0.1450
     86  CG        17.2780   -1.2620   40.6240 C.2   110  ASP110      0.3671
     87  OD1       18.1030   -1.6730   41.4560 O.co2 110  ASP110     -0.2456
     88  OD2       16.5700   -2.0220   39.9450 O.co2 110  ASP110     -0.2456
     89  N         18.8030    0.9310   43.5540 N.am  111  ASN111     -0.1972
     90  CA        18.6390    0.8230   44.9970 C.3   111  ASN111      0.1688
     91  C         18.7080    2.2000   45.6480 C.2   111  ASN111      0.2292
     92  O         19.7070    2.9270   45.5000 O.2   111  ASN111     -0.2864
     93  CB        19.6710   -0.1250   45.5950 C.3   111  ASN111      0.1181
     94  CG        19.1270   -1.5220   45.7240 C.2   111  ASN111      0.2629
     95  OD1       19.2650   -2.1600   46.7620 O.2   111  ASN111     -0.2716
     96  ND2       18.4140   -1.9720   44.6880 N.am  111  ASN111     -0.0877
     97  N         21.5430  -17.6470   36.8990 N.3   196  GLU196     -0.1245
     98  CA        22.2100  -16.3730   37.1230 C.3   196  GLU196      0.1567
     99  C         23.5350  -16.5760   37.8480 C.2   196  GLU196      0.2260
    100  O         23.7020  -17.5270   38.6180 O.2   196  GLU196     -0.2867
    101  CB        21.3090  -15.4460   37.9540 C.3   196  GLU196      0.0388
    102  CG        21.4410  -13.9690   37.6440 C.3   196  GLU196      0.1160
    103  CD        21.1010  -13.0800   38.8340 C.2   196  GLU196      0.3649
    104  OE1       20.0140  -13.2800   39.4130 O.co2 196  GLU196     -0.2457
    105  OE2       21.9210  -12.1870   39.1940 O.co2 196  GLU196     -0.2457
@<TRIPOS>BOND
     1    44    43    2
     2    43    42    1
     3    56    50    1
     4    56    55    1
     5    41    42    1
     6    42    45    1
     7    50    51    1
     8    55    54    1
     9    14    13    1
    10    14    15    1
    11    45    46    1
    12    22    21    1
    13    46    47    1
    14    51    54    1
    15    51    52    1
    16    13    11   am
    17    17    15   am
    18    17    18    1
    19    15    16    2
    20    52    53    2
    21    23    24    1
    22    11    10    1
    23    11    12    2
    24    47    48    2
    25    47    49   am
    26    19    18    1
    27    19    20    2
    28    21    18    1
    29    10     9    1
    30    24    27    1
    31    24    25    1
    32    39    38    2
    33    27    28    1
    34    25    32   am
    35    25    26    2
    36    32    33    1
    37    57    58    1
    38    38    40   am
    39    38    37    1
    40    34    33    1
    41    34    35    2
    42    33    36    1
    43     7     6    1
    44    36    37    1
    45    28    29    1
    46    97    98    1
    47    29    30    1
    48    98    99    1
    49    98   101    1
    50    58    59    1
    51    60    59    2
    52     6     8    1
    53     6     5    1
    54   102   101    1
    55   102   103    1
    56    59    61   am
    57    99   100    2
    58     3     2    1
    59     3     4    2
    60     2     5    1
    61     2     1    1
    62    30    31    1
    63   103   105   ar
    64   103   104   ar
    65    61    62    1
    66    62    63    1
    67    62    65    1
    68    88    86   ar
    69    63    64    2
    70    78    79    1
    71    78    77    1
    72    67    66    1
    73    80    79    2
    74    85    86    1
    75    85    82    1
    76    79    81   am
    77    86    87   ar
    78    77    71   am
    79    81    82    1
    80    65    66    1
    81    82    83    1
    82    66    68    1
    83    71    70    1
    84    71    72    2
    85    76    74    1
    86    70    73    1
    87    70    69    1
    88    73    74    1
    89    83    84    2
    90    83    89   am
    91    75    74    1
    92    89    90    1
    93    96    94   am
    94    90    93    1
    95    90    91    1
    96    92    91    2
    97    93    94    1
    98    94    95    2
