@<TRIPOS>MOLECULE
tmp/5iduC01.pdb
 138 133 0 0 0
SMALL
GASTEIGER

@<TRIPOS>ATOM
      1  N         14.5780   15.7240  -27.0340 N.3   282  ARG282     -0.1245
      2  CA        15.8940   15.7130  -26.4160 C.3   282  ARG282      0.1563
      3  C         16.9770   15.4080  -27.4390 C.2   282  ARG282      0.2260
      4  O         18.0520   16.0150  -27.4120 O.2   282  ARG282     -0.2867
      5  CB        15.9310   14.6910  -25.2860 C.3   282  ARG282      0.0307
      6  CG        17.1790   14.7700  -24.4540 C.3   282  ARG282      0.0489
      7  CD        17.2250   16.0780  -23.6830 C.3   282  ARG282      0.2205
      8  NE        18.3410   16.0680  -22.7550 N.pl3 282  ARG282     -0.0865
      9  CZ        18.5190   16.9590  -21.7880 C.cat 282  ARG282      0.5346
     10  NH1       17.6520   17.9500  -21.6200 N.pl3 282  ARG282      0.1354
     11  NH2       19.5710   16.8570  -20.9950 N.pl3 282  ARG282      0.1354
     12  N         19.8120   18.2400  -27.5650 N.3   286  ARG286     -0.1245
     13  CA        20.9090   17.9850  -26.6390 C.3   286  ARG286      0.1563
     14  C         22.2270   18.0340  -27.4030 C.2   286  ARG286      0.2260
     15  O         22.5040   17.1570  -28.2260 O.2   286  ARG286     -0.2867
     16  CB        20.7230   16.6330  -25.9570 C.3   286  ARG286      0.0307
     17  CG        21.8110   16.3260  -24.9610 C.3   286  ARG286      0.0489
     18  CD        21.7530   17.3140  -23.8250 C.3   286  ARG286      0.2205
     19  NE        22.6040   16.9070  -22.7130 N.pl3 286  ARG286     -0.0865
     20  CZ        22.8420   17.6660  -21.6530 C.cat 286  ARG286      0.5346
     21  NH1       22.3000   18.8770  -21.5750 N.pl3 286  ARG286      0.1354
     22  NH2       23.6250   17.2200  -20.6790 N.pl3 286  ARG286      0.1354
     23  N         26.2140   17.6940  -27.9360 N.3   288  MET288     -0.1230
     24  CA        27.2880   16.8640  -27.4090 C.3   288  MET288      0.1702
     25  C         28.2460   16.5070  -28.5350 C.2   288  MET288      0.2592
     26  O         27.8150   16.2650  -29.6680 O.2   288  MET288     -0.2718
     27  CB        26.7390   15.5870  -26.7680 C.3   288  MET288      0.0401
     28  CG        25.7710   14.8370  -27.6610 C.3   288  MET288      0.0596
     29  SD        25.4830   13.1710  -27.0300 S.3   288  MET288     -0.1393
     30  CE        24.7730   13.5320  -25.4200 C.3   288  MET288      0.0692
     31  N         29.5420   16.4720  -28.2070 N.am  289  PHE289     -0.1976
     32  CA        30.5950   16.0430  -29.1340 C.3   289  PHE289      0.1639
     33  C         30.5740   16.8500  -30.4330 C.2   289  PHE289      0.2290
     34  O         30.8370   16.3220  -31.5130 O.2   289  PHE289     -0.2864
     35  CB        30.4910   14.5390  -29.4170 C.3   289  PHE289      0.0560
     36  CG        30.5640   13.6910  -28.1770 C.ar  289  PHE289     -0.0200
     37  CD1       31.7800   13.4230  -27.5770 C.ar  289  PHE289     -0.0042
     38  CD2       29.4110   13.1850  -27.5950 C.ar  289  PHE289     -0.0042
     39  CE1       31.8510   12.6560  -26.4220 C.ar  289  PHE289     -0.0003
     40  CE2       29.4740   12.4120  -26.4430 C.ar  289  PHE289     -0.0003
     41  CZ        30.6930   12.1510  -25.8560 C.ar  289  PHE289     -0.0000
     42  N         22.7320   14.9910  -30.0130 N.3   293  LEU293     -0.1245
     43  CA        22.5070   13.5850  -29.7040 C.3   293  LEU293      0.1561
     44  C         21.8500   12.8620  -30.8760 C.2   293  LEU293      0.2260
     45  O         22.2180   11.7220  -31.1970 O.2   293  LEU293     -0.2867
     46  CB        21.6620   13.4670  -28.4330 C.3   293  LEU293      0.0270
     47  CG        21.1960   12.0830  -27.9880 C.3   293  LEU293      0.0019
     48  CD1       22.3770   11.1430  -27.7400 C.3   293  LEU293      0.0001
     49  CD2       20.3200   12.2100  -26.7230 C.3   293  LEU293      0.0001
     50  N         23.8710   10.9750  -33.9190 N.3   296  PHE296     -0.1241
     51  CA        24.5230    9.6770  -33.8100 C.3   296  PHE296      0.1605
     52  C         23.6450    8.5710  -34.3800 C.2   296  PHE296      0.2264
     53  O         22.4290    8.5610  -34.1700 O.2   296  PHE296     -0.2867
     54  CB        24.8440    9.3730  -32.3480 C.3   296  PHE296      0.0534
     55  CG        25.9810   10.1770  -31.8120 C.ar  296  PHE296     -0.0203
     56  CD1       27.2620    9.9950  -32.3080 C.ar  296  PHE296     -0.0042
     57  CD2       25.7720   11.1160  -30.8180 C.ar  296  PHE296     -0.0042
     58  CE1       28.3210   10.7420  -31.8180 C.ar  296  PHE296     -0.0003
     59  CE2       26.8210   11.8600  -30.3160 C.ar  296  PHE296     -0.0003
     60  CZ        28.0950   11.6740  -30.8140 C.ar  296  PHE296     -0.0000
     61  N         23.3920    5.5730  -33.3110 N.3   298  LEU298     -0.1231
     62  CA        22.7180    4.8450  -32.2410 C.3   298  LEU298      0.1693
     63  C         21.4360    5.5440  -31.8250 C.2   298  LEU298      0.2592
     64  O         20.4170    4.8900  -31.5720 O.2   298  LEU298     -0.2718
     65  CB        23.6430    4.6910  -31.0380 C.3   298  LEU298      0.0284
     66  CG        24.8220    3.7530  -31.2600 C.3   298  LEU298      0.0019
     67  CD1       25.7000    3.7300  -30.0150 C.3   298  LEU298      0.0001
     68  CD2       24.3170    2.3540  -31.6140 C.3   298  LEU298      0.0001
     69  N         21.4710    6.8750  -31.7380 N.am  299  THR299     -0.1953
     70  CA        20.2590    7.6220  -31.4060 C.3   299  THR299      0.1897
     71  C         19.2030    7.4780  -32.4920 C.2   299  THR299      0.2313
     72  O         18.0130    7.3050  -32.2010 O.2   299  THR299     -0.2863
     73  CB        20.6060    9.0890  -31.2040 C.3   299  THR299      0.1794
     74  OG1       21.5790    9.2020  -30.1560 O.3   299  THR299     -0.2208
     75  CG2       19.3540    9.9050  -30.8410 C.3   299  THR299      0.0378
     76  N         17.6750    4.0090  -32.3840 N.3   302  LYS302     -0.1245
     77  CA        16.8410    3.8500  -31.1990 C.3   302  LYS302      0.1561
     78  C         15.5110    4.5780  -31.3600 C.2   302  LYS302      0.2260
     79  O         14.4550    4.0340  -31.0100 O.2   302  LYS302     -0.2867
     80  CB        17.5830    4.3400  -29.9570 C.3   302  LYS302      0.0271
     81  CG        17.0400    3.7310  -28.6860 C.3   302  LYS302      0.0035
     82  CD        17.9890    3.9270  -27.5160 C.3   302  LYS302      0.0206
     83  CE        17.8110    5.2960  -26.9180 C.3   302  LYS302      0.1093
     84  NZ        17.7190    5.2130  -25.4450 N.3   302  LYS302     -0.1314
     85  N         16.6950    6.6440  -21.2660 N.3   354  GLN354     -0.1231
     86  CA        18.1210    6.5650  -21.5960 C.3   354  GLN354      0.1698
     87  C         18.5810    7.7860  -22.3980 C.2   354  GLN354      0.2592
     88  O         19.6770    8.3160  -22.1660 O.2   354  GLN354     -0.2718
     89  CB        18.3980    5.2640  -22.3600 C.3   354  GLN354      0.0381
     90  CG        19.8670    4.8220  -22.3980 C.3   354  GLN354      0.0905
     91  CD        20.3850    4.3530  -21.0370 C.2   354  GLN354      0.2608
     92  OE1       19.6290    4.2830  -20.0530 O.2   354  GLN354     -0.2717
     93  NE2       21.6800    4.0260  -20.9740 N.am  354  GLN354     -0.0878
     94  N         17.7520    8.2610  -23.3290 N.am  355  LEU355     -0.1966
     95  CA        18.1290    9.4330  -24.1220 C.3   355  LEU355      0.1728
     96  C         18.2520   10.6800  -23.2590 C.2   355  LEU355      0.2616
     97  O         19.0610   11.5650  -23.5540 O.2   355  LEU355     -0.2715
     98  CB        17.1000    9.6750  -25.2280 C.3   355  LEU355      0.0311
     99  CG        17.1380    8.6980  -26.3970 C.3   355  LEU355      0.0022
    100  CD1       15.8810    8.9020  -27.2470 C.3   355  LEU355      0.0001
    101  CD2       18.4180    8.8790  -27.2140 C.3   355  LEU355      0.0001
    102  N         17.4600   10.7710  -22.1970 N.am  356  TRP356     -0.1960
    103  CA        17.5250   11.9290  -21.3220 C.3   356  TRP356      0.1771
    104  C         18.6630   11.8630  -20.3150 C.2   356  TRP356      0.2620
    105  O         18.8610   12.8350  -19.5860 O.2   356  TRP356     -0.2715
    106  CB        16.1840   12.1010  -20.6060 C.3   356  TRP356      0.0590
    107  CG        15.2130   12.7760  -21.4920 C.ar  356  TRP356      0.0006
    108  CD1       14.5380   12.2270  -22.5370 C.ar  356  TRP356      0.0946
    109  CD2       14.8270   14.1470  -21.4330 C.ar  356  TRP356      0.0152
    110  NE1       13.7470   13.1790  -23.1390 N.ar  356  TRP356     -0.2442
    111  CE2       13.9060   14.3670  -22.4780 C.ar  356  TRP356      0.0810
    112  CE3       15.1750   15.2160  -20.6000 C.ar  356  TRP356      0.0012
    113  CZ2       13.3210   15.6140  -22.7100 C.ar  356  TRP356      0.0191
    114  CZ3       14.5890   16.4540  -20.8280 C.ar  356  TRP356      0.0001
    115  CH2       13.6690   16.6390  -21.8730 C.ar  356  TRP356      0.0015
    116  N         19.4180   10.7660  -20.2590 N.am  357  GLY357     -0.1940
    117  CA        20.5480   10.7230  -19.3420 C.3   357  GLY357      0.2014
    118  C         20.1050   10.8400  -17.8940 C.2   357  GLY357      0.2639
    119  O         19.1060   10.2490  -17.4740 O.2   357  GLY357     -0.2714
    120  N         20.8570   11.6260  -17.1190 N.am  358  GLY358     -0.1939
    121  CA        20.5230   11.8200  -15.7110 C.3   358  GLY358      0.2014
    122  C         19.1090   12.3330  -15.4960 C.2   358  GLY358      0.2638
    123  O         18.4020   11.8690  -14.5980 O.2   358  GLY358     -0.2714
    124  N         18.6820   13.3100  -16.3000 N.am  359  MET359     -0.1976
    125  CA        17.3170   13.8150  -16.1710 C.3   359  MET359      0.1605
    126  C         16.2720   12.7300  -16.3770 C.2   359  MET359      0.2287
    127  O         15.1360   12.8890  -15.9110 O.2   359  MET359     -0.2864
    128  CB        17.0580   14.9380  -17.1630 C.3   359  MET359      0.0413
    129  CG        17.8580   16.1820  -16.8880 C.3   359  MET359      0.0598
    130  SD        17.2150   17.5460  -17.8590 S.3   359  MET359     -0.1393
    131  CE        15.5820   17.7160  -17.1370 C.3   359  MET359      0.0692
    132  N         16.0100   10.0020  -14.9020 N.3   361  VAL361     -0.1245
    133  CA        15.6210    9.4380  -13.6170 C.3   361  VAL361      0.1561
    134  C         15.4260   10.5180  -12.5640 C.2   361  VAL361      0.2260
    135  O         15.3550   10.2090  -11.3680 O.2   361  VAL361     -0.2867
    136  CB        16.6270    8.3770  -13.1460 C.3   361  VAL361      0.0252
    137  CG1       16.6770    7.2280  -14.1590 C.3   361  VAL361      0.0019
    138  CG2       17.9990    8.9930  -12.9780 C.3   361  VAL361      0.0019
@<TRIPOS>BOND
     1    52    53    2
     2    52    51    1
     3    50    51    1
     4    51    54    1
     5    61    62    1
     6    71    72    2
     7    71    70    1
     8    76    77    1
     9    54    55    1
    10    56    58   ar
    11    56    55   ar
    12    62    63    1
    13    62    65    1
    14    63    69   am
    15    63    64    2
    16    58    60   ar
    17    55    57   ar
    18    69    70    1
    19    68    66    1
    20    34    33    2
    21    70    73    1
    22    78    77    1
    23    78    79    2
    24    66    65    1
    25    66    67    1
    26    73    75    1
    27    73    74    1
    28    77    80    1
    29    45    44    2
    30    44    43    1
    31    57    59   ar
    32    60    59   ar
    33    33    32    1
    34    42    43    1
    35    80    81    1
    36    43    46    1
    37    26    25    2
    38    35    32    1
    39    35    36    1
    40    32    31    1
    41    81    82    1
    42    25    31   am
    43    25    24    1
    44    46    47    1
    45    15    14    2
    46    36    38   ar
    47    36    37   ar
    48    47    48    1
    49    47    49    1
    50    23    24    1
    51    28    29    1
    52    28    27    1
    53    38    40   ar
    54    37    39   ar
    55    12    13    1
    56    82    83    1
    57     3     4    2
    58     3     2    1
    59    24    27    1
    60    14    13    1
    61   100    99    1
    62   101    99    1
    63     1     2    1
    64    29    30    1
    65    83    84    1
    66    13    16    1
    67    40    41   ar
    68    39    41   ar
    69     2     5    1
    70    99    98    1
    71    16    17    1
    72     5     6    1
    73    98    95    1
    74    17    18    1
    75     6     7    1
    76    95    94    1
    77    95    96    1
    78    18    19    1
    79     7     8    1
    80    97    96    2
    81    94    87   am
    82    96   102   am
    83   110   108   ar
    84   110   111   ar
    85     8     9    2
    86    19    20    2
    87   113   111   ar
    88   113   115   ar
    89   108   107   ar
    90   111   109   ar
    91    87    88    2
    92    87    86    1
    93    90    89    1
    94    90    91    1
    95    89    86    1
    96   102   103    1
    97   115   114   ar
    98     9    10    1
    99     9    11    1
   100    20    21    1
   101    20    22    1
   102    86    85    1
   103   107   109   ar
   104   107   106    1
   105   109   112   ar
   106   103   106    1
   107   103   104    1
   108    91    93   am
   109    91    92    2
   110   114   112   ar
   111   104   116   am
   112   104   105    2
   113   116   117    1
   114   117   118    1
   115   118   119    2
   116   118   120   am
   117   130   131    1
   118   130   129    1
   119   128   129    1
   120   128   125    1
   121   120   121    1
   122   126   125    1
   123   126   127    2
   124   124   125    1
   125   124   122   am
   126   121   122    1
   127   122   123    2
   128   132   133    1
   129   137   136    1
   130   133   136    1
   131   133   134    1
   132   136   138    1
   133   134   135    2
