@<TRIPOS>MOLECULE
tmp/5iduC00.pdb
 208 202 0 0 0
SMALL
GASTEIGER

@<TRIPOS>ATOM
      1  N        -11.6730    3.9670  -15.2870 N.3   110  MET110     -0.1245
      2  CA       -12.3830    3.3020  -14.2000 C.3   110  MET110      0.1570
      3  C        -13.8890    3.5250  -14.2780 C.2   110  MET110      0.2261
      4  O        -14.6540    2.6900  -13.7830 O.2   110  MET110     -0.2867
      5  CB       -11.8430    3.7650  -12.8430 C.3   110  MET110      0.0387
      6  CG       -10.4420    3.2010  -12.4850 C.3   110  MET110      0.0595
      7  SD       -10.2300    1.4330  -12.8170 S.3   110  MET110     -0.1393
      8  CE       -11.5990    0.7050  -11.9220 C.3   110  MET110      0.0692
      9  N        -14.6130    0.5570  -16.7340 N.3   113  LEU113     -0.1245
     10  CA       -14.4690   -0.7600  -16.1150 C.3   113  LEU113      0.1561
     11  C        -15.4170   -0.9200  -14.9370 C.2   113  LEU113      0.2260
     12  O        -16.0480   -1.9720  -14.7810 O.2   113  LEU113     -0.2867
     13  CB       -13.0260   -1.0000  -15.6640 C.3   113  LEU113      0.0270
     14  CG       -12.7680   -2.3290  -14.9320 C.3   113  LEU113      0.0019
     15  CD1      -12.9340   -3.5170  -15.8770 C.3   113  LEU113      0.0001
     16  CD2      -11.3820   -2.3470  -14.3090 C.3   113  LEU113      0.0001
     17  N        -14.4570   -1.6990   -9.5000 N.3   143  PHE143     -0.1241
     18  CA       -14.5560   -3.0770   -9.9880 C.3   143  PHE143      0.1605
     19  C        -13.7460   -3.9670   -9.0450 C.2   143  PHE143      0.2264
     20  O        -12.5150   -3.9900   -9.1160 O.2   143  PHE143     -0.2867
     21  CB       -14.0410   -3.1430  -11.4220 C.3   143  PHE143      0.0534
     22  CG       -14.0740   -4.5080  -12.0490 C.ar  143  PHE143     -0.0203
     23  CD1      -15.1940   -4.9370  -12.7400 C.ar  143  PHE143     -0.0042
     24  CD2      -12.9520   -5.3270  -12.0210 C.ar  143  PHE143     -0.0042
     25  CE1      -15.2170   -6.1840  -13.3500 C.ar  143  PHE143     -0.0003
     26  CE2      -12.9630   -6.5700  -12.6290 C.ar  143  PHE143     -0.0003
     27  CZ       -14.1000   -6.9960  -13.3040 C.ar  143  PHE143     -0.0000
     28  N        -12.5540   -7.3470   -7.9150 N.3   145  LEU145     -0.1231
     29  CA       -12.3780   -8.7380   -8.3220 C.3   145  LEU145      0.1693
     30  C        -11.2340   -9.4330   -7.5980 C.2   145  LEU145      0.2593
     31  O        -11.4210  -10.5420   -7.0790 O.2   145  LEU145     -0.2718
     32  CB       -12.1590   -8.8110   -9.8460 C.3   145  LEU145      0.0284
     33  CG       -11.8970  -10.1930  -10.4420 C.3   145  LEU145      0.0019
     34  CD1      -13.1160  -11.0750  -10.2340 C.3   145  LEU145      0.0001
     35  CD2      -11.5550  -10.0970  -11.9100 C.3   145  LEU145      0.0001
     36  N        -10.0570   -8.8060   -7.5300 N.am  146  SER146     -0.1938
     37  CA        -8.8600   -9.4630   -7.0250 C.3   146  SER146      0.2055
     38  C         -8.8990   -9.6120   -5.5090 C.2   146  SER146      0.2643
     39  O         -9.5250   -8.8230   -4.7960 O.2   146  SER146     -0.2714
     40  CB        -7.6050   -8.6790   -7.4250 C.3   146  SER146      0.2130
     41  OG        -7.4900   -8.5870   -8.8410 O.3   146  SER146     -0.2179
     42  N         -8.1980  -10.6300   -5.0270 N.am  147  GLU147     -0.1963
     43  CA        -8.0540  -10.9580   -3.6180 C.3   147  GLU147      0.1718
     44  C         -6.5830  -11.2020   -3.3180 C.2   147  GLU147      0.2458
     45  O         -5.8000  -11.5130   -4.2240 O.2   147  GLU147     -0.2730
     46  CB        -8.8870  -12.1980   -3.2520 C.3   147  GLU147      0.0428
     47  CG       -10.3810  -12.0080   -3.5080 C.3   147  GLU147      0.1163
     48  CD       -11.2290  -13.2400   -3.2040 C.2   147  GLU147      0.3649
     49  OE1      -10.6820  -14.3310   -2.9390 O.co2 147  GLU147     -0.2457
     50  OE2      -12.4650  -13.1090   -3.2290 O.co2 147  GLU147     -0.2457
     51  N         -6.1690  -11.0350   -2.0580 N.am  148  PRO148     -0.2716
     52  CA        -4.7650  -11.3150   -1.6980 C.3   148  PRO148      0.1536
     53  C         -4.2270  -12.6260   -2.2540 C.2   148  PRO148      0.2599
     54  O         -3.1060  -12.6510   -2.7800 O.2   148  PRO148     -0.2715
     55  CB        -4.8010  -11.3270   -0.1630 C.3   148  PRO148      0.0310
     56  CG        -5.9260  -10.3970    0.1880 C.3   148  PRO148      0.0237
     57  CD        -6.9500  -10.5200   -0.9170 C.3   148  PRO148      0.0939
     58  N         -5.0030  -13.7090   -2.1840 N.am  149  ASP149     -0.1958
     59  CA        -4.5380  -15.0210   -2.6150 C.3   149  ASP149      0.1840
     60  C         -4.9260  -15.3810   -4.0460 C.2   149  ASP149      0.2622
     61  O         -4.5490  -16.4610   -4.5100 O.2   149  ASP149     -0.2715
     62  CB        -5.0630  -16.1020   -1.6660 C.3   149  ASP149      0.1450
     63  CG        -4.5240  -15.9460   -0.2620 C.2   149  ASP149      0.3671
     64  OD1       -3.4590  -15.3100   -0.1150 O.co2 149  ASP149     -0.2456
     65  OD2       -5.1630  -16.4510    0.6850 O.co2 149  ASP149     -0.2456
     66  N         -5.6490  -14.5140   -4.7640 N.am  150  ALA150     -0.1963
     67  CA        -6.1790  -14.8910   -6.0790 C.3   150  ALA150      0.1728
     68  C         -6.2830  -13.6470   -6.9560 C.2   150  ALA150      0.2617
     69  O         -7.2140  -12.8490   -6.8040 O.2   150  ALA150     -0.2715
     70  CB        -7.5340  -15.5810   -5.9500 C.3   150  ALA150      0.0334
     71  N         -5.3480  -13.5080   -7.8880 N.am  151  GLY151     -0.1940
     72  CA        -5.4320  -12.4560   -8.8770 C.3   151  GLY151      0.2014
     73  C         -5.5280  -13.0230  -10.2780 C.2   151  GLY151      0.2640
     74  O         -6.5770  -12.9070  -10.9250 O.2   151  GLY151     -0.2714
     75  N         -4.4360  -13.6390  -10.7570 N.am  152  SER152     -0.1935
     76  CA        -4.4770  -14.3260  -12.0450 C.3   152  SER152      0.2055
     77  C         -5.5090  -15.4460  -12.0300 C.2   152  SER152      0.2643
     78  O         -6.2100  -15.6680  -13.0240 O.2   152  SER152     -0.2714
     79  CB        -3.0940  -14.8810  -12.4070 C.3   152  SER152      0.2130
     80  OG        -2.1650  -13.8450  -12.7040 O.3   152  SER152     -0.2179
     81  N         -5.6370  -16.1380  -10.8920 N.am  153  ASP153     -0.1971
     82  CA        -6.5340  -17.2860  -10.7490 C.3   153  ASP153      0.1709
     83  C         -7.8560  -16.8060  -10.1510 C.2   153  ASP153      0.2293
     84  O         -8.1410  -16.9570   -8.9600 O.2   153  ASP153     -0.2864
     85  CB        -5.8740  -18.3660   -9.9010 C.3   153  ASP153      0.1436
     86  CG        -6.6640  -19.6560   -9.8860 C.2   153  ASP153      0.3671
     87  OD1       -7.6610  -19.7510  -10.6430 O.co2 153  ASP153     -0.2456
     88  OD2       -6.2760  -20.5710   -9.1210 O.co2 153  ASP153     -0.2456
     89  N         -6.3130   -4.5040   -4.0630 N.3   176  TRP176     -0.1227
     90  CA        -5.8970   -3.7960   -5.2740 C.3   176  TRP176      0.1737
     91  C         -7.0710   -3.0890   -5.9420 C.2   176  TRP176      0.2595
     92  O         -7.1210   -2.9980   -7.1620 O.2   176  TRP176     -0.2718
     93  CB        -5.2190   -4.7180   -6.3070 C.3   176  TRP176      0.0564
     94  CG        -4.1140   -5.6060   -5.8080 C.ar  176  TRP176      0.0003
     95  CD1       -4.1120   -6.9750   -5.7680 C.ar  176  TRP176      0.0946
     96  CD2       -2.8510   -5.1880   -5.2880 C.ar  176  TRP176      0.0152
     97  NE1       -2.9270   -7.4320   -5.2480 N.ar  176  TRP176     -0.2442
     98  CE2       -2.1340   -6.3560   -4.9450 C.ar  176  TRP176      0.0810
     99  CE3       -2.2570   -3.9410   -5.0750 C.ar  176  TRP176      0.0012
    100  CZ2       -0.8530   -6.3120   -4.3990 C.ar  176  TRP176      0.0191
    101  CZ3       -0.9860   -3.8980   -4.5360 C.ar  176  TRP176      0.0001
    102  CH2       -0.2960   -5.0760   -4.2040 C.ar  176  TRP176      0.0015
    103  N         -8.0280   -2.5710   -5.1850 N.am  177  ILE177     -0.1966
    104  CA        -9.2690   -2.0710   -5.7810 C.3   177  ILE177      0.1727
    105  C         -9.0810   -0.6120   -6.1850 C.2   177  ILE177      0.2616
    106  O         -9.0250    0.2780   -5.3310 O.2   177  ILE177     -0.2715
    107  CB       -10.4610   -2.2380   -4.8350 C.3   177  ILE177      0.0290
    108  CG1      -10.6380   -3.7190   -4.4770 C.3   177  ILE177      0.0022
    109  CG2      -11.7140   -1.6540   -5.4630 C.3   177  ILE177      0.0023
    110  CD1      -10.4310   -4.6710   -5.6840 C.3   177  ILE177      0.0001
    111  N         -8.9970   -0.3710   -7.4920 N.am  178  SER178     -0.1950
    112  CA        -8.9060    0.9870   -8.0090 C.3   178  SER178      0.1924
    113  C        -10.1280    1.8050   -7.6070 C.2   178  SER178      0.2314
    114  O        -11.2550    1.3050   -7.6140 O.2   178  SER178     -0.2863
    115  CB        -8.7750    0.9580   -9.5320 C.3   178  SER178      0.2116
    116  OG        -7.5680    0.3230   -9.9190 O.3   178  SER178     -0.2180
    117  N          1.3020    2.6490   -4.6540 N.3   221  VAL221     -0.1245
    118  CA         1.9760    1.9960   -5.7680 C.3   221  VAL221      0.1561
    119  C          2.8900    3.0050   -6.4650 C.2   221  VAL221      0.2260
    120  O          2.7800    4.2180   -6.2790 O.2   221  VAL221     -0.2867
    121  CB         0.9840    1.3670   -6.7620 C.3   221  VAL221      0.0252
    122  CG1        0.3650    0.1120   -6.1650 C.3   221  VAL221      0.0019
    123  CG2       -0.1010    2.3710   -7.1520 C.3   221  VAL221      0.0019
    124  N         -2.3350    6.4600   -7.2060 N.3   225  HIS225     -0.1241
    125  CA        -3.7270    6.7700   -7.5300 C.3   225  HIS225      0.1621
    126  C         -4.6230    6.0650   -6.5100 C.2   225  HIS225      0.2264
    127  O         -4.1150    5.2520   -5.7240 O.2   225  HIS225     -0.2867
    128  CB        -4.0480    6.3530   -8.9720 C.3   225  HIS225      0.0745
    129  CG        -3.9740    4.8780   -9.2130 C.ar  225  HIS225      0.0817
    130  ND1       -2.9340    4.2890   -9.8980 N.ar  225  HIS225     -0.2268
    131  CD2       -4.8170    3.8740   -8.8740 C.ar  225  HIS225      0.1154
    132  CE1       -3.1370    2.9860   -9.9660 C.ar  225  HIS225      0.1986
    133  NE2       -4.2730    2.7080   -9.3540 N.ar  225  HIS225     -0.2212
    134  N         -6.4460    3.5540   -4.4290 N.3   227  LEU227     -0.1245
    135  CA        -6.2800    2.1060   -4.4020 C.3   227  LEU227      0.1561
    136  C         -6.4800    1.6390   -2.9660 C.2   227  LEU227      0.2260
    137  O         -5.9190    2.2430   -2.0480 O.2   227  LEU227     -0.2867
    138  CB        -4.8820    1.7360   -4.9120 C.3   227  LEU227      0.0270
    139  CG        -4.6180    0.3980   -5.5920 C.3   227  LEU227      0.0019
    140  CD1       -5.4560    0.2800   -6.8270 C.3   227  LEU227      0.0001
    141  CD2       -3.1480    0.3030   -5.9540 C.3   227  LEU227      0.0001
    142  N          2.6830   -1.2790  -14.2220 N.3   376  ALA376     -0.1245
    143  CA         1.5810   -2.1560  -13.8020 C.3   376  ALA376      0.1562
    144  C          0.6830   -2.6120  -14.9490 C.2   376  ALA376      0.2260
    145  O         -0.0540   -3.5960  -14.7860 O.2   376  ALA376     -0.2867
    146  CB         0.7030   -1.4620  -12.7570 C.3   376  ALA376      0.0290
    147  N          0.8740   -6.1520  -15.8930 N.3   379  ILE379     -0.1231
    148  CA         0.5500   -7.1350  -14.8630 C.3   379  ILE379      0.1692
    149  C         -0.9540   -7.3540  -14.7500 C.2   379  ILE379      0.2592
    150  O         -1.4240   -8.4940  -14.7350 O.2   379  ILE379     -0.2718
    151  CB         1.1550   -6.7330  -13.4980 C.3   379  ILE379      0.0266
    152  CG1        2.6870   -6.6790  -13.5840 C.3   379  ILE379      0.0019
    153  CG2        0.7030   -7.7080  -12.4190 C.3   379  ILE379      0.0020
    154  CD1        3.3620   -5.9950  -12.3880 C.3   379  ILE379      0.0001
    155  N         -1.7300   -6.2760  -14.6720 N.am  380  TYR380     -0.1962
    156  CA        -3.1500   -6.4510  -14.4330 C.3   380  TYR380      0.1771
    157  C         -3.9050   -6.6640  -15.7480 C.2   380  TYR380      0.2619
    158  O         -3.3360   -6.5970  -16.8460 O.2   380  TYR380     -0.2715
    159  CB        -3.7130   -5.2820  -13.6140 C.3   380  TYR380      0.0574
    160  CG        -3.5930   -3.8890  -14.2060 C.ar  380  TYR380     -0.0198
    161  CD1       -4.1760   -3.5710  -15.4290 C.ar  380  TYR380     -0.0009
    162  CD2       -2.9490   -2.8800  -13.5070 C.ar  380  TYR380     -0.0009
    163  CE1       -4.0870   -2.3040  -15.9490 C.ar  380  TYR380      0.0417
    164  CE2       -2.8590   -1.6090  -14.0180 C.ar  380  TYR380      0.0417
    165  CZ        -3.4280   -1.3250  -15.2400 C.ar  380  TYR380      0.1957
    166  OH        -3.3400   -0.0540  -15.7570 O.3   380  TYR380     -0.2866
    167  N         -5.2120   -6.9220  -15.6010 N.am  381  GLU381     -0.1963
    168  CA        -6.1370   -7.3050  -16.6740 C.3   381  GLU381      0.1733
    169  C         -5.4880   -8.3020  -17.6300 C.2   381  GLU381      0.2617
    170  O         -5.5190   -8.1560  -18.8560 O.2   381  GLU381     -0.2715
    171  CB        -6.6730   -6.0740  -17.4040 C.3   381  GLU381      0.0429
    172  CG        -7.3370   -5.0910  -16.4460 C.3   381  GLU381      0.1163
    173  CD        -8.0540   -3.9500  -17.1420 C.2   381  GLU381      0.3649
    174  OE1       -8.6170   -4.1780  -18.2290 O.co2 381  GLU381     -0.2457
    175  OE2       -8.0600   -2.8250  -16.5960 O.co2 381  GLU381     -0.2457
    176  N         -4.9020   -9.3410  -17.0380 N.am  382  GLY382     -0.1940
    177  CA        -4.1780  -10.3520  -17.7790 C.3   382  GLY382      0.2014
    178  C         -2.7100  -10.0080  -17.9150 C.2   382  GLY382      0.2638
    179  O         -2.3370   -9.2360  -18.8030 O.2   382  GLY382     -0.2714
    180  N         -1.8710  -10.5480  -17.0250 N.am  383  ALA383     -0.1977
    181  CA        -0.4290  -10.4150  -17.1750 C.3   383  ALA383      0.1597
    182  C         -0.0040  -10.9040  -18.5530 C.2   383  ALA383      0.2287
    183  O         -0.6830  -11.7150  -19.1780 O.2   383  ALA383     -0.2864
    184  CB         0.3010  -11.2000  -16.0870 C.3   383  ALA383      0.0319
    185  N          2.0460  -13.0110  -19.7330 N.3   385  GLU385     -0.1231
    186  CA         2.1050  -14.4500  -19.9840 C.3   385  GLU385      0.1699
    187  C          0.7110  -15.0400  -20.2300 C.2   385  GLU385      0.2592
    188  O          0.5580  -15.9630  -21.0400 O.2   385  GLU385     -0.2718
    189  CB         2.8000  -15.1550  -18.8110 C.3   385  GLU385      0.0402
    190  CG         4.2730  -14.7510  -18.5930 C.3   385  GLU385      0.1161
    191  CD         4.4560  -13.3190  -18.0910 C.2   385  GLU385      0.3649
    192  OE1        3.5470  -12.7950  -17.4040 O.co2 385  GLU385     -0.2457
    193  OE2        5.5070  -12.7030  -18.3940 O.co2 385  GLU385     -0.2457
    194  N         -0.3170  -14.5210  -19.5550 N.am  386  VAL386     -0.1980
    195  CA        -1.6770  -15.0070  -19.7840 C.3   386  VAL386      0.1595
    196  C         -2.1260  -14.6850  -21.2090 C.2   386  VAL386      0.2287
    197  O         -2.7380  -15.5200  -21.8890 O.2   386  VAL386     -0.2864
    198  CB        -2.6360  -14.4110  -18.7360 C.3   386  VAL386      0.0276
    199  CG1       -4.0870  -14.7280  -19.0820 C.3   386  VAL386      0.0022
    200  CG2       -2.2890  -14.9270  -17.3530 C.3   386  VAL386      0.0022
    201  N         -0.5420  -17.1410  -23.6660 N.3   389  LEU389     -0.1245
    202  CA        -1.2200  -18.4340  -23.6750 C.3   389  LEU389      0.1561
    203  C         -2.5650  -18.3590  -24.3960 C.2   389  LEU389      0.2260
    204  O         -2.9300  -19.2820  -25.1290 O.2   389  LEU389     -0.2867
    205  CB        -1.3900  -18.9430  -22.2420 C.3   389  LEU389      0.0270
    206  CG        -0.0510  -19.2450  -21.5650 C.3   389  LEU389      0.0019
    207  CD1       -0.1900  -19.3900  -20.0490 C.3   389  LEU389      0.0001
    208  CD2        0.5710  -20.4950  -22.1730 C.3   389  LEU389      0.0001
@<TRIPOS>BOND
     1   204   203    2
     2   203   202    1
     3   202   201    1
     4   202   205    1
     5   205   206    1
     6   208   206    1
     7   197   196    2
     8   206   207    1
     9   196   195    1
    10   188   187    2
    11   187   186    1
    12   187   194   am
    13   186   185    1
    14   186   189    1
    15   195   194    1
    16   195   198    1
    17   183   182    2
    18   199   198    1
    19   170   169    2
    20   189   190    1
    21   179   178    2
    22   198   200    1
    23   190   191    1
    24   182   181    1
    25   193   191   ar
    26   174   173   ar
    27   191   192   ar
    28   178   177    1
    29   178   180   am
    30   177   176    1
    31   169   176   am
    32   169   168    1
    33   171   168    1
    34   171   172    1
    35   181   180    1
    36   181   184    1
    37   173   175   ar
    38   173   172    1
    39   158   157    2
    40     9    10    1
    41   168   167    1
    42    10    13    1
    43    10    11    1
    44   163   161   ar
    45   163   165   ar
    46   147   148    1
    47    15    14    1
    48   166   165    1
    49   157   167   am
    50   157   156    1
    51    13    14    1
    52   161   160   ar
    53     1     2    1
    54   165   164   ar
    55   144   145    2
    56   144   143    1
    57    11    12    2
    58    14    16    1
    59   148   149    1
    60   148   151    1
    61   149   150    2
    62   149   155   am
    63   155   156    1
    64   156   159    1
    65     3     2    1
    66     3     4    2
    67   142   143    1
    68   160   159    1
    69   160   162   ar
    70     2     5    1
    71   164   162   ar
    72   143   146    1
    73   152   151    1
    74   152   154    1
    75   151   153    1
    76    25    27   ar
    77    25    23   ar
    78    27    26   ar
    79    78    77    2
    80     5     6    1
    81     7     6    1
    82     7     8    1
    83    23    22   ar
    84    80    79    1
    85    26    24   ar
    86    79    76    1
    87    22    24   ar
    88    22    21    1
    89    76    77    1
    90    76    75    1
    91    77    81   am
    92    35    33    1
    93    21    18    1
    94    74    73    2
    95    81    82    1
    96    75    73   am
    97    82    83    1
    98    82    85    1
    99    87    86   ar
   100    33    34    1
   101    33    32    1
   102    73    72    1
   103    83    84    2
   104    18    17    1
   105    18    19    1
   106   132   130   ar
   107   132   133   ar
   108   116   115    1
   109    85    86    1
   110   130   129   ar
   111    86    88   ar
   112    32    29    1
   113   115   112    1
   114   133   131   ar
   115   129   128    1
   116   129   131   ar
   117    20    19    2
   118   128   125    1
   119    72    71    1
   120    41    40    1
   121    29    28    1
   122    29    30    1
   123   112   113    1
   124   112   111    1
   125    71    68   am
   126   114   113    2
   127    30    36   am
   128    30    31    2
   129   125   124    1
   130   125   126    1
   131    36    37    1
   132   111   105   am
   133    40    37    1
   134    92    91    2
   135   123   121    1
   136    37    38    1
   137    68    69    2
   138    68    67    1
   139   140   139    1
   140   121   122    1
   141   121   118    1
   142   126   127    2
   143   119   120    2
   144   119   118    1
   145    93    94    1
   146    93    90    1
   147   105   104    1
   148   105   106    2
   149    67    70    1
   150    67    66    1
   151   141   139    1
   152    91    90    1
   153    91   103   am
   154    94    95   ar
   155    94    96   ar
   156   104   103    1
   157   104   107    1
   158   118   117    1
   159    95    97   ar
   160   110   108    1
   161   139   138    1
   162    38    42   am
   163    38    39    2
   164   109   107    1
   165    96    99   ar
   166    96    98   ar
   167    90    89    1
   168    97    98   ar
   169    99   101   ar
   170    42    43    1
   171    98   100   ar
   172   138   135    1
   173   107   108    1
   174    66    60   am
   175   101   102   ar
   176    61    60    2
   177   134   135    1
   178   135   136    1
   179   100   102   ar
   180    45    44    2
   181    60    59    1
   182    43    44    1
   183    43    46    1
   184    47    46    1
   185    47    48    1
   186    44    51   am
   187    50    48   ar
   188    48    49   ar
   189   136   137    2
   190    54    53    2
   191    59    58    1
   192    59    62    1
   193    53    58   am
   194    53    52    1
   195    51    52    1
   196    51    57    1
   197    52    55    1
   198    62    63    1
   199    57    56    1
   200    63    64   ar
   201    63    65   ar
   202    55    56    1
