@<TRIPOS>MOLECULE
tmp/5idzB00.pdb
 135 125 0 0 0
SMALL
GASTEIGER

@<TRIPOS>ATOM
      1  N         57.1050  244.1670  -86.2360 N.3    39  ALA39      -0.1231
      2  CA        57.7010  244.7530  -87.4330 C.3    39  ALA39       0.1694
      3  C         57.5800  246.2740  -87.4370 C.2    39  ALA39       0.2592
      4  O         58.4820  246.9740  -87.8950 O.2    39  ALA39      -0.2718
      5  CB        57.0600  244.1690  -88.6820 C.3    39  ALA39       0.0304
      6  N         56.4610  246.7810  -86.9310 N.am   40  SER40      -0.1952
      7  CA        56.2480  248.2210  -86.8560 C.3    40  SER40       0.1924
      8  C         55.5770  248.6220  -85.5500 C.2    40  SER40       0.2314
      9  O         54.9800  247.7930  -84.8610 O.2    40  SER40      -0.2863
     10  CB        55.4080  248.7050  -88.0400 C.3    40  SER40       0.2116
     11  OG        56.1440  248.6410  -89.2490 O.3    40  SER40      -0.2180
     12  N         48.0320  239.3750  -95.0010 N.3   166  GLN166     -0.1231
     13  CA        49.2670  239.0510  -94.2890 C.3   166  GLN166      0.1698
     14  C         49.4530  237.5710  -93.9410 C.2   166  GLN166      0.2592
     15  O         50.4810  236.9840  -94.2760 O.2   166  GLN166     -0.2718
     16  CB        49.3530  239.8880  -93.0070 C.3   166  GLN166      0.0381
     17  CG        50.7160  239.8590  -92.3310 C.3   166  GLN166      0.0905
     18  CD        50.8490  240.9030  -91.2370 C.2   166  GLN166      0.2608
     19  OE1       50.7060  240.6020  -90.0520 O.2   166  GLN166     -0.2717
     20  NE2       51.1250  242.1410  -91.6330 N.am  166  GLN166     -0.0878
     21  N         48.4800  236.9710  -93.2610 N.am  167  GLU167     -0.1979
     22  CA        48.6370  235.5930  -92.7930 C.3   167  GLU167      0.1602
     23  C         47.4420  234.6950  -93.1070 C.2   167  GLU167      0.2287
     24  O         46.2900  235.1260  -93.0630 O.2   167  GLU167     -0.2864
     25  CB        48.8870  235.5710  -91.2820 C.3   167  GLU167      0.0415
     26  CG        50.1010  236.3600  -90.8220 C.3   167  GLU167      0.1163
     27  CD        50.1240  236.5570  -89.3180 C.2   167  GLU167      0.3649
     28  OE1       49.3180  235.9020  -88.6210 O.co2 167  GLU167     -0.2457
     29  OE2       50.9460  237.3660  -88.8340 O.co2 167  GLU167     -0.2457
     30  N         58.1340  234.1030  -89.8740 N.3   210  GLU210     -0.1245
     31  CA        57.4570  233.2650  -88.8880 C.3   210  GLU210      0.1567
     32  C         57.3620  231.8070  -89.3300 C.2   210  GLU210      0.2260
     33  O         56.6750  231.0050  -88.6970 O.2   210  GLU210     -0.2867
     34  CB        56.0560  233.8060  -88.5890 C.3   210  GLU210      0.0388
     35  CG        56.0190  235.2780  -88.2000 C.3   210  GLU210      0.1160
     36  CD        55.9420  236.1990  -89.4050 C.2   210  GLU210      0.3649
     37  OE1       55.5620  235.7200  -90.4940 O.co2 210  GLU210     -0.2457
     38  OE2       56.2630  237.3990  -89.2640 O.co2 210  GLU210     -0.2457
     39  N         44.9540  236.5240  -90.7880 N.3   245  ASP245     -0.1239
     40  CA        45.3630  237.8610  -90.3730 C.3   245  ASP245      0.1674
     41  C         45.5230  238.7080  -91.6280 C.2   245  ASP245      0.2266
     42  O         46.4300  238.4850  -92.4280 O.2   245  ASP245     -0.2867
     43  CB        46.6640  237.8370  -89.5660 C.3   245  ASP245      0.1410
     44  CG        47.0100  239.2000  -88.9660 C.2   245  ASP245      0.3668
     45  OD1       46.3460  240.2020  -89.3140 O.co2 245  ASP245     -0.2456
     46  OD2       47.9480  239.2710  -88.1410 O.co2 245  ASP245     -0.2456
     47  N         45.6190  242.2780  -91.6970 N.3   247  ALA247     -0.1245
     48  CA        46.4170  243.4780  -91.4470 C.3   247  ALA247      0.1562
     49  C         46.0880  244.5470  -92.4810 C.2   247  ALA247      0.2260
     50  O         46.9570  244.9850  -93.2360 O.2   247  ALA247     -0.2867
     51  CB        47.9060  243.1520  -91.4600 C.3   247  ALA247      0.0290
     52  N         41.5340  238.4030  -88.5290 N.3   293  GLU293     -0.1245
     53  CA        42.2120  239.4260  -87.7440 C.3   293  GLU293      0.1567
     54  C         42.4330  240.6890  -88.5720 C.2   293  GLU293      0.2260
     55  O         42.8590  240.6150  -89.7270 O.2   293  GLU293     -0.2867
     56  CB        43.5440  238.8850  -87.2200 C.3   293  GLU293      0.0388
     57  CG        44.3750  239.8820  -86.4350 C.3   293  GLU293      0.1160
     58  CD        45.7270  239.3160  -86.0470 C.2   293  GLU293      0.3649
     59  OE1       45.8320  238.0810  -85.8940 O.co2 293  GLU293     -0.2457
     60  OE2       46.6870  240.1020  -85.9120 O.co2 293  GLU293     -0.2457
     61  N         43.8060  243.7570  -83.7130 N.3   318  ASP318     -0.1225
     62  CA        45.2500  243.7630  -83.5070 C.3   318  ASP318      0.1805
     63  C         45.7730  245.1970  -83.5560 C.2   318  ASP318      0.2597
     64  O         46.1250  245.7720  -82.5250 O.2   318  ASP318     -0.2718
     65  CB        45.9420  242.8870  -84.5550 C.3   318  ASP318      0.1424
     66  CG        47.4460  242.7960  -84.3530 C.2   318  ASP318      0.3668
     67  OD1       48.1330  242.3020  -85.2730 O.co2 318  ASP318     -0.2456
     68  OD2       47.9410  243.2090  -83.2820 O.co2 318  ASP318     -0.2456
     69  N         45.8170  245.7720  -84.7540 N.am  319  ASP319     -0.1974
     70  CA        46.1530  247.1840  -84.9110 C.3   319  ASP319      0.1709
     71  C         45.0760  248.0490  -84.2680 C.2   319  ASP319      0.2293
     72  O         45.3370  249.1680  -83.8230 O.2   319  ASP319     -0.2864
     73  CB        46.3050  247.5490  -86.3900 C.3   319  ASP319      0.1436
     74  CG        47.4340  246.7960  -87.0670 C.2   319  ASP319      0.3671
     75  OD1       48.4950  246.6120  -86.4320 O.co2 319  ASP319     -0.2456
     76  OD2       47.2580  246.3870  -88.2360 O.co2 319  ASP319     -0.2456
     77  N         43.4520  240.1980  -79.6510 N.3   341  LEU341     -0.1245
     78  CA        44.7770  239.6200  -79.8160 C.3   341  LEU341      0.1561
     79  C         45.6660  240.1400  -78.6980 C.2   341  LEU341      0.2260
     80  O         45.7140  241.3440  -78.4460 O.2   341  LEU341     -0.2867
     81  CB        45.3700  239.9620  -81.1810 C.3   341  LEU341      0.0270
     82  CG        46.5130  239.0420  -81.6150 C.3   341  LEU341      0.0019
     83  CD1       45.9710  237.6840  -82.0410 C.3   341  LEU341      0.0001
     84  CD2       47.3340  239.6700  -82.7270 C.3   341  LEU341      0.0001
     85  N         49.2300  240.7850  -77.1940 N.3   343  LYS343     -0.1245
     86  CA        50.6730  240.9320  -77.3430 C.3   343  LYS343      0.1561
     87  C         51.2380  241.6530  -76.1280 C.2   343  LYS343      0.2260
     88  O         51.0460  242.8590  -75.9730 O.2   343  LYS343     -0.2867
     89  CB        51.0160  241.6930  -78.6250 C.3   343  LYS343      0.0271
     90  CG        50.6550  240.9500  -79.9010 C.3   343  LYS343      0.0035
     91  CD        50.8280  241.8360  -81.1230 C.3   343  LYS343      0.0206
     92  CE        50.6670  241.0370  -82.4070 C.3   343  LYS343      0.1093
     93  NZ        50.8060  241.8930  -83.6170 N.3   343  LYS343     -0.1314
     94  N         49.4540  235.9330  -78.7410 N.3   370  SER370     -0.1202
     95  CA        50.1800  236.0100  -80.0010 C.3   370  SER370      0.2020
     96  C         51.6740  236.2890  -79.8530 C.2   370  SER370      0.2619
     97  O         52.1210  236.9610  -78.9220 O.2   370  SER370     -0.2717
     98  CB        49.5580  237.0850  -80.8950 C.3   370  SER370      0.2103
     99  OG        50.2690  237.2080  -82.1160 O.3   370  SER370     -0.2182
    100  N         52.4310  235.7510  -80.7990 N.am  371  HIS371     -0.1961
    101  CA        53.8470  236.0350  -80.9470 C.3   371  HIS371      0.1787
    102  C         54.0360  237.3610  -81.6640 C.2   371  HIS371      0.2620
    103  O         53.0640  237.9840  -82.0950 O.2   371  HIS371     -0.2715
    104  CB        54.5200  234.9100  -81.7310 C.3   371  HIS371      0.0785
    105  CG        54.0160  234.7740  -83.1360 C.ar  371  HIS371      0.0821
    106  ND1       52.6780  234.6290  -83.4330 N.ar  371  HIS371     -0.2267
    107  CD2       54.6690  234.7310  -84.3200 C.ar  371  HIS371      0.1154
    108  CE1       52.5270  234.5220  -84.7400 C.ar  371  HIS371      0.1986
    109  NE2       53.7200  234.5770  -85.3020 N.ar  371  HIS371     -0.2212
    110  N         55.2860  237.7930  -81.7870 N.am  372  ARG372     -0.1963
    111  CA        55.6240  238.8980  -82.6740 C.3   372  ARG372      0.1729
    112  C         56.4050  238.3350  -83.8520 C.2   372  ARG372      0.2616
    113  O         56.8440  237.1850  -83.8120 O.2   372  ARG372     -0.2715
    114  CB        56.4360  239.9750  -81.9490 C.3   372  ARG372      0.0348
    115  CG        55.7370  240.6120  -80.7550 C.3   372  ARG372      0.0492
    116  CD        54.2640  240.8860  -81.0300 C.3   372  ARG372      0.2205
    117  NE        54.0530  241.8050  -82.1470 N.pl3 372  ARG372     -0.0865
    118  CZ        54.0370  243.1300  -82.0390 C.cat 372  ARG372      0.5346
    119  NH1       54.2300  243.7070  -80.8610 N.pl3 372  ARG372      0.1354
    120  NH2       53.8300  243.8810  -83.1130 N.pl3 372  ARG372      0.1354
    121  N         56.5730  239.1340  -84.9010 N.am  373  SER373     -0.1950
    122  CA        57.3490  238.7030  -86.0600 C.3   373  SER373      0.1924
    123  C         58.8100  238.5110  -85.6670 C.2   373  SER373      0.2314
    124  O         59.5250  237.7060  -86.2620 O.2   373  SER373     -0.2863
    125  CB        57.2210  239.7100  -87.2030 C.3   373  SER373      0.2116
    126  OG        57.5060  241.0240  -86.7590 O.3   373  SER373     -0.2180
    127  N         48.3640  231.8950  -81.4140 N.3   394  LYS394     -0.1245
    128  CA        49.1320  231.8100  -82.6480 C.3   394  LYS394      0.1561
    129  C         50.5760  232.2100  -82.3630 C.2   394  LYS394      0.2260
    130  O         50.8530  233.3010  -81.8620 O.2   394  LYS394     -0.2867
    131  CB        48.5180  232.6720  -83.7630 C.3   394  LYS394      0.0271
    132  CG        48.5470  234.1760  -83.5500 C.3   394  LYS394      0.0035
    133  CD        48.2870  234.9040  -84.8590 C.3   394  LYS394      0.0206
    134  CE        48.6540  236.3720  -84.7590 C.3   394  LYS394      0.1093
    135  NZ        48.6070  237.0440  -86.0840 N.3   394  LYS394     -0.1314
@<TRIPOS>BOND
     1    12    13    1
     2    13    14    1
     3    13    16    1
     4    15    14    2
     5    14    21   am
     6    21    22    1
     7    50    49    2
     8    23    24    2
     9    23    22    1
    10    16    17    1
    11    22    25    1
    12    49    48    1
    13    42    41    2
    14    17    18    1
    15    47    48    1
    16    20    18   am
    17    41    40    1
    18    51    48    1
    19    25    26    1
    20    18    19    2
    21    26    27    1
    22    39    40    1
    23    37    36   ar
    24    40    43    1
    25    30    31    1
    26    55    54    2
    27    43    44    1
    28    36    38   ar
    29    36    35    1
    30    32    31    1
    31    32    33    2
    32    27    29   ar
    33    27    28   ar
    34    45    44   ar
    35    11    10    1
    36    44    46   ar
    37    31    34    1
    38     5     2    1
    39    34    35    1
    40    54    53    1
    41    52    53    1
    42    76    74   ar
    43    10     7    1
    44     4     3    2
    45    53    56    1
    46     3     2    1
    47     3     6   am
    48     2     1    1
    49    56    57    1
    50   125   126    1
    51   125   122    1
    52    74    75   ar
    53    74    73    1
    54     6     7    1
    55     7     8    1
    56    57    58    1
    57    73    70    1
    58   124   123    2
    59   135   134    1
    60   122   123    1
    61   122   121    1
    62    58    60   ar
    63    58    59   ar
    64     8     9    2
    65   109   108   ar
    66   109   107   ar
    67    67    66   ar
    68    70    69    1
    69    70    71    1
    70   121   112   am
    71   133   134    1
    72   133   132    1
    73    69    63   am
    74   108   106   ar
    75    65    66    1
    76    65    62    1
    77    66    68   ar
    78   107   105   ar
    79    71    72    2
    80   112   113    2
    81   112   111    1
    82   131   132    1
    83   131   128    1
    84    61    62    1
    85    93    92    1
    86    63    62    1
    87    63    64    2
    88   106   105   ar
    89   105   104    1
    90   120   118    1
    91    84    82    1
    92   111   114    1
    93   111   110    1
    94   128   129    1
    95   128   127    1
    96    92    91    1
    97   129   130    2
    98   117   118    2
    99   117   116    1
   100    99    98    1
   101   103   102    2
   102    83    82    1
   103   118   119    1
   104   114   115    1
   105   110   102   am
   106   104   101    1
   107   102   101    1
   108    82    81    1
   109    81    78    1
   110    91    90    1
   111   116   115    1
   112   101   100    1
   113    98    95    1
   114   100    96   am
   115    95    96    1
   116    95    94    1
   117    90    89    1
   118    96    97    2
   119    78    77    1
   120    78    79    1
   121    79    80    2
   122    89    86    1
   123    86    85    1
   124    86    87    1
   125    87    88    2
