@<TRIPOS>MOLECULE
tmp/5ie0A00.pdb
 78 75 0 0 0
SMALL
GASTEIGER

@<TRIPOS>ATOM
      1  N        123.6760   -5.5480  160.9550 N.3   205  HIS205     -0.1226
      2  CA       122.5590   -4.6490  161.2540 C.3   205  HIS205      0.1752
      3  C        122.2570   -3.8250  159.9990 C.2   205  HIS205      0.2596
      4  O        123.1160   -3.6930  159.1360 O.2   205  HIS205     -0.2718
      5  CB       122.8790   -3.7440  162.4450 C.3   205  HIS205      0.0759
      6  CG       122.9690   -4.4740  163.7500 C.ar  205  HIS205      0.0818
      7  ND1      121.9210   -5.2040  164.2650 N.ar  205  HIS205     -0.2268
      8  CD2      123.9790   -4.5810  164.6460 C.ar  205  HIS205      0.1154
      9  CE1      122.2810   -5.7330  165.4220 C.ar  205  HIS205      0.1986
     10  NE2      123.5240   -5.3700  165.6760 N.ar  205  HIS205     -0.2212
     11  N        121.0440   -3.2860  159.8820 N.am  206  VAL206     -0.1966
     12  CA       120.6320   -2.6720  158.6190 C.3   206  VAL206      0.1727
     13  C        121.2960   -1.3250  158.3120 C.2   206  VAL206      0.2616
     14  O        121.3270   -0.9150  157.1570 O.2   206  VAL206     -0.2715
     15  CB       119.0930   -2.4800  158.5420 C.3   206  VAL206      0.0290
     16  CG1      118.4000   -3.8190  158.4050 C.3   206  VAL206      0.0023
     17  CG2      118.5730   -1.7400  159.7540 C.3   206  VAL206      0.0023
     18  N        121.8250   -0.6310  159.3160 N.am  207  HIS207     -0.1973
     19  CA       122.4870    0.6470  159.0330 C.3   207  HIS207      0.1656
     20  C        123.6900    0.4260  158.1110 C.2   207  HIS207      0.2291
     21  O        123.7490    0.9800  157.0170 O.2   207  HIS207     -0.2864
     22  CB       122.9140    1.3500  160.3270 C.3   207  HIS207      0.0771
     23  CG       123.4870    2.7200  160.1160 C.ar  207  HIS207      0.0820
     24  ND1      123.6260    3.6310  161.1420 N.ar  207  HIS207     -0.2267
     25  CD2      123.9710    3.3300  159.0080 C.ar  207  HIS207      0.1154
     26  CE1      124.1670    4.7410  160.6750 C.ar  207  HIS207      0.1986
     27  NE2      124.3900    4.5830  159.3810 N.ar  207  HIS207     -0.2212
     28  N        120.6190    5.9280  163.5620 N.3   280  SER280     -0.1217
     29  CA       120.4130    4.8460  164.5500 C.3   280  SER280      0.1889
     30  C        120.1980    5.3450  165.9830 C.2   280  SER280      0.2288
     31  O        119.5400    4.6780  166.7750 O.2   280  SER280     -0.2866
     32  CB       121.5700    3.8370  164.5410 C.3   280  SER280      0.2089
     33  OG       121.7330    3.2350  163.2660 O.3   280  SER280     -0.2183
     34  N        115.9210    5.7300  161.3170 N.3   304  ALA304     -0.1231
     35  CA       115.8220    4.3980  160.7330 C.3   304  ALA304      0.1694
     36  C        115.6200    3.2970  161.7730 C.2   304  ALA304      0.2592
     37  O        115.9180    3.4810  162.9540 O.2   304  ALA304     -0.2718
     38  CB       117.0700    4.1140  159.9200 C.3   304  ALA304      0.0304
     39  N        115.1180    2.1510  161.3230 N.am  305  MET305     -0.1965
     40  CA       115.0110    0.9720  162.1800 C.3   305  MET305      0.1736
     41  C        114.8550   -0.2860  161.3320 C.2   305  MET305      0.2617
     42  O        114.5310   -0.2100  160.1450 O.2   305  MET305     -0.2715
     43  CB       113.8420    1.1060  163.1670 C.3   305  MET305      0.0427
     44  CG       112.4490    1.0490  162.5440 C.3   305  MET305      0.0599
     45  SD       111.1600    1.6260  163.6800 S.3   305  MET305     -0.1393
     46  CE       111.2730    0.4230  165.0020 C.3   305  MET305      0.0692
     47  N        115.0940   -1.4390  161.9510 N.am  306  THR306     -0.1951
     48  CA       115.0840   -2.7220  161.2540 C.3   306  THR306      0.1897
     49  C        113.7620   -2.9990  160.5400 C.2   306  THR306      0.2313
     50  O        113.7510   -3.4440  159.3910 O.2   306  THR306     -0.2863
     51  CB       115.3690   -3.8810  162.2300 C.3   306  THR306      0.1794
     52  OG1      116.5990   -3.6310  162.9210 O.3   306  THR306     -0.2208
     53  CG2      115.4710   -5.2050  161.4780 C.3   306  THR306      0.0378
     54  N        115.7600   -0.2340  157.5250 N.3   310  HIS310     -0.1241
     55  CA       116.5830    0.9480  157.7930 C.3   310  HIS310      0.1621
     56  C        115.8020    2.2480  157.5450 C.2   310  HIS310      0.2264
     57  O        114.8910    2.5670  158.3050 O.2   310  HIS310     -0.2867
     58  CB       117.8840    0.9280  156.9780 C.3   310  HIS310      0.0745
     59  CG       118.8960    1.9370  157.4280 C.ar  310  HIS310      0.0817
     60  ND1      119.2590    2.0880  158.7500 N.ar  310  HIS310     -0.2268
     61  CD2      119.6230    2.8430  156.7330 C.ar  310  HIS310      0.1154
     62  CE1      120.1570    3.0520  158.8500 C.ar  310  HIS310      0.1986
     63  NE2      120.4010    3.5210  157.6390 N.ar  310  HIS310     -0.2212
     64  N        126.3110   -2.5390  167.6550 N.3   489  SER489     -0.1217
     65  CA       125.9080   -1.5230  166.6880 C.3   489  SER489      0.1889
     66  C        126.3500   -0.1250  167.1150 C.2   489  SER489      0.2288
     67  O        126.3560    0.8070  166.3080 O.2   489  SER489     -0.2866
     68  CB       124.3920   -1.5520  166.4860 C.3   489  SER489      0.2089
     69  OG       123.7130   -1.5150  167.7270 O.3   489  SER489     -0.2183
     70  N        125.2400    1.4430  170.2740 N.3   491  LYS491     -0.1245
     71  CA       124.2110    2.1350  171.0460 C.3   491  LYS491      0.1561
     72  C        124.4100    1.9880  172.5500 C.2   491  LYS491      0.2260
     73  O        124.8120    0.9290  173.0300 O.2   491  LYS491     -0.2867
     74  CB       122.8250    1.6090  170.6740 C.3   491  LYS491      0.0271
     75  CG       122.5090    1.6540  169.1940 C.3   491  LYS491      0.0035
     76  CD       121.1370    1.0600  168.9250 C.3   491  LYS491      0.0206
     77  CE       120.8810    0.8910  167.4370 C.3   491  LYS491      0.1093
     78  NZ       119.5710    0.2340  167.1890 N.3   491  LYS491     -0.1314
@<TRIPOS>BOND
     1    61    59   ar
     2    61    63   ar
     3    58    59    1
     4    58    55    1
     5    21    20    2
     6    14    13    2
     7    59    60   ar
     8    54    55    1
     9    56    55    1
    10    56    57    2
    11    63    62   ar
    12    20    19    1
    13    13    12    1
    14    13    18   am
    15    16    15    1
    16    15    12    1
    17    15    17    1
    18    12    11    1
    19    60    62   ar
    20    25    27   ar
    21    25    23   ar
    22    19    18    1
    23    19    22    1
    24     4     3    2
    25    27    26   ar
    26    50    49    2
    27    11     3   am
    28    38    35    1
    29     3     2    1
    30    23    22    1
    31    23    24   ar
    32    42    41    2
    33    49    48    1
    34    26    24   ar
    35    35    34    1
    36    35    36    1
    37     1     2    1
    38     2     5    1
    39    48    47    1
    40    48    51    1
    41    39    36   am
    42    39    40    1
    43    41    47   am
    44    41    40    1
    45    53    51    1
    46    36    37    2
    47    40    43    1
    48    51    52    1
    49     5     6    1
    50    44    43    1
    51    44    45    1
    52    33    32    1
    53    28    29    1
    54    45    46    1
    55     6     7   ar
    56     6     8   ar
    57     7     9   ar
    58    32    29    1
    59    29    30    1
    60     8    10   ar
    61     9    10   ar
    62    30    31    2
    63    67    66    2
    64    68    65    1
    65    68    69    1
    66    65    66    1
    67    65    64    1
    68    78    77    1
    69    77    76    1
    70    76    75    1
    71    75    74    1
    72    70    71    1
    73    74    71    1
    74    71    72    1
    75    72    73    2
