@<TRIPOS>MOLECULE
tmp/5ie1A00.pdb
 193 185 0 0 0
SMALL
GASTEIGER

@<TRIPOS>ATOM
      1  N         67.7310   53.3450    1.3820 N.3    34  ASP34      -0.1239
      2  CA        67.0770   52.4040    2.2890 C.3    34  ASP34       0.1674
      3  C         65.5800   52.6880    2.3210 C.2    34  ASP34       0.2266
      4  O         65.1440   53.6640    2.9390 O.2    34  ASP34      -0.2867
      5  CB        67.6850   52.5050    3.6890 C.3    34  ASP34       0.1410
      6  CG        67.0450   51.5550    4.6810 C.2    34  ASP34       0.3668
      7  OD1       66.4460   50.5470    4.2540 O.co2  34  ASP34      -0.2456
      8  OD2       67.1520   51.8190    5.8960 O.co2  34  ASP34      -0.2456
      9  N         63.5210   50.7910    3.8380 N.3    36  GLY36      -0.1210
     10  CA        63.0230   50.2120    5.0700 C.3    36  GLY36       0.1956
     11  C         63.2070   51.0630    6.3040 C.2    36  GLY36       0.2613
     12  O         63.0040   50.5600    7.4200 O.2    36  GLY36      -0.2717
     13  N         63.6000   52.3270    6.1620 N.am   37  SER37      -0.1938
     14  CA        63.6980   53.2600    7.2730 C.3    37  SER37       0.2055
     15  C         63.2820   54.6310    6.7630 C.2    37  SER37       0.2644
     16  O         63.0210   54.8150    5.5710 O.2    37  SER37      -0.2714
     17  CB        65.1110   53.2790    7.8690 C.3    37  SER37       0.2130
     18  OG        66.0500   53.8250    6.9600 O.3    37  SER37      -0.2179
     19  N         63.2260   55.6110    7.6650 N.am   38  SER38      -0.1935
     20  CA        62.7020   56.9240    7.3090 C.3    38  SER38       0.2055
     21  C         63.5500   58.0820    7.8200 C.2    38  SER38       0.2643
     22  O         63.1380   59.2390    7.6820 O.2    38  SER38      -0.2714
     23  CB        61.2660   57.0710    7.8210 C.3    38  SER38       0.2130
     24  OG        60.4780   55.9650    7.4170 O.3    38  SER38      -0.2179
     25  N         64.7140   57.8140    8.3990 N.am   39  ASN39      -0.1971
     26  CA        65.5940   58.8680    8.8790 C.3    39  ASN39       0.1688
     27  C         66.7080   59.1300    7.8740 C.2    39  ASN39       0.2292
     28  O         67.2770   58.1960    7.3010 O.2    39  ASN39      -0.2864
     29  CB        66.2000   58.5050   10.2370 C.3    39  ASN39       0.1181
     30  CG        65.2370   58.7330   11.3870 C.2    39  ASN39       0.2629
     31  OD1       64.4630   57.8480   11.7520 O.2    39  ASN39      -0.2716
     32  ND2       65.2830   59.9290   11.9660 N.am   39  ASN39      -0.0877
     33  N         68.4800   55.5960   18.2950 N.3    71  VAL71      -0.1231
     34  CA        67.9490   54.5320   17.4460 C.3    71  VAL71       0.1678
     35  C         68.6660   53.2220   17.7550 C.2    71  VAL71       0.2434
     36  O         69.7330   52.9470   17.1880 O.2    71  VAL71      -0.2733
     37  CB        68.0750   54.8970   15.9580 C.3    71  VAL71       0.0265
     38  CG1       67.4870   53.7960   15.0890 C.3    71  VAL71       0.0020
     39  CG2       67.3830   56.2220   15.6850 C.3    71  VAL71       0.0020
     40  N         68.1270   52.3950   18.6420 N.am   72  PRO72      -0.2718
     41  CA        68.7150   51.0770   18.8800 C.3    72  PRO72       0.1535
     42  C         68.2060   50.0480   17.8800 C.2    72  PRO72       0.2598
     43  O         67.1470   50.1960   17.2700 O.2    72  PRO72      -0.2715
     44  CB        68.2460   50.7400   20.2980 C.3    72  PRO72       0.0310
     45  CG        66.9160   51.4180   20.3960 C.3    72  PRO72       0.0237
     46  CD        67.0190   52.6830   19.5710 C.3    72  PRO72       0.0939
     47  N         68.9950   48.9920   17.7200 N.am   73  TYR73      -0.1974
     48  CA        68.6150   47.8400   16.9080 C.3    73  TYR73       0.1639
     49  C         69.0680   46.5950   17.6650 C.2    73  TYR73       0.2290
     50  O         69.3370   46.6410   18.8710 O.2    73  TYR73      -0.2864
     51  CB        69.2030   47.9580   15.4920 C.3    73  TYR73       0.0560
     52  CG        68.5170   47.0940   14.4510 C.ar   73  TYR73      -0.0198
     53  CD1       67.1830   47.2950   14.1200 C.ar   73  TYR73      -0.0009
     54  CD2       69.2060   46.0820   13.7960 C.ar   73  TYR73      -0.0009
     55  CE1       66.5580   46.5110   13.1670 C.ar   73  TYR73       0.0417
     56  CE2       68.5950   45.3000   12.8360 C.ar   73  TYR73       0.0417
     57  CZ        67.2700   45.5150   12.5290 C.ar   73  TYR73       0.1957
     58  OH        66.6570   44.7300   11.5790 O.3    73  TYR73      -0.2866
     59  N         72.9420   46.6520   18.3090 N.3    76  GLY76      -0.1210
     60  CA        73.5770   47.8340   17.7750 C.3    76  GLY76       0.1956
     61  C         72.7490   49.0850   18.0290 C.2    76  GLY76       0.2612
     62  O         71.6400   49.0400   18.5570 O.2    76  GLY76      -0.2717
     63  N         73.3200   50.2210   17.6340 N.am   77  LYS77      -0.1965
     64  CA        72.6360   51.4940   17.8190 C.3    77  LYS77       0.1728
     65  C         73.3350   52.5730   17.0080 C.2    77  LYS77       0.2616
     66  O         74.5070   52.4470   16.6420 O.2    77  LYS77      -0.2715
     67  CB        72.5930   51.9070   19.2950 C.3    77  LYS77       0.0311
     68  CG        73.9310   52.4070   19.8320 C.3    77  LYS77       0.0038
     69  CD        73.7930   53.0030   21.2240 C.3    77  LYS77       0.0206
     70  CE        75.1450   53.4190   21.7820 C.3    77  LYS77       0.1093
     71  NZ        75.8440   54.3800   20.8840 N.3    77  LYS77      -0.1314
     72  N         72.5860   53.6350   16.7250 N.am   78  TRP78      -0.1974
     73  CA        73.1670   54.9310   16.4160 C.3    78  TRP78       0.1640
     74  C         72.3370   55.9870   17.1250 C.2    78  TRP78       0.2290
     75  O         71.1460   55.7940   17.3810 O.2    78  TRP78      -0.2864
     76  CB        73.2510   55.2260   14.9000 C.3    78  TRP78       0.0576
     77  CG        71.9440   55.4780   14.1740 C.ar   78  TRP78       0.0006
     78  CD1       71.2520   54.5870   13.4100 C.ar   78  TRP78       0.0946
     79  CD2       71.2110   56.7110   14.1060 C.ar   78  TRP78       0.0152
     80  NE1       70.1250   55.1740   12.8890 N.ar   78  TRP78      -0.2442
     81  CE2       70.0760   56.4780   13.3020 C.ar   78  TRP78       0.0810
     82  CE3       71.3980   57.9840   14.6530 C.ar   78  TRP78       0.0012
     83  CZ2       69.1350   57.4700   13.0310 C.ar   78  TRP78       0.0191
     84  CZ3       70.4610   58.9650   14.3880 C.ar   78  TRP78       0.0001
     85  CH2       69.3420   58.7030   13.5850 C.ar   78  TRP78       0.0015
     86  N         77.1310   52.0310   17.1760 N.3   108  ASP108     -0.1225
     87  CA        77.6960   50.7240   17.4910 C.3   108  ASP108      0.1805
     88  C         77.1670   49.7220   16.4770 C.2   108  ASP108      0.2598
     89  O         75.9500   49.5520   16.3530 O.2   108  ASP108     -0.2718
     90  CB        77.3450   50.3000   18.9210 C.3   108  ASP108      0.1424
     91  CG        77.7890   48.8820   19.2330 C.2   108  ASP108      0.3668
     92  OD1       77.1550   48.2430   20.1070 O.co2 108  ASP108     -0.2456
     93  OD2       78.7610   48.4030   18.6180 O.co2 108  ASP108     -0.2456
     94  N         78.0780   49.0650   15.7560 N.am  109  LYS109     -0.1966
     95  CA        77.7280   48.0720   14.7380 C.3   109  LYS109      0.1728
     96  C         76.7560   48.6450   13.7080 C.2   109  LYS109      0.2616
     97  O         75.8750   47.9520   13.1930 O.2   109  LYS109     -0.2715
     98  CB        77.1730   46.7990   15.3820 C.3   109  LYS109      0.0311
     99  CG        78.2000   46.0700   16.2460 C.3   109  LYS109      0.0038
    100  CD        77.6540   44.7800   16.8410 C.3   109  LYS109      0.0206
    101  CE        78.7110   44.0970   17.7010 C.3   109  LYS109      0.1093
    102  NZ        78.2710   42.7710   18.2150 N.3   109  LYS109     -0.1314
    103  N         76.9250   49.9320   13.4000 N.am  110  PHE110     -0.1974
    104  CA        76.1470   50.6040   12.3670 C.3   110  PHE110      0.1639
    105  C         76.9690   50.8310   11.1050 C.2   110  PHE110      0.2290
    106  O         76.5920   50.3630   10.0270 O.2   110  PHE110     -0.2864
    107  CB        75.6010   51.9370   12.8940 C.3   110  PHE110      0.0560
    108  CG        74.9230   52.7700   11.8440 C.ar  110  PHE110     -0.0200
    109  CD1       73.6460   52.4500   11.4050 C.ar  110  PHE110     -0.0042
    110  CD2       75.5600   53.8710   11.2950 C.ar  110  PHE110     -0.0042
    111  CE1       73.0180   53.2140   10.4380 C.ar  110  PHE110     -0.0003
    112  CE2       74.9350   54.6410   10.3270 C.ar  110  PHE110     -0.0003
    113  CZ        73.6630   54.3110    9.8990 C.ar  110  PHE110     -0.0000
    114  N         72.8170   57.3120    5.7260 N.3   120  ILE120     -0.1245
    115  CA        71.7070   56.4780    5.2790 C.3   120  ILE120      0.1561
    116  C         70.5090   57.3680    4.9710 C.2   120  ILE120      0.2260
    117  O         70.1900   58.2820    5.7390 O.2   120  ILE120     -0.2867
    118  CB        71.3530   55.4040    6.3300 C.3   120  ILE120      0.0252
    119  CG1       70.1580   54.5630    5.8790 C.3   120  ILE120      0.0019
    120  CG2       71.1030   56.0390    7.6930 C.3   120  ILE120      0.0019
    121  CD1       69.9440   53.3280    6.7240 C.3   120  ILE120      0.0001
    122  N         57.3820   55.5360   10.8790 N.3   128  ILE128     -0.1245
    123  CA        58.4790   54.7720   11.4560 C.3   128  ILE128      0.1561
    124  C         59.7570   55.6070   11.5570 C.2   128  ILE128      0.2260
    125  O         60.8420   55.0570   11.7400 O.2   128  ILE128     -0.2867
    126  CB        58.7250   53.4650   10.6870 C.3   128  ILE128      0.0252
    127  CG1       59.1240   53.7540    9.2410 C.3   128  ILE128      0.0019
    128  CG2       57.4880   52.5820   10.7370 C.3   128  ILE128      0.0019
    129  CD1       59.4900   52.5140    8.4640 C.3   128  ILE128      0.0001
    130  N         62.2740   58.1750   13.5720 N.3   130  ARG130     -0.1245
    131  CA        62.5870   58.4060   14.9730 C.3   130  ARG130      0.1563
    132  C         62.9310   59.8750   15.2000 C.2   130  ARG130      0.2260
    133  O         63.5310   60.5160   14.3310 O.2   130  ARG130     -0.2867
    134  CB        63.7560   57.5360   15.4510 C.3   130  ARG130      0.0307
    135  CG        63.3770   56.1000   15.7900 C.3   130  ARG130      0.0489
    136  CD        63.1530   55.2820   14.5350 C.3   130  ARG130      0.2205
    137  NE        63.1150   53.8500   14.8070 N.pl3 130  ARG130     -0.0865
    138  CZ        62.0010   53.1320   14.8910 C.cat 130  ARG130      0.5346
    139  NH1       62.0750   51.8330   15.1360 N.pl3 130  ARG130      0.1354
    140  NH2       60.8170   53.7090   14.7240 N.pl3 130  ARG130      0.1354
    141  N         56.1790   51.4680    6.5960 N.3   189  TYR189     -0.1241
    142  CA        57.0420   50.7880    5.6480 C.3   189  TYR189      0.1605
    143  C         56.3740   50.8150    4.2770 C.2   189  TYR189      0.2264
    144  O         55.2380   51.2720    4.1170 O.2   189  TYR189     -0.2867
    145  CB        57.2930   49.3400    6.0570 C.3   189  TYR189      0.0534
    146  CG        57.9200   49.1130    7.4120 C.ar  189  TYR189     -0.0201
    147  CD1       57.1340   49.0290    8.5530 C.ar  189  TYR189     -0.0009
    148  CD2       59.2920   48.9320    7.5440 C.ar  189  TYR189     -0.0009
    149  CE1       57.6970   48.8020    9.7910 C.ar  189  TYR189      0.0417
    150  CE2       59.8650   48.7040    8.7800 C.ar  189  TYR189      0.0417
    151  CZ        59.0600   48.6410    9.8990 C.ar  189  TYR189      0.1957
    152  OH        59.6140   48.4140   11.1360 O.3   189  TYR189     -0.2866
    153  N         57.1560   43.6800    3.5060 N.3   217  ILE217     -0.1245
    154  CA        57.6440   44.9870    3.0880 C.3   217  ILE217      0.1561
    155  C         58.6490   44.8350    1.9530 C.2   217  ILE217      0.2260
    156  O         59.2290   43.7690    1.7380 O.2   217  ILE217     -0.2867
    157  CB        58.2830   45.7740    4.2560 C.3   217  ILE217      0.0252
    158  CG1       59.5780   45.1010    4.7120 C.3   217  ILE217      0.0019
    159  CG2       57.3110   45.8950    5.4160 C.3   217  ILE217      0.0019
    160  CD1       60.2840   45.8350    5.8390 C.3   217  ILE217      0.0001
    161  N         62.1770   46.3340    0.8080 N.3   219  ASP219     -0.1239
    162  CA        63.2640   46.9530    1.5640 C.3   219  ASP219      0.1674
    163  C         64.5640   46.8340    0.7820 C.2   219  ASP219      0.2266
    164  O         65.1590   45.7550    0.7290 O.2   219  ASP219     -0.2867
    165  CB        63.4010   46.2990    2.9380 C.3   219  ASP219      0.1410
    166  CG        64.3670   47.0350    3.8430 C.2   219  ASP219      0.3668
    167  OD1       65.0540   47.9640    3.3650 O.co2 219  ASP219     -0.2456
    168  OD2       64.4400   46.6780    5.0370 O.co2 219  ASP219     -0.2456
    169  N         67.2030   48.0410    1.8510 N.3   221  GLY221     -0.1210
    170  CA        68.2430   48.0160    2.8610 C.3   221  GLY221      0.1956
    171  C         68.5890   46.6180    3.3320 C.2   221  GLY221      0.2612
    172  O         69.6760   46.3900    3.8710 O.2   221  GLY221     -0.2717
    173  N         67.6720   45.6740    3.1360 N.am  222  THR222     -0.1952
    174  CA        67.8960   44.2850    3.5070 C.3   222  THR222      0.1897
    175  C         68.4860   43.5170    2.3310 C.2   222  THR222      0.2313
    176  O         68.0870   43.7150    1.1810 O.2   222  THR222     -0.2863
    177  CB        66.5910   43.6280    3.9600 C.3   222  THR222      0.1794
    178  OG1       66.0820   44.3150    5.1090 O.3   222  THR222     -0.2208
    179  CG2       66.8130   42.1680    4.3100 C.3   222  THR222      0.0378
    180  N         59.7420   39.7510   12.1360 N.3   305  THR305     -0.1218
    181  CA        58.9580   40.9420   11.8410 C.3   305  THR305      0.1862
    182  C         58.2040   40.8420   10.5190 C.2   305  THR305      0.2287
    183  O         57.7320   41.8630   10.0090 O.2   305  THR305     -0.2866
    184  CB        59.8610   42.1780   11.8350 C.3   305  THR305      0.1770
    185  OG1       61.0260   41.9180   11.0400 O.3   305  THR305     -0.2211
    186  CG2       60.2880   42.5330   13.2530 C.3   305  THR305      0.0375
    187  N         60.3160   40.1810    4.3140 N.3   308  VAL308     -0.1245
    188  CA        61.1270   41.2990    3.8460 C.3   308  VAL308      0.1561
    189  C         61.6020   40.9740    2.4400 C.2   308  VAL308      0.2260
    190  O         62.3580   40.0160    2.2390 O.2   308  VAL308     -0.2867
    191  CB        62.3170   41.5850    4.7760 C.3   308  VAL308      0.0252
    192  CG1       63.0820   42.8040    4.2820 C.3   308  VAL308      0.0019
    193  CG2       61.8420   41.7970    6.2050 C.3   308  VAL308      0.0019
@<TRIPOS>BOND
     1   164   163    2
     2   163   162    1
     3   161   162    1
     4   176   175    2
     5     1     2    1
     6   162   165    1
     7   156   155    2
     8   169   170    1
     9   155   154    1
    10   190   189    2
    11     2     3    1
    12     2     5    1
    13     3     4    2
    14   175   174    1
    15   189   188    1
    16   170   171    1
    17   165   166    1
    18   154   153    1
    19   154   157    1
    20   173   171   am
    21   173   174    1
    22   171   172    2
    23   167   166   ar
    24   174   177    1
    25     5     6    1
    26     9    10    1
    27   166   168   ar
    28   188   187    1
    29   188   191    1
    30   177   179    1
    31   177   178    1
    32   144   143    2
    33     7     6   ar
    34   157   158    1
    35   157   159    1
    36   143   142    1
    37   192   191    1
    38     6     8   ar
    39   158   160    1
    40   191   193    1
    41   116   115    1
    42   116   117    2
    43    10    11    1
    44   115   114    1
    45   115   118    1
    46    16    15    2
    47   142   145    1
    48   142   141    1
    49   119   118    1
    50   119   121    1
    51   145   146    1
    52    13    11   am
    53    13    14    1
    54    11    12    2
    55   118   120    1
    56    15    14    1
    57    15    19   am
    58    18    17    1
    59    14    17    1
    60    28    27    2
    61    20    19    1
    62    20    21    1
    63    20    23    1
    64   146   148   ar
    65   146   147   ar
    66    24    23    1
    67   148   150   ar
    68    22    21    2
    69    21    25   am
    70    27    26    1
    71    25    26    1
    72   129   127    1
    73   147   149   ar
    74   150   151   ar
    75    26    29    1
    76   127   126    1
    77   149   151   ar
    78   151   152    1
    79   113   112   ar
    80   113   111   ar
    81   183   182    2
    82   106   105    2
    83    29    30    1
    84   112   110   ar
    85   111   109   ar
    86   182   181    1
    87   126   128    1
    88   126   123    1
    89   122   123    1
    90   185   184    1
    91   105   104    1
    92   110   108   ar
    93    30    31    2
    94    30    32   am
    95   109   108   ar
    96   123   124    1
    97   124   125    2
    98    58    57    1
    99   184   181    1
   100   184   186    1
   101   181   180    1
   102   108   107    1
   103   104   107    1
   104   104   103    1
   105    57    56   ar
   106    57    55   ar
   107    56    54   ar
   108    80    81   ar
   109    80    78   ar
   110    83    81   ar
   111    83    85   ar
   112    55    53   ar
   113    97    96    2
   114    81    79   ar
   115   103    96   am
   116    78    77   ar
   117   130   131    1
   118    85    84   ar
   119    96    95    1
   120    54    52   ar
   121    79    77   ar
   122    79    82   ar
   123    53    52   ar
   124    77    76    1
   125   133   132    2
   126    84    82   ar
   127    52    51    1
   128   136   137    1
   129   136   135    1
   130   140   138    1
   131    95    98    1
   132    95    94    1
   133   137   138    2
   134   138   139    1
   135    76    73    1
   136   131   132    1
   137   131   134    1
   138    38    37    1
   139    98    99    1
   140   134   135    1
   141    51    48    1
   142    39    37    1
   143    94    88   am
   144    37    34    1
   145    99   100    1
   146    89    88    2
   147    73    72    1
   148    73    74    1
   149    88    87    1
   150    66    65    2
   151    72    65   am
   152   100   101    1
   153    48    49    1
   154    48    47    1
   155    65    64    1
   156    74    75    2
   157    86    87    1
   158    36    35    2
   159    43    42    2
   160    34    35    1
   161    34    33    1
   162    87    90    1
   163    63    64    1
   164    63    61   am
   165    49    50    2
   166   101   102    1
   167    47    42   am
   168    35    40   am
   169    60    61    1
   170    60    59    1
   171    64    67    1
   172    42    41    1
   173    61    62    2
   174    93    91   ar
   175    40    41    1
   176    40    46    1
   177    41    44    1
   178    90    91    1
   179    91    92   ar
   180    67    68    1
   181    46    45    1
   182    68    69    1
   183    44    45    1
   184    71    70    1
   185    69    70    1
