@<TRIPOS>MOLECULE
tmp/5ie2B00.pdb
 192 182 0 0 0
SMALL
GASTEIGER

@<TRIPOS>ATOM
      1  N         13.1710   -1.9310   49.6180 N.3   165  THR165     -0.1203
      2  CA        13.2310   -3.2890   49.0610 C.3   165  THR165      0.1994
      3  C         14.3310   -3.4140   47.9850 C.2   165  THR165      0.2619
      4  O         14.4960   -2.5060   47.1640 O.2   165  THR165     -0.2717
      5  CB        11.8630   -3.6880   48.4680 C.3   165  THR165      0.1784
      6  OG1       11.3830   -2.6580   47.5910 O.3   165  THR165     -0.2211
      7  CG2       10.8300   -3.8600   49.5900 C.3   165  THR165      0.0376
      8  N         14.9920   -4.5810   47.9280 N.am  166  SER166     -0.1937
      9  CA        16.2340   -4.7670   47.1420 C.3   166  SER166      0.2055
     10  C         16.1230   -4.5840   45.6120 C.2   166  SER166      0.2644
     11  O         17.1480   -4.5850   44.9260 O.2   166  SER166     -0.2714
     12  CB        16.8440   -6.1560   47.4160 C.3   166  SER166      0.2130
     13  OG        17.3660   -6.2650   48.7310 O.3   166  SER166     -0.2179
     14  N         14.9050   -4.4590   45.0840 N.am  167  GLY167     -0.1939
     15  CA        14.6990   -4.1770   43.6730 C.3   167  GLY167      0.2014
     16  C         14.7340   -5.3640   42.7060 C.2   167  GLY167      0.2640
     17  O         14.8740   -5.1660   41.4910 O.2   167  GLY167     -0.2714
     18  N         14.5740   -6.5890   43.2190 N.am  168  THR168     -0.1936
     19  CA        14.6560   -7.8060   42.3920 C.3   168  THR168      0.2028
     20  C         13.4810   -7.9240   41.3840 C.2   168  THR168      0.2643
     21  O         13.7020   -8.1570   40.1890 O.2   168  THR168     -0.2714
     22  CB        14.7100   -9.0940   43.2750 C.3   168  THR168      0.1808
     23  OG1       15.7370   -8.9800   44.2750 O.3   168  THR168     -0.2208
     24  CG2       14.9700  -10.3520   42.4200 C.3   168  THR168      0.0379
     25  N         12.2410   -7.7800   41.8620 N.am  169  THR169     -0.1936
     26  CA        11.0530   -7.9280   41.0040 C.3   169  THR169      0.2028
     27  C         10.2330   -6.6440   40.8490 C.2   169  THR169      0.2642
     28  O          9.1440   -6.6640   40.2670 O.2   169  THR169     -0.2714
     29  CB        10.0860   -9.0180   41.5470 C.3   169  THR169      0.1808
     30  OG1        9.7420   -8.7290   42.9110 O.3   169  THR169     -0.2208
     31  CG2       10.7160  -10.4030   41.4480 C.3   169  THR169      0.0379
     32  N         10.7550   -5.5340   41.3640 N.am  170  SER170     -0.1949
     33  CA        10.0100   -4.2740   41.3850 C.3   170  SER170      0.1924
     34  C         10.9520   -3.0970   41.6000 C.2   170  SER170      0.2314
     35  O         12.1630   -3.2800   41.7840 O.2   170  SER170     -0.2863
     36  CB         8.9380   -4.2810   42.4890 C.3   170  SER170      0.2116
     37  OG         9.5190   -4.1300   43.7860 O.3   170  SER170     -0.2180
     38  N         10.3530   -0.1390   47.4300 N.3   173  LYS173     -0.1245
     39  CA         9.3690    0.4700   48.3340 C.3   173  LYS173      0.1561
     40  C         10.0860    0.7590   49.6820 C.2   173  LYS173      0.2260
     41  O         10.9540   -0.0090   50.0640 O.2   173  LYS173     -0.2867
     42  CB         8.1790   -0.4870   48.5830 C.3   173  LYS173      0.0271
     43  CG         7.2720   -0.7670   47.3760 C.3   173  LYS173      0.0035
     44  CD         6.1960   -1.8420   47.6610 C.3   173  LYS173      0.0206
     45  CE         6.1510   -2.8980   46.5450 C.3   173  LYS173      0.1093
     46  NZ         7.4060   -3.7390   46.5480 N.3   173  LYS173     -0.1314
     47  N         21.9190   -4.0210   55.0560 N.3   209  HIS209     -0.1241
     48  CA        20.8200   -4.9540   54.6500 C.3   209  HIS209      0.1621
     49  C         20.3940   -5.7210   55.9210 C.2   209  HIS209      0.2264
     50  O         21.2350   -5.9200   56.8250 O.2   209  HIS209     -0.2867
     51  CB        21.2700   -5.9370   53.5260 C.3   209  HIS209      0.0745
     52  CG        20.2300   -6.9600   53.1300 C.ar  209  HIS209      0.0817
     53  ND1       20.0360   -8.1470   53.8180 N.ar  209  HIS209     -0.2268
     54  CD2       19.3410   -6.9770   52.1050 C.ar  209  HIS209      0.1154
     55  CE1       19.0660   -8.8360   53.2580 C.ar  209  HIS209      0.1986
     56  NE2       18.6120   -8.1420   52.2170 N.ar  209  HIS209     -0.2212
     57  N         21.0970  -17.7870   54.0290 N.3   283  CYS283     -0.1221
     58  CA        19.7810  -17.1290   53.8870 C.3   283  CYS283      0.1808
     59  C         19.8240  -16.1980   52.6920 C.2   283  CYS283      0.2602
     60  O         20.9200  -15.9790   52.1250 O.2   283  CYS283     -0.2717
     61  CB        19.4720  -16.3490   55.1910 C.3   283  CYS283      0.0970
     62  SG        17.7240  -15.8920   55.2960 S.3   283  CYS283     -0.0800
     63  N         18.6510  -15.6630   52.2960 N.am  284  SER284     -0.1938
     64  CA        18.4760  -14.5250   51.3600 C.3   284  SER284      0.2055
     65  C         18.3150  -14.9610   49.9170 C.2   284  SER284      0.2643
     66  O         17.7430  -14.2370   49.1410 O.2   284  SER284     -0.2714
     67  CB        19.6340  -13.4960   51.3800 C.3   284  SER284      0.2130
     68  OG        19.8690  -13.0240   52.7190 O.3   284  SER284     -0.2179
     69  N         18.8430  -16.1320   49.5710 N.am  285  ALA285     -0.1963
     70  CA        18.6520  -16.7190   48.2270 C.3   285  ALA285      0.1728
     71  C         18.7990  -18.2290   48.3640 C.2   285  ALA285      0.2616
     72  O         19.3730  -18.7320   49.3310 O.2   285  ALA285     -0.2715
     73  CB        19.6730  -16.1680   47.1930 C.3   285  ALA285      0.0334
     74  N         18.2870  -18.9730   47.3910 N.am  286  SER286     -0.1950
     75  CA        18.2710  -20.4070   47.5430 C.3   286  SER286      0.1924
     76  C         19.6700  -20.9900   47.6440 C.2   286  SER286      0.2314
     77  O         20.5300  -20.6630   46.8330 O.2   286  SER286     -0.2863
     78  CB        17.5750  -21.0150   46.3390 C.3   286  SER286      0.2116
     79  OG        17.6550  -22.4070   46.4120 O.3   286  SER286     -0.2180
     80  N         19.7340  -23.7220   56.4970 N.3   305  GLU305     -0.1231
     81  CA        19.1850  -22.7040   55.6220 C.3   305  GLU305      0.1699
     82  C         17.9240  -22.0500   56.1970 C.2   305  GLU305      0.2592
     83  O         17.0470  -22.7290   56.7670 O.2   305  GLU305     -0.2718
     84  CB        18.8350  -23.3070   54.2560 C.3   305  GLU305      0.0402
     85  CG        18.5050  -22.2350   53.2170 C.3   305  GLU305      0.1161
     86  CD        18.1520  -22.7790   51.8160 C.2   305  GLU305      0.3649
     87  OE1       17.9940  -24.0080   51.6380 O.co2 305  GLU305     -0.2457
     88  OE2       18.0140  -21.9530   50.8910 O.co2 305  GLU305     -0.2457
     89  N         17.8490  -20.7320   56.0530 N.am  306  ALA306     -0.1966
     90  CA        16.6960  -19.9460   56.5360 C.3   306  ALA306      0.1728
     91  C         16.1190  -19.1680   55.3710 C.2   306  ALA306      0.2616
     92  O         16.7790  -19.0080   54.3440 O.2   306  ALA306     -0.2715
     93  CB        17.1420  -18.9380   57.6540 C.3   306  ALA306      0.0334
     94  N         14.9210  -18.6300   55.5820 N.am  307  TYR307     -0.1960
     95  CA        14.1690  -17.7990   54.6200 C.3   307  TYR307      0.1771
     96  C         13.7680  -16.5040   55.3350 C.2   307  TYR307      0.2619
     97  O         13.3190  -16.5280   56.5130 O.2   307  TYR307     -0.2715
     98  CB        12.9500  -18.5980   54.1330 C.3   307  TYR307      0.0574
     99  CG        11.8140  -17.8440   53.4570 C.ar  307  TYR307     -0.0198
    100  CD1       12.0190  -17.0700   52.3400 C.ar  307  TYR307     -0.0009
    101  CD2       10.5020  -18.0210   53.9140 C.ar  307  TYR307     -0.0009
    102  CE1       10.9300  -16.4550   51.6570 C.ar  307  TYR307      0.0417
    103  CE2        9.4230  -17.4200   53.2590 C.ar  307  TYR307      0.0417
    104  CZ         9.6310  -16.6370   52.1680 C.ar  307  TYR307      0.1957
    105  OH         8.5380  -16.0400   51.5190 O.3   307  TYR307     -0.2866
    106  N         13.9970  -15.3820   54.6570 N.am  308  ALA308     -0.1963
    107  CA        13.9120  -14.0870   55.3090 C.3   308  ALA308      0.1728
    108  C         13.6190  -12.9960   54.2870 C.2   308  ALA308      0.2616
    109  O         13.8850  -13.1830   53.0910 O.2   308  ALA308     -0.2715
    110  CB        15.2260  -13.7840   56.0520 C.3   308  ALA308      0.0334
    111  N         13.0860  -11.8540   54.7350 N.am  309  MET309     -0.1963
    112  CA        12.8770  -10.7200   53.8220 C.3   309  MET309      0.1736
    113  C         12.8050   -9.4220   54.6330 C.2   309  MET309      0.2617
    114  O         12.5380   -9.4390   55.8320 O.2   309  MET309     -0.2715
    115  CB        11.5840  -10.9030   52.9410 C.3   309  MET309      0.0427
    116  CG        10.2830  -10.7700   53.8070 C.3   309  MET309      0.0599
    117  SD         8.9040  -11.4330   52.7530 S.3   309  MET309     -0.1393
    118  CE         9.0260  -10.4480   51.2390 C.3   309  MET309      0.0692
    119  N         13.0210   -8.3180   53.9500 N.am  310  THR310     -0.1937
    120  CA        13.0720   -7.0230   54.6350 C.3   310  THR310      0.2028
    121  C         11.7690   -6.7560   55.4210 C.2   310  THR310      0.2642
    122  O         11.8210   -6.2860   56.5710 O.2   310  THR310     -0.2714
    123  CB        13.3170   -5.8870   53.6150 C.3   310  THR310      0.1808
    124  OG1       14.5430   -6.1230   52.9340 O.3   310  THR310     -0.2208
    125  CG2       13.4620   -4.5490   54.3040 C.3   310  THR310      0.0379
    126  N         10.6210   -7.0500   54.8030 N.am  311  GLU311     -0.1976
    127  CA         9.3190   -6.7570   55.4180 C.3   311  GLU311      0.1602
    128  C          9.0390   -7.5830   56.6730 C.2   311  GLU311      0.2287
    129  O          8.1110   -7.2670   57.4400 O.2   311  GLU311     -0.2864
    130  CB         8.1750   -7.0040   54.3900 C.3   311  GLU311      0.0415
    131  CG         8.1420   -6.0230   53.2080 C.3   311  GLU311      0.1163
    132  CD         8.9360   -6.5470   51.9910 C.2   311  GLU311      0.3649
    133  OE1        9.9530   -7.2370   52.1770 O.co2 311  GLU311     -0.2457
    134  OE2        8.5140   -6.2680   50.8410 O.co2 311  GLU311     -0.2457
    135  N         13.6440  -24.4570   53.5020 N.3   332  VAL332     -0.1245
    136  CA        14.0180  -23.3920   54.4110 C.3   332  VAL332      0.1561
    137  C         13.3790  -23.6270   55.7970 C.2   332  VAL332      0.2260
    138  O         13.2990  -22.7140   56.6130 O.2   332  VAL332     -0.2867
    139  CB        13.6560  -22.0000   53.8500 C.3   332  VAL332      0.0252
    140  CG1       14.5520  -21.6860   52.6450 C.3   332  VAL332      0.0019
    141  CG2       12.1360  -21.9360   53.3900 C.3   332  VAL332      0.0019
    142  N          3.8890  -12.5060   50.8290 N.3   387  THR387     -0.1218
    143  CA         5.3270  -12.3620   50.5620 C.3   387  THR387      0.1862
    144  C          5.6810  -12.2140   49.0850 C.2   387  THR387      0.2287
    145  O          6.7700  -11.7430   48.7820 O.2   387  THR387     -0.2866
    146  CB         6.1630  -13.5600   51.0630 C.3   387  THR387      0.1770
    147  OG1        5.7770  -14.7360   50.3210 O.3   387  THR387     -0.2211
    148  CG2        5.9560  -13.8000   52.5600 C.3   387  THR387      0.0375
    149  N          6.1360  -14.8540   47.3190 N.3   389  ASP389     -0.1239
    150  CA         6.8410  -16.1350   47.0550 C.3   389  ASP389      0.1674
    151  C          5.8690  -17.3200   46.9890 C.2   389  ASP389      0.2266
    152  O          4.8980  -17.3650   47.7430 O.2   389  ASP389     -0.2867
    153  CB         7.8720  -16.4320   48.1680 C.3   389  ASP389      0.1410
    154  CG         8.9580  -15.3600   48.2750 C.2   389  ASP389      0.3668
    155  OD1        9.5510  -15.0040   47.2130 O.co2 389  ASP389     -0.2456
    156  OD2        9.2220  -14.8750   49.4210 O.co2 389  ASP389     -0.2456
    157  N         10.5710  -23.6870   48.9980 N.3   401  LEU401     -0.1245
    158  CA        10.2870  -22.5960   48.0680 C.3   401  LEU401      0.1561
    159  C         10.4140  -22.9890   46.6320 C.2   401  LEU401      0.2260
    160  O         11.3750  -23.6810   46.2490 O.2   401  LEU401     -0.2867
    161  CB        11.2460  -21.4410   48.3360 C.3   401  LEU401      0.0270
    162  CG        11.0000  -20.8460   49.7060 C.3   401  LEU401      0.0019
    163  CD1       12.1910  -19.9230   50.0490 C.3   401  LEU401      0.0001
    164  CD2        9.6160  -20.1510   49.8790 C.3   401  LEU401      0.0001
    165  N          9.8810  -16.7330   43.4410 N.3   404  ARG404     -0.1245
    166  CA         9.0600  -15.5020   43.3850 C.3   404  ARG404      0.1563
    167  C          8.0170  -15.6680   42.2940 C.2   404  ARG404      0.2260
    168  O          8.3350  -16.1400   41.2010 O.2   404  ARG404     -0.2867
    169  CB         9.9190  -14.2650   43.0840 C.3   404  ARG404      0.0307
    170  CG        11.0210  -14.0470   44.1270 C.3   404  ARG404      0.0489
    171  CD        12.1870  -13.3600   43.4980 C.3   404  ARG404      0.2205
    172  NE        13.3760  -13.3550   44.3650 N.pl3 404  ARG404     -0.0865
    173  CZ        13.6330  -12.3260   45.1510 C.cat 404  ARG404      0.5346
    174  NH1       12.7680  -11.3110   45.1370 N.pl3 404  ARG404      0.1354
    175  NH2       14.7160  -12.2970   45.9320 N.pl3 404  ARG404      0.1354
    176  N         14.8600  -21.6740   40.5890 N.3   419  ILE419     -0.1245
    177  CA        15.6120  -22.2350   41.7360 C.3   419  ILE419      0.1561
    178  C         16.0290  -23.6800   41.5050 C.2   419  ILE419      0.2260
    179  O         17.1870  -24.0890   41.7520 O.2   419  ILE419     -0.2867
    180  CB        14.7140  -22.2240   43.0310 C.3   419  ILE419      0.0252
    181  CG1       14.5530  -20.8280   43.5670 C.3   419  ILE419      0.0019
    182  CG2       15.2880  -23.1440   44.1430 C.3   419  ILE419      0.0019
    183  CD1       13.7250  -20.8330   44.9040 C.3   419  ILE419      0.0001
    184  N         23.0510  -11.2050   45.7200 N.3   495  LYS495     -0.1245
    185  CA        22.0840  -11.9190   44.9020 C.3   495  LYS495      0.1561
    186  C         22.3090  -11.6000   43.4400 C.2   495  LYS495      0.2260
    187  O         22.5240  -10.4420   43.0840 O.2   495  LYS495     -0.2867
    188  CB        20.6690  -11.5410   45.3330 C.3   495  LYS495      0.0271
    189  CG        20.5060  -11.7420   46.8250 C.3   495  LYS495      0.0035
    190  CD        19.2460  -11.1460   47.4160 C.3   495  LYS495      0.0206
    191  CE        17.9780  -11.6000   46.7320 C.3   495  LYS495      0.1093
    192  NZ        16.8630  -11.2940   47.6990 N.3   495  LYS495     -0.1314
@<TRIPOS>BOND
     1    21    20    2
     2    28    27    2
     3   176   177    1
     4    27    26    1
     5    27    32   am
     6    26    29    1
     7    26    25    1
     8   168   167    2
     9    32    33    1
    10    20    25   am
    11    20    19    1
    12    33    34    1
    13    33    36    1
    14    31    29    1
    15    17    16    2
    16   178   177    1
    17   178   179    2
    18    29    30    1
    19    34    35    2
    20   177   180    1
    21   167   166    1
    22    19    18    1
    23    19    22    1
    24    24    22    1
    25    36    37    1
    26    16    18   am
    27    16    15    1
    28   180   181    1
    29   180   182    1
    30   187   186    2
    31   169   166    1
    32   169   170    1
    33    22    23    1
    34   166   165    1
    35   186   185    1
    36   171   170    1
    37   171   172    1
    38   181   183    1
    39    15    14    1
    40   172   173    2
    41   185   188    1
    42   185   184    1
    43    11    10    2
    44    14    10   am
    45   174   173    1
    46   173   175    1
    47   188   189    1
    48    10     9    1
    49   160   159    2
    50    78    79    1
    51    78    75    1
    52    45    46    1
    53    45    44    1
    54   159   158    1
    55   191   190    1
    56   191   192    1
    57   189   190    1
    58    77    76    2
    59   151   150    1
    60   151   152    2
    61   150   149    1
    62   150   153    1
    63     9    12    1
    64     9     8    1
    65     4     3    2
    66    73    70    1
    67   155   154   ar
    68    43    44    1
    69    43    42    1
    70    74    75    1
    71    74    71   am
    72    12    13    1
    73    38    39    1
    74    75    76    1
    75     6     5    1
    76     8     3   am
    77     3     2    1
    78   158   161    1
    79   158   157    1
    80   153   154    1
    81    70    71    1
    82    70    69    1
    83   154   156   ar
    84    39    42    1
    85    39    40    1
    86   161   162    1
    87    71    72    2
    88     5     2    1
    89     5     7    1
    90   145   144    2
    91     2     1    1
    92   144   143    1
    93    66    65    2
    94    69    65   am
    95    40    41    2
    96   162   164    1
    97   162   163    1
    98    65    64    1
    99   147   146    1
   100   143   142    1
   101   143   146    1
   102   134   132   ar
   103    88    86   ar
   104   146   148    1
   105   118   117    1
   106    64    67    1
   107    64    63    1
   108    67    68    1
   109   105   104    1
   110    87    86   ar
   111   102   104   ar
   112   102   100   ar
   113    86    85    1
   114   132   133   ar
   115   132   131    1
   116    54    56   ar
   117    54    52   ar
   118    60    59    2
   119   104   103   ar
   120    56    55   ar
   121    63    59   am
   122   100    99   ar
   123   140   139    1
   124    59    58    1
   125   117   116    1
   126   124   123    1
   127   115   116    1
   128   115   112    1
   129   109   108    2
   130    52    51    1
   131    52    53   ar
   132   131   130    1
   133    85    84    1
   134    55    53   ar
   135   103   101   ar
   136   141   139    1
   137    99   101   ar
   138    99    98    1
   139   135   136    1
   140    51    48    1
   141   123   125    1
   142   123   120    1
   143   112   113    1
   144   112   111    1
   145   139   136    1
   146    58    57    1
   147    58    61    1
   148   119   113   am
   149   119   120    1
   150    98    95    1
   151    84    81    1
   152   108   111   am
   153   108   107    1
   154    92    91    2
   155   130   127    1
   156   136   137    1
   157    95    96    1
   158    95    94    1
   159   113   114    2
   160   120   121    1
   161    48    47    1
   162    48    49    1
   163   106   107    1
   164   106    96   am
   165   126   127    1
   166   126   121   am
   167    61    62    1
   168   107   110    1
   169    96    97    2
   170    91    94   am
   171    91    90    1
   172   127   128    1
   173   121   122    2
   174    81    82    1
   175    81    80    1
   176   137   138    2
   177    49    50    2
   178    89    82   am
   179    89    90    1
   180    82    83    2
   181    90    93    1
   182   128   129    2
