@<TRIPOS>MOLECULE
tmp/5ie3B00.pdb
 172 162 0 0 0
SMALL
GASTEIGER

@<TRIPOS>ATOM
      1  N         12.9790   -2.6050   49.6780 N.3   163  THR163     -0.1203
      2  CA        12.9790   -3.9040   48.9930 C.3   163  THR163      0.1994
      3  C         13.8940   -3.8440   47.7530 C.2   163  THR163      0.2618
      4  O         14.1140   -2.7760   47.1940 O.2   163  THR163     -0.2717
      5  CB        11.5240   -4.3270   48.5760 C.3   163  THR163      0.1784
      6  OG1       10.9330   -3.2900   47.7710 O.3   163  THR163     -0.2211
      7  CG2       10.6470   -4.5360   49.8080 C.3   163  THR163      0.0376
      8  N         14.4190   -4.9940   47.3320 N.am  164  SER164     -0.1951
      9  CA        15.4330   -5.0510   46.2680 C.3   164  SER164      0.1924
     10  C         14.9230   -4.7020   44.8670 C.2   164  SER164      0.2314
     11  O         15.6900   -4.2490   44.0240 O.2   164  SER164     -0.2863
     12  CB        16.0860   -6.4320   46.2350 C.3   164  SER164      0.2116
     13  OG        15.1470   -7.4350   45.8790 O.3   164  SER164     -0.2180
     14  N         22.0290   -4.8680   55.1600 N.3   207  HIS207     -0.1226
     15  CA        20.9170   -5.7840   54.7970 C.3   207  HIS207      0.1752
     16  C         20.5580   -6.6360   56.0290 C.2   207  HIS207      0.2595
     17  O         21.3860   -6.7920   56.9580 O.2   207  HIS207     -0.2718
     18  CB        21.2710   -6.6680   53.5800 C.3   207  HIS207      0.0759
     19  CG        21.2680   -5.9180   52.2850 C.ar  207  HIS207      0.0818
     20  ND1       20.1690   -5.2110   51.8360 N.ar  207  HIS207     -0.2268
     21  CD2       22.2320   -5.7470   51.3490 C.ar  207  HIS207      0.1154
     22  CE1       20.4560   -4.6380   50.6800 C.ar  207  HIS207      0.1986
     23  NE2       21.7030   -4.9440   50.3640 N.ar  207  HIS207     -0.2212
     24  N         19.3210   -7.1350   56.0790 N.am  208  VAL208     -0.1980
     25  CA        18.8340   -7.7190   57.3320 C.3   208  VAL208      0.1595
     26  C         19.4880   -9.0210   57.6800 C.2   208  VAL208      0.2287
     27  O         19.4540   -9.3980   58.8290 O.2   208  VAL208     -0.2864
     28  CB        17.2870   -8.0250   57.3570 C.3   208  VAL208      0.0276
     29  CG1       16.4780   -6.8070   57.6270 C.3   208  VAL208      0.0022
     30  CG2       16.8530   -8.8080   56.1100 C.3   208  VAL208      0.0022
     31  N         21.1460  -18.6950   54.0520 N.3   281  CYS281     -0.1221
     32  CA        19.8580  -18.0000   53.9040 C.3   281  CYS281      0.1808
     33  C         19.9350  -17.0050   52.7340 C.2   281  CYS281      0.2602
     34  O         21.0290  -16.7450   52.2070 O.2   281  CYS281     -0.2717
     35  CB        19.5020  -17.2570   55.2120 C.3   281  CYS281      0.0970
     36  SG        17.7410  -16.7180   55.3500 S.3   281  CYS281     -0.0800
     37  N         18.7680  -16.4700   52.3620 N.am  282  SER282     -0.1938
     38  CA        18.5620  -15.3440   51.4230 C.3   282  SER282      0.2055
     39  C         18.3540  -15.7620   49.9660 C.2   282  SER282      0.2643
     40  O         17.7260  -15.0230   49.2400 O.2   282  SER282     -0.2714
     41  CB        19.7090  -14.3240   51.4550 C.3   282  SER282      0.2130
     42  OG        19.9330  -13.8570   52.7930 O.3   282  SER282     -0.2179
     43  N         18.8740  -16.9220   49.5580 N.am  283  ALA283     -0.1963
     44  CA        18.6570  -17.4760   48.2010 C.3   283  ALA283      0.1728
     45  C         18.8060  -18.9870   48.3480 C.2   283  ALA283      0.2616
     46  O         19.4220  -19.4610   49.3010 O.2   283  ALA283     -0.2715
     47  CB        19.6640  -16.9110   47.1370 C.3   283  ALA283      0.0334
     48  N         18.2650  -19.7460   47.4050 N.am  284  SER284     -0.1950
     49  CA        18.2450  -21.1930   47.5620 C.3   284  SER284      0.1924
     50  C         19.6220  -21.7970   47.7100 C.2   284  SER284      0.2314
     51  O         20.4930  -21.5320   46.8880 O.2   284  SER284     -0.2863
     52  CB        17.5850  -21.8420   46.3540 C.3   284  SER284      0.2116
     53  OG        17.4870  -23.2220   46.6000 O.3   284  SER284     -0.2180
     54  N         19.7810  -24.5040   56.6530 N.3   303  GLU303     -0.1231
     55  CA        19.2440  -23.4870   55.7620 C.3   303  GLU303      0.1699
     56  C         17.9870  -22.8480   56.3730 C.2   303  GLU303      0.2592
     57  O         17.1420  -23.5480   56.9590 O.2   303  GLU303     -0.2718
     58  CB        18.8860  -24.0650   54.3810 C.3   303  GLU303      0.0402
     59  CG        18.5350  -22.9590   53.3860 C.3   303  GLU303      0.1161
     60  CD        18.2180  -23.4570   51.9800 C.2   303  GLU303      0.3649
     61  OE1       18.0580  -24.6910   51.7990 O.co2 303  GLU303     -0.2457
     62  OE2       18.1290  -22.5960   51.0620 O.co2 303  GLU303     -0.2457
     63  N         17.9090  -21.5290   56.2270 N.am  304  ALA304     -0.1966
     64  CA        16.7780  -20.7070   56.6590 C.3   304  ALA304      0.1728
     65  C         16.2250  -19.9200   55.4750 C.2   304  ALA304      0.2616
     66  O         16.8810  -19.7600   54.4360 O.2   304  ALA304     -0.2715
     67  CB        17.2020  -19.7090   57.8200 C.3   304  ALA304      0.0334
     68  N         15.0140  -19.4000   55.6700 N.am  305  TYR305     -0.1960
     69  CA        14.2800  -18.5800   54.7050 C.3   305  TYR305      0.1771
     70  C         13.8630  -17.2870   55.4300 C.2   305  TYR305      0.2619
     71  O         13.4210  -17.3350   56.5960 O.2   305  TYR305     -0.2715
     72  CB        13.0710  -19.3720   54.1990 C.3   305  TYR305      0.0574
     73  CG        11.9050  -18.6460   53.5530 C.ar  305  TYR305     -0.0198
     74  CD1       12.0730  -17.8560   52.4250 C.ar  305  TYR305     -0.0009
     75  CD2       10.5990  -18.8440   54.0460 C.ar  305  TYR305     -0.0009
     76  CE1       10.9610  -17.2590   51.7960 C.ar  305  TYR305      0.0417
     77  CE2        9.4910  -18.2520   53.4400 C.ar  305  TYR305      0.0417
     78  CZ         9.6830  -17.4740   52.3030 C.ar  305  TYR305      0.1957
     79  OH         8.6090  -16.8610   51.7020 O.3   305  TYR305     -0.2866
     80  N         14.0680  -16.1560   54.7540 N.am  306  ALA306     -0.1963
     81  CA        13.9650  -14.8500   55.3970 C.3   306  ALA306      0.1728
     82  C         13.6830  -13.7730   54.3700 C.2   306  ALA306      0.2616
     83  O         13.9530  -13.9630   53.1810 O.2   306  ALA306     -0.2715
     84  CB        15.2770  -14.5220   56.1650 C.3   306  ALA306      0.0334
     85  N         13.1650  -12.6360   54.8290 N.am  307  MET307     -0.1963
     86  CA        12.9860  -11.5070   53.9370 C.3   307  MET307      0.1736
     87  C         12.8790  -10.2260   54.7520 C.2   307  MET307      0.2617
     88  O         12.5890  -10.2630   55.9580 O.2   307  MET307     -0.2715
     89  CB        11.7260  -11.7020   53.0320 C.3   307  MET307      0.0427
     90  CG        10.4170  -11.5640   53.7940 C.3   307  MET307      0.0599
     91  SD         9.0030  -12.2290   52.8260 S.3   307  MET307     -0.1393
     92  CE         9.0980  -11.1870   51.3520 C.3   307  MET307      0.0692
     93  N         13.0800   -9.0950   54.0780 N.am  308  THR308     -0.1937
     94  CA        13.0940   -7.8150   54.7600 C.3   308  THR308      0.2028
     95  C         11.8090   -7.5440   55.5690 C.2   308  THR308      0.2642
     96  O         11.8660   -7.1130   56.7310 O.2   308  THR308     -0.2714
     97  CB        13.3100   -6.6580   53.7580 C.3   308  THR308      0.1808
     98  OG1       14.5040   -6.8890   52.9900 O.3   308  THR308     -0.2208
     99  CG2       13.4180   -5.3250   54.5030 C.3   308  THR308      0.0379
    100  N         10.6570   -7.8120   54.9600 N.am  309  GLU309     -0.1976
    101  CA         9.3590   -7.5790   55.5970 C.3   309  GLU309      0.1602
    102  C          9.1140   -8.4360   56.8350 C.2   309  GLU309      0.2287
    103  O          8.2130   -8.1160   57.6090 O.2   309  GLU309     -0.2864
    104  CB         8.2240   -7.8350   54.5800 C.3   309  GLU309      0.0415
    105  CG         8.1760   -6.8630   53.4120 C.3   309  GLU309      0.1163
    106  CD         8.9470   -7.3540   52.1520 C.2   309  GLU309      0.3649
    107  OE1        9.9800   -8.0310   52.2820 O.co2 309  GLU309     -0.2457
    108  OE2        8.5110   -7.0200   51.0440 O.co2 309  GLU309     -0.2457
    109  N         13.7350  -25.2490   53.5910 N.3   330  VAL330     -0.1245
    110  CA        14.0770  -24.1680   54.4870 C.3   330  VAL330      0.1561
    111  C         13.4310  -24.3670   55.8460 C.2   330  VAL330      0.2260
    112  O         13.3150  -23.4210   56.6560 O.2   330  VAL330     -0.2867
    113  CB        13.6700  -22.7890   53.9060 C.3   330  VAL330      0.0252
    114  CG1       14.5270  -22.4600   52.6680 C.3   330  VAL330      0.0019
    115  CG2       12.1680  -22.7380   53.5560 C.3   330  VAL330      0.0019
    116  N          4.0240  -13.2920   50.9490 N.3   385  THR385     -0.1218
    117  CA         5.4650  -13.1680   50.6600 C.3   385  THR385      0.1862
    118  C          5.8140  -13.0220   49.1720 C.2   385  THR385      0.2287
    119  O          6.8870  -12.5510   48.8370 O.2   385  THR385     -0.2866
    120  CB         6.2860  -14.3890   51.1780 C.3   385  THR385      0.1770
    121  OG1        5.8530  -15.5800   50.4910 O.3   385  THR385     -0.2211
    122  CG2        6.1330  -14.5680   52.6960 C.3   385  THR385      0.0375
    123  N          6.2580  -15.6090   47.4110 N.3   387  ASP387     -0.1239
    124  CA         6.9310  -16.8850   47.1510 C.3   387  ASP387      0.1674
    125  C          5.9480  -18.0590   47.0750 C.2   387  ASP387      0.2266
    126  O          5.0310  -18.1450   47.8850 O.2   387  ASP387     -0.2867
    127  CB         7.9570  -17.1750   48.2590 C.3   387  ASP387      0.1410
    128  CG         9.0770  -16.1320   48.3170 C.2   387  ASP387      0.3668
    129  OD1        9.6700  -15.8350   47.2520 O.co2 387  ASP387     -0.2456
    130  OD2        9.3630  -15.6210   49.4380 O.co2 387  ASP387     -0.2456
    131  N         10.5930  -24.4350   49.0800 N.3   399  LEU399     -0.1245
    132  CA        10.3450  -23.3250   48.1870 C.3   399  LEU399      0.1561
    133  C         10.4790  -23.7210   46.7510 C.2   399  LEU399      0.2260
    134  O         11.4170  -24.4240   46.3780 O.2   399  LEU399     -0.2867
    135  CB        11.3130  -22.1800   48.4660 C.3   399  LEU399      0.0270
    136  CG        11.0510  -21.5380   49.8200 C.3   399  LEU399      0.0019
    137  CD1       12.1740  -20.5540   50.1080 C.3   399  LEU399      0.0001
    138  CD2        9.6770  -20.8460   49.8160 C.3   399  LEU399      0.0001
    139  N          9.9250  -17.4660   43.4630 N.3   402  ARG402     -0.1245
    140  CA         9.0960  -16.2560   43.4080 C.3   402  ARG402      0.1563
    141  C          8.0230  -16.4330   42.3390 C.2   402  ARG402      0.2260
    142  O          8.3320  -16.9260   41.2710 O.2   402  ARG402     -0.2867
    143  CB         9.9470  -15.0250   43.0780 C.3   402  ARG402      0.0307
    144  CG        11.0170  -14.7300   44.1390 C.3   402  ARG402      0.0489
    145  CD        11.8250  -13.5220   43.7600 C.3   402  ARG402      0.2205
    146  NE        12.8190  -13.1670   44.7790 N.pl3 402  ARG402     -0.0865
    147  CZ        14.0300  -13.7210   44.9030 C.cat 402  ARG402      0.5346
    148  NH1       14.4240  -14.6910   44.0800 N.pl3 402  ARG402      0.1354
    149  NH2       14.8470  -13.3030   45.8680 N.pl3 402  ARG402      0.1354
    150  N         14.8230  -22.4640   40.7200 N.3   417  ILE417     -0.1245
    151  CA        15.5620  -22.9990   41.8790 C.3   417  ILE417      0.1561
    152  C         15.9870  -24.4500   41.6140 C.2   417  ILE417      0.2260
    153  O         17.1540  -24.8450   41.8250 O.2   417  ILE417     -0.2867
    154  CB        14.6870  -22.9420   43.1800 C.3   417  ILE417      0.0252
    155  CG1       14.5800  -21.5140   43.6940 C.3   417  ILE417      0.0019
    156  CG2       15.2490  -23.8560   44.2850 C.3   417  ILE417      0.0019
    157  CD1       13.6710  -21.3830   44.9190 C.3   417  ILE417      0.0001
    158  N         23.1760   -7.8360   48.2260 N.3   491  SER491     -0.1217
    159  CA        22.6120   -8.9210   49.0500 C.3   491  SER491      0.1889
    160  C         23.1420  -10.3130   48.6720 C.2   491  SER491      0.2288
    161  O         22.7480  -11.3090   49.2810 O.2   491  SER491     -0.2866
    162  CB        21.0790   -8.9540   48.9230 C.3   491  SER491      0.2089
    163  OG        20.4750   -7.6840   49.1130 O.3   491  SER491     -0.2183
    164  N         22.7810  -11.8660   45.7200 N.3   493  LYS493     -0.1245
    165  CA        21.8760  -12.6160   44.8590 C.3   493  LYS493      0.1561
    166  C         22.1060  -12.2740   43.3900 C.2   493  LYS493      0.2260
    167  O         22.3380  -11.1200   43.0420 O.2   493  LYS493     -0.2867
    168  CB        20.4150  -12.3280   45.2260 C.3   493  LYS493      0.0271
    169  CG        20.1110  -12.4520   46.7150 C.3   493  LYS493      0.0035
    170  CD        18.6150  -12.2550   46.9910 C.3   493  LYS493      0.0206
    171  CE        18.3840  -11.8860   48.4690 C.3   493  LYS493      0.1093
    172  NZ        16.9770  -12.1090   48.9220 N.3   493  LYS493     -0.1314
@<TRIPOS>BOND
     1   150   151    1
     2   142   141    2
     3   152   153    2
     4   152   151    1
     5   151   154    1
     6   141   140    1
     7   167   166    2
     8   143   140    1
     9   143   144    1
    10   154   155    1
    11   154   156    1
    12   166   165    1
    13   140   139    1
    14   155   157    1
    15   145   144    1
    16   145   146    1
    17    11    10    2
    18   148   147    1
    19   146   147    2
    20   165   168    1
    21   165   164    1
    22    10     9    1
    23   147   149    1
    24   168   169    1
    25    13    12    1
    26    12     9    1
    27     9     8    1
    28    52    53    1
    29    52    49    1
    30   134   133    2
    31   169   170    1
    32   133   132    1
    33    51    50    2
    34   170   171    1
    35   125   124    1
    36   125   126    2
    37    47    44    1
    38   124   123    1
    39   124   127    1
    40     4     3    2
    41   129   128   ar
    42     8     3   am
    43    48    49    1
    44    48    45   am
    45    49    50    1
    46     3     2    1
    47     6     5    1
    48   132   135    1
    49   132   131    1
    50    44    45    1
    51    44    43    1
    52   158   159    1
    53   127   128    1
    54   128   130   ar
    55    45    46    2
    56   135   136    1
    57   171   172    1
    58     5     2    1
    59     5     7    1
    60   160   159    1
    61   160   161    2
    62   119   118    2
    63   162   159    1
    64   162   163    1
    65     2     1    1
    66   118   117    1
    67    40    39    2
    68    43    39   am
    69   138   136    1
    70   136   137    1
    71    39    38    1
    72    23    22   ar
    73    23    21   ar
    74   121   120    1
    75   117   116    1
    76   117   120    1
    77    22    20   ar
    78   108   106   ar
    79    62    60   ar
    80   120   122    1
    81    21    19   ar
    82    92    91    1
    83    38    41    1
    84    38    37    1
    85    41    42    1
    86    79    78    1
    87    76    78   ar
    88    76    74   ar
    89    61    60   ar
    90    20    19   ar
    91    60    59    1
    92   106   107   ar
    93   106   105    1
    94    34    33    2
    95    19    18    1
    96    78    77   ar
    97    37    33   am
    98    74    73   ar
    99   114   113    1
   100    33    32    1
   101    91    90    1
   102    98    97    1
   103    89    90    1
   104    89    86    1
   105    83    82    2
   106    59    58    1
   107   105   104    1
   108    77    75   ar
   109    73    75   ar
   110    73    72    1
   111   115   113    1
   112    18    15    1
   113   109   110    1
   114    97    99    1
   115    97    94    1
   116    32    31    1
   117    32    35    1
   118   113   110    1
   119    86    87    1
   120    86    85    1
   121    93    87   am
   122    93    94    1
   123    72    69    1
   124    82    85   am
   125    82    81    1
   126    58    55    1
   127    66    65    2
   128   110   111    1
   129   104   101    1
   130    69    70    1
   131    69    68    1
   132    87    88    2
   133    80    81    1
   134    80    70   am
   135    94    95    1
   136    15    14    1
   137    15    16    1
   138   100    95   am
   139   100   101    1
   140    35    36    1
   141    81    84    1
   142    70    71    2
   143    65    68   am
   144    65    64    1
   145    95    96    2
   146   101   102    1
   147    55    56    1
   148    55    54    1
   149   111   112    2
   150    16    24   am
   151    16    17    2
   152    24    25    1
   153    30    28    1
   154    63    56   am
   155    63    64    1
   156    56    57    2
   157    64    67    1
   158   102   103    2
   159    25    28    1
   160    25    26    1
   161    28    29    1
   162    26    27    2
