@<TRIPOS>MOLECULE
tmp/5ie5A00.pdb
 184 182 0 0 0
SMALL
GASTEIGER

@<TRIPOS>ATOM
      1  N        -15.0000   18.0760   11.9550 N.3    31  ASP31      -0.1225
      2  CA       -14.4820   17.1260   10.9740 C.3    31  ASP31       0.1805
      3  C        -13.9970   15.8850   11.6890 C.2    31  ASP31       0.2598
      4  O        -14.1710   15.7700   12.8810 O.2    31  ASP31      -0.2718
      5  CB       -13.3620   17.7660   10.1710 C.3    31  ASP31       0.1424
      6  CG       -12.2690   18.2640   11.0510 C.2    31  ASP31       0.3668
      7  OD1      -11.4050   17.4380   11.4320 O.co2  31  ASP31      -0.2456
      8  OD2      -12.3470   19.4490   11.4480 O.co2  31  ASP31      -0.2456
      9  N        -13.4380   14.9390   10.9480 N.am   32  GLY32      -0.1942
     10  CA       -13.0320   13.6240   11.4690 C.3    32  GLY32       0.2014
     11  C        -12.0540   13.6620   12.6340 C.2    32  GLY32       0.2638
     12  O        -12.0200   12.7600   13.4710 O.2    32  GLY32      -0.2714
     13  N        -11.2380   14.6950   12.6850 N.am   33  LEU33      -0.1977
     14  CA       -10.2620   14.7870   13.7620 C.3    33  LEU33       0.1596
     15  C        -10.9180   15.0710   15.0930 C.2    33  LEU33       0.2287
     16  O        -10.2850   14.9130   16.1250 O.2    33  LEU33      -0.2864
     17  CB        -9.2250   15.8650   13.4480 C.3    33  LEU33       0.0297
     18  CG        -8.5790   15.6260   12.0840 C.3    33  LEU33       0.0022
     19  CD1       -7.6180   16.7630   11.7820 C.3    33  LEU33       0.0001
     20  CD2       -7.8430   14.2750   12.0650 C.3    33  LEU33       0.0001
     21  N        -16.5660   17.3500    6.1670 N.3   102  ALA102     -0.1231
     22  CA       -15.9610   16.0270    6.0120 C.3   102  ALA102      0.1694
     23  C        -16.8290   14.9580    6.6140 C.2   102  ALA102      0.2592
     24  O        -18.0220   14.9240    6.2900 O.2   102  ALA102     -0.2718
     25  CB       -14.5620   16.0080    6.5530 C.3   102  ALA102      0.0304
     26  N        -16.3260   14.1410    7.5330 N.am  103  SER103     -0.1952
     27  CA       -17.2440   13.2190    8.2480 C.3   103  SER103      0.1924
     28  C        -18.3850   13.9530    8.9470 C.2   103  SER103      0.2314
     29  O        -19.4970   13.4260    9.0840 O.2   103  SER103     -0.2863
     30  CB       -16.5240   12.3430    9.2630 C.3   103  SER103      0.2116
     31  OG       -15.6180   13.0780   10.0370 O.3   103  SER103     -0.2180
     32  N        -17.3140   13.5670    2.0310 N.3   128  PRO128     -0.2116
     33  CA       -16.5090   12.5780    1.3290 C.3   128  PRO128      0.1372
     34  C        -17.3680   11.4050    0.8440 C.2   128  PRO128      0.2244
     35  O        -18.0350   10.7750    1.6120 O.2   128  PRO128     -0.2868
     36  CB       -15.5220   12.1240    2.3860 C.3   128  PRO128      0.0268
     37  CG       -16.2630   12.2900    3.6700 C.3   128  PRO128      0.0207
     38  CD       -17.2150   13.4410    3.4950 C.3   128  PRO128      0.0892
     39  N        -15.8970    9.2190   -1.7930 N.3   130  LYS130     -0.1245
     40  CA       -14.9410    8.3950   -2.5120 C.3   130  LYS130      0.1561
     41  C        -13.9050    7.8550   -1.5410 C.2   130  LYS130      0.2260
     42  O        -13.3360    8.5950   -0.7480 O.2   130  LYS130     -0.2867
     43  CB       -14.1890    9.2210   -3.5820 C.3   130  LYS130      0.0271
     44  CG       -15.0660    9.6010   -4.7640 C.3   130  LYS130      0.0035
     45  CD       -14.3710   10.6180   -5.6530 C.3   130  LYS130      0.0206
     46  CE       -14.8410   10.5450   -7.1110 C.3   130  LYS130      0.1093
     47  NZ       -16.3080   10.3000   -7.3030 N.3   130  LYS130     -0.1314
     48  N        -10.1800    6.9280   -0.7240 N.3   132  LEU132     -0.1245
     49  CA        -8.9350    7.5960   -1.0160 C.3   132  LEU132      0.1561
     50  C         -7.8230    6.7100   -0.4530 C.2   132  LEU132      0.2260
     51  O         -7.5870    6.6720    0.7580 O.2   132  LEU132     -0.2867
     52  CB        -8.9500    8.9660   -0.3260 C.3   132  LEU132      0.0270
     53  CG        -9.2710   10.2390   -1.1220 C.3   132  LEU132      0.0019
     54  CD1      -10.1210   10.0180   -2.3600 C.3   132  LEU132      0.0001
     55  CD2       -9.8830   11.3160   -0.2410 C.3   132  LEU132      0.0001
     56  N         -4.4780    6.6230   -0.4010 N.3   134  HIS134     -0.1226
     57  CA        -3.4310    7.2220    0.4170 C.3   134  HIS134      0.1752
     58  C         -3.8440    7.4600    1.8770 C.2   134  HIS134      0.2595
     59  O         -3.0180    7.3450    2.7770 O.2   134  HIS134     -0.2718
     60  CB        -2.9070    8.5210   -0.2150 C.3   134  HIS134      0.0759
     61  CG        -3.8850    9.6600   -0.1940 C.ar  134  HIS134      0.0818
     62  ND1       -3.8070   10.6910    0.7200 N.ar  134  HIS134     -0.2268
     63  CD2       -4.9020    9.9790   -1.0300 C.ar  134  HIS134      0.1154
     64  CE1       -4.7660   11.5680    0.4800 C.ar  134  HIS134      0.1986
     65  NE2       -5.4400   11.1620   -0.5810 N.ar  134  HIS134     -0.2212
     66  N         -5.1120    7.7730    2.1230 N.am  135  LEU135     -0.1980
     67  CA        -5.6170    7.8700    3.4980 C.3   135  LEU135      0.1596
     68  C         -5.8560    6.5070    4.1280 C.2   135  LEU135      0.2287
     69  O         -5.4740    6.2740    5.2660 O.2   135  LEU135     -0.2864
     70  CB        -6.9150    8.6720    3.5370 C.3   135  LEU135      0.0297
     71  CG        -6.7900   10.1850    3.7120 C.3   135  LEU135      0.0022
     72  CD1       -5.3580   10.6660    3.5740 C.3   135  LEU135      0.0001
     73  CD2       -7.7290   10.9160    2.7630 C.3   135  LEU135      0.0001
     74  N          0.3010   16.2410    6.3400 N.3   153  HIS153     -0.1226
     75  CA        -0.6960   16.4070    5.3210 C.3   153  HIS153      0.1752
     76  C         -1.6710   17.5570    5.6610 C.2   153  HIS153      0.2595
     77  O         -2.0380   18.3280    4.7710 O.2   153  HIS153     -0.2718
     78  CB        -1.4280   15.0810    5.1400 C.3   153  HIS153      0.0759
     79  CG        -2.5230   15.1220    4.1270 C.ar  153  HIS153      0.0818
     80  ND1       -2.3020   15.4340    2.8060 N.ar  153  HIS153     -0.2268
     81  CD2       -3.8490   14.8760    4.2370 C.ar  153  HIS153      0.1154
     82  CE1       -3.4380   15.3410    2.1350 C.ar  153  HIS153      0.1986
     83  NE2       -4.3920   14.9920    2.9790 N.ar  153  HIS153     -0.2212
     84  N         -2.0790   17.6930    6.9250 N.am  154  MET154     -0.1979
     85  CA        -2.9820   18.7890    7.2970 C.3   154  MET154      0.1605
     86  C         -2.2620   20.1280    7.2140 C.2   154  MET154      0.2287
     87  O         -2.8260   21.1200    6.7490 O.2   154  MET154     -0.2864
     88  CB        -3.5200   18.6610    8.7230 C.3   154  MET154      0.0413
     89  CG        -4.2880   17.3990    9.0270 C.3   154  MET154      0.0598
     90  SD        -5.7190   17.2560    7.9570 S.3   154  MET154     -0.1393
     91  CE        -5.7300   15.4730    7.7440 C.3   154  MET154      0.0692
     92  N         -3.9570   20.5310    3.1060 N.3   158  VAL158     -0.1245
     93  CA        -5.3940   20.7370    3.2140 C.3   158  VAL158      0.1561
     94  C         -5.8650   21.7720    4.2220 C.2   158  VAL158      0.2260
     95  O         -7.0520   21.9900    4.3250 O.2   158  VAL158     -0.2867
     96  CB        -6.1750   19.4200    3.4030 C.3   158  VAL158      0.0252
     97  CG1       -6.0060   18.5090    2.1820 C.3   158  VAL158      0.0019
     98  CG2       -5.7470   18.7150    4.6770 C.3   158  VAL158      0.0019
     99  N         -8.6190    8.2210   14.0710 N.3   183  TRP183     -0.1241
    100  CA        -9.2690    8.6050   12.8290 C.3   183  TRP183      0.1605
    101  C         -8.8690    7.6650   11.6880 C.2   183  TRP183      0.2264
    102  O         -9.7290    7.1720   10.9590 O.2   183  TRP183     -0.2867
    103  CB        -8.8930   10.0350   12.4420 C.3   183  TRP183      0.0550
    104  CG        -9.5510   10.4660   11.1850 C.ar  183  TRP183      0.0003
    105  CD1      -10.8600   10.8510   11.0210 C.ar  183  TRP183      0.0946
    106  CD2       -8.9790   10.4450    9.8730 C.ar  183  TRP183      0.0152
    107  NE1      -11.1300   11.0660    9.6940 N.ar  183  TRP183     -0.2442
    108  CE2       -9.9860   10.8330    8.9730 C.ar  183  TRP183      0.0810
    109  CE3       -7.7220   10.0990    9.3720 C.ar  183  TRP183      0.0012
    110  CZ2       -9.7780   10.8520    7.6030 C.ar  183  TRP183      0.0191
    111  CZ3       -7.4960   10.1930    8.0170 C.ar  183  TRP183      0.0001
    112  CH2       -8.5190   10.5430    7.1450 C.ar  183  TRP183      0.0015
    113  N        -12.1710    5.7860   10.2870 N.3   187  TYR187     -0.1228
    114  CA       -12.9390    6.6510    9.3890 C.3   187  TYR187      0.1721
    115  C        -12.7840    6.4370    7.8600 C.2   187  TYR187      0.2437
    116  O        -13.7760    6.3310    7.1400 O.2   187  TYR187     -0.2733
    117  CB       -12.6830    8.1150    9.7300 C.3   187  TYR187      0.0547
    118  CG       -13.4780    8.6080   10.9110 C.ar  187  TYR187     -0.0200
    119  CD1      -13.2580    8.0990   12.2010 C.ar  187  TYR187     -0.0009
    120  CD2      -14.2500    9.7440   10.8030 C.ar  187  TYR187     -0.0009
    121  CE1      -13.9200    8.6340   13.3180 C.ar  187  TYR187      0.0417
    122  CE2      -14.9440   10.2590   11.8960 C.ar  187  TYR187      0.0417
    123  CZ       -14.7680    9.6980   13.1540 C.ar  187  TYR187      0.1957
    124  OH       -15.4950   10.1920   14.1980 O.3   187  TYR187     -0.2866
    125  N        -11.5590    6.4230    7.3330 N.am  188  PRO188     -0.2729
    126  CA       -11.5000    6.6180    5.8650 C.3   188  PRO188      0.1401
    127  C        -12.0830    5.4790    5.0470 C.2   188  PRO188      0.2269
    128  O        -12.5050    5.7080    3.9210 O.2   188  PRO188     -0.2865
    129  CB       -10.0050    6.7980    5.5710 C.3   188  PRO188      0.0296
    130  CG        -9.2900    6.4780    6.8370 C.3   188  PRO188      0.0237
    131  CD       -10.2600    6.6210    7.9800 C.3   188  PRO188      0.0939
    132  N        -16.4910    5.7100    6.2210 N.3   191  ILE191     -0.1231
    133  CA       -17.2750    6.9270    6.0430 C.3   191  ILE191      0.1678
    134  C        -17.7520    7.1670    4.6020 C.2   191  ILE191      0.2434
    135  O        -18.9360    7.3920    4.3760 O.2   191  ILE191     -0.2733
    136  CB       -16.5750    8.1720    6.6480 C.3   191  ILE191      0.0265
    137  CG1      -17.1660    8.4960    8.0490 C.3   191  ILE191      0.0019
    138  CG2      -16.8480    9.4090    5.8200 C.3   191  ILE191      0.0020
    139  CD1      -16.3360    7.8860    9.1110 C.3   191  ILE191      0.0001
    140  N        -16.8520    7.0790    3.6080 N.am  192  PRO192     -0.2729
    141  CA       -17.3000    7.3300    2.2140 C.3   192  PRO192      0.1401
    142  C        -18.4720    6.5010    1.6930 C.2   192  PRO192      0.2269
    143  O        -19.4700    7.0880    1.3000 O.2   192  PRO192     -0.2865
    144  CB       -16.0330    7.1320    1.3880 C.3   192  PRO192      0.0296
    145  CG       -14.9170    7.4440    2.3530 C.3   192  PRO192      0.0237
    146  CD       -15.3850    6.9740    3.7100 C.3   192  PRO192      0.0939
    147  N        -11.1730   16.9740   -5.7560 N.3   220  SER220     -0.1202
    148  CA       -11.5150   16.3850   -4.4510 C.3   220  SER220      0.2020
    149  C        -13.0270   16.3310   -4.1990 C.2   220  SER220      0.2618
    150  O        -13.5520   15.3500   -3.7200 O.2   220  SER220     -0.2717
    151  CB       -10.8580   17.1710   -3.3500 C.3   220  SER220      0.2103
    152  OG        -9.4680   17.1450   -3.5850 O.3   220  SER220     -0.2182
    153  N        -13.7410   17.3870   -4.5430 N.am  221  PHE221     -0.1975
    154  CA       -15.1420   17.4040   -4.2730 C.3   221  PHE221      0.1639
    155  C        -15.9660   17.7850   -5.5120 C.2   221  PHE221      0.2290
    156  O        -17.1030   18.2290   -5.3950 O.2   221  PHE221     -0.2864
    157  CB       -15.3760   18.3170   -3.0620 C.3   221  PHE221      0.0560
    158  CG       -14.7400   17.7900   -1.8090 C.ar  221  PHE221     -0.0200
    159  CD1      -15.2630   16.6740   -1.1700 C.ar  221  PHE221     -0.0042
    160  CD2      -13.5310   18.2690   -1.3880 C.ar  221  PHE221     -0.0042
    161  CE1      -14.5770   16.0400   -0.1490 C.ar  221  PHE221     -0.0003
    162  CE2      -12.8830   17.6950   -0.3180 C.ar  221  PHE221     -0.0003
    163  CZ       -13.3770   16.5570    0.2640 C.ar  221  PHE221     -0.0000
    164  N        -10.2000   22.6510    3.5020 N.3   242  HIS242     -0.1226
    165  CA       -10.9890   21.6940    4.2970 C.3   242  HIS242      0.1752
    166  C        -11.3800   22.2420    5.6900 C.2   242  HIS242      0.2596
    167  O        -12.2150   21.6470    6.3750 O.2   242  HIS242     -0.2718
    168  CB       -10.1820   20.4070    4.4250 C.3   242  HIS242      0.0759
    169  CG       -11.0110   19.1910    4.6830 C.ar  242  HIS242      0.0818
    170  ND1      -11.9560   18.7310    3.7890 N.ar  242  HIS242     -0.2268
    171  CD2      -10.9460   18.2670    5.6770 C.ar  242  HIS242      0.1154
    172  CE1      -12.4600   17.5950    4.2390 C.ar  242  HIS242      0.1986
    173  NE2      -11.8860   17.3080    5.3980 N.ar  242  HIS242     -0.2212
    174  N        -10.8030   23.3770    6.1120 N.am  243  PHE243     -0.1976
    175  CA       -11.0480   23.8940    7.4730 C.3   243  PHE243      0.1639
    176  C        -11.3840   25.3880    7.5400 C.2   243  PHE243      0.2290
    177  O        -10.6120   26.1720    8.1170 O.2   243  PHE243     -0.2864
    178  CB        -9.7940   23.6580    8.3020 C.3   243  PHE243      0.0560
    179  CG        -9.4200   22.2100    8.4430 C.ar  243  PHE243     -0.0200
    180  CD1      -10.0010   21.4240    9.4270 C.ar  243  PHE243     -0.0042
    181  CD2       -8.4230   21.6620    7.6530 C.ar  243  PHE243     -0.0042
    182  CE1       -9.6260   20.0910    9.5830 C.ar  243  PHE243     -0.0003
    183  CE2       -8.0800   20.3290    7.7690 C.ar  243  PHE243     -0.0003
    184  CZ        -8.6610   19.5390    8.7540 C.ar  243  PHE243     -0.0000
@<TRIPOS>BOND
     1    47    46    1
     2    46    45    1
     3   147   148    1
     4    45    44    1
     5   155   156    2
     6   155   154    1
     7    44    43    1
     8   153   154    1
     9   153   149   am
    10   148   149    1
    11   148   151    1
    12   154   157    1
    13   149   150    2
    14   152   151    1
    15    43    40    1
    16   157   158    1
    17    40    39    1
    18    40    41    1
    19    54    53    1
    20   158   160   ar
    21   158   159   ar
    22    41    42    2
    23   160   162   ar
    24   159   161   ar
    25    53    52    1
    26    53    55    1
    27    63    65   ar
    28    63    61   ar
    29    49    48    1
    30    49    50    1
    31    49    52    1
    32    65    64   ar
    33    50    51    2
    34    56    57    1
    35   162   163   ar
    36    60    61    1
    37    60    57    1
    38    61    62   ar
    39   161   163   ar
    40    57    58    1
    41    64    62   ar
    42    34    33    1
    43    34    35    2
    44   143   142    2
    45    33    32    1
    46    33    36    1
    47   144   141    1
    48   144   145    1
    49   142   141    1
    50    58    66   am
    51    58    59    2
    52    32    38    1
    53    66    67    1
    54    82    80   ar
    55    82    83   ar
    56    97    96    1
    57   141   140    1
    58   145   146    1
    59    36    37    1
    60    73    71    1
    61    80    79   ar
    62    83    81   ar
    63    92    93    1
    64    93    96    1
    65    93    94    1
    66    96    98    1
    67    38    37    1
    68    67    70    1
    69    67    68    1
    70   164   165    1
    71    70    71    1
    72    72    71    1
    73   140   146    1
    74   140   134   am
    75   170   172   ar
    76   170   169   ar
    77   128   127    2
    78    79    81   ar
    79    79    78    1
    80    68    69    2
    81    94    95    2
    82   172   173   ar
    83   165   168    1
    84   165   166    1
    85   135   134    2
    86   168   169    1
    87   134   133    1
    88   169   171   ar
    89    77    76    2
    90   127   126    1
    91    78    75    1
    92    75    76    1
    93    75    74    1
    94   173   171   ar
    95   129   126    1
    96   129   130    1
    97    76    84   am
    98   166   174   am
    99   166   167    2
   100   138   136    1
   101   126   125    1
   102    22    21    1
   103    22    25    1
   104    22    23    1
   105   133   132    1
   106   133   136    1
   107   174   175    1
   108    24    23    2
   109    23    26   am
   110   136   137    1
   111    87    86    2
   112   130   131    1
   113    84    85    1
   114   116   115    2
   115   112   110   ar
   116   112   111   ar
   117    86    85    1
   118    85    88    1
   119   125   115   am
   120   125   131    1
   121   175   176    1
   122   175   178    1
   123    26    27    1
   124   176   177    2
   125   110   108   ar
   126   181   183   ar
   127   181   179   ar
   128    91    90    1
   129   183   184   ar
   130   115   114    1
   131    90    89    1
   132   111   109   ar
   133   137   139    1
   134    27    28    1
   135    27    30    1
   136   178   179    1
   137   179   180   ar
   138    88    89    1
   139   184   182   ar
   140    28    29    2
   141   108   107   ar
   142   108   106   ar
   143    30    31    1
   144   109   106   ar
   145   114   117    1
   146   114   113    1
   147   180   182   ar
   148   107   105   ar
   149   117   118    1
   150   106   104   ar
   151     5     2    1
   152     5     6    1
   153   120   118   ar
   154   120   122   ar
   155   118   119   ar
   156     9    10    1
   157     9     3   am
   158   102   101    2
   159     2     3    1
   160     2     1    1
   161   105   104   ar
   162     6     7   ar
   163     6     8   ar
   164   104   103    1
   165    10    11    1
   166   101   100    1
   167     3     4    2
   168    19    18    1
   169   122   123   ar
   170    20    18    1
   171    18    17    1
   172   119   121   ar
   173   103   100    1
   174    11    13   am
   175    11    12    2
   176    13    14    1
   177   100    99    1
   178   123   121   ar
   179   123   124    1
   180    17    14    1
   181    14    15    1
   182    15    16    2
