@<TRIPOS>MOLECULE
tmp/5iedA07.pdb
 144 142 0 0 0
SMALL
GASTEIGER

@<TRIPOS>ATOM
      1  N          5.3610    7.5610    2.7080 N.3   314  TRP314     -0.1241
      2  CA         4.4680    7.2270    3.8150 C.3   314  TRP314      0.1605
      3  C          3.5710    6.1350    3.1760 C.2   314  TRP314      0.2264
      4  O          2.6740    6.4770    2.4250 O.2   314  TRP314     -0.2867
      5  CB         3.6360    8.4520    4.1920 C.3   314  TRP314      0.0550
      6  CG         2.6610    8.2600    5.3300 C.ar  314  TRP314      0.0003
      7  CD1        2.5770    7.2100    6.2040 C.ar  314  TRP314      0.0946
      8  CD2        1.6560    9.1980    5.7300 C.ar  314  TRP314      0.0152
      9  NE1        1.5380    7.4200    7.0920 N.ar  314  TRP314     -0.2442
     10  CE2        0.9850    8.6520    6.8440 C.ar  314  TRP314      0.0810
     11  CE3        1.3070   10.4810    5.2910 C.ar  314  TRP314      0.0012
     12  CZ2       -0.0830    9.3110    7.4690 C.ar  314  TRP314      0.0191
     13  CZ3        0.2570   11.1410    5.9190 C.ar  314  TRP314      0.0001
     14  CH2       -0.4320   10.5470    6.9890 C.ar  314  TRP314      0.0015
     15  N          8.5270    5.7520    7.6270 N.3   342  ASP342     -0.1225
     16  CA         7.6030    6.7650    8.1130 C.3   342  ASP342      0.1805
     17  C          6.8130    6.1900    9.3110 C.2   342  ASP342      0.2597
     18  O          7.1400    5.1010    9.7630 O.2   342  ASP342     -0.2718
     19  CB         6.7620    7.3390    6.9540 C.3   342  ASP342      0.1424
     20  CG         6.3100    8.7700    7.1120 C.2   342  ASP342      0.3668
     21  OD1        6.0010    9.1720    8.2460 O.co2 342  ASP342     -0.2456
     22  OD2        6.1100    9.4350    6.0890 O.co2 342  ASP342     -0.2456
     23  N          5.8210    6.9240    9.8320 N.am  343  ILE343     -0.1980
     24  CA         5.1070    6.6320   11.0910 C.3   343  ILE343      0.1595
     25  C          4.4500    5.2600   11.1960 C.2   343  ILE343      0.2287
     26  O          4.2930    4.7880   12.3210 O.2   343  ILE343     -0.2864
     27  CB         4.0710    7.7050   11.4970 C.3   343  ILE343      0.0276
     28  CG1        2.9590    7.9440   10.4160 C.3   343  ILE343      0.0022
     29  CG2        4.7970    9.0060   11.8920 C.3   343  ILE343      0.0022
     30  CD1        1.8330    8.8670   10.8730 C.3   343  ILE343      0.0001
     31  N         11.4380    7.6850   11.5610 N.3   379  ILE379     -0.1245
     32  CA        10.7850    8.8970   12.0510 C.3   379  ILE379      0.1561
     33  C         10.5790    8.7750   13.5870 C.2   379  ILE379      0.2260
     34  O         10.2260    7.7110   14.1010 O.2   379  ILE379     -0.2867
     35  CB         9.4510    9.1710   11.3000 C.3   379  ILE379      0.0252
     36  CG1        8.9340   10.6050   11.5530 C.3   379  ILE379      0.0019
     37  CG2        8.3240    8.1670   11.7050 C.3   379  ILE379      0.0019
     38  CD1        7.8970   11.0330   10.5250 C.3   379  ILE379      0.0001
     39  N         -0.9800   11.9760   15.8890 N.3   416  TRP416     -0.1241
     40  CA        -0.9870   10.6370   15.2690 C.3   416  TRP416      0.1605
     41  C         -1.2870    9.4580   16.2100 C.2   416  TRP416      0.2264
     42  O         -1.9970    8.5540   15.7730 O.2   416  TRP416     -0.2867
     43  CB         0.3250   10.3680   14.5060 C.3   416  TRP416      0.0550
     44  CG         0.6110   11.3750   13.4390 C.ar  416  TRP416      0.0003
     45  CD1        1.7660   12.0880   13.2950 C.ar  416  TRP416      0.0946
     46  CD2       -0.2820   11.8460   12.4070 C.ar  416  TRP416      0.0152
     47  NE1        1.6290   13.0130   12.2860 N.ar  416  TRP416     -0.2442
     48  CE2        0.3960   12.8690   11.7050 C.ar  416  TRP416      0.0810
     49  CE3       -1.5810   11.4990   11.9950 C.ar  416  TRP416      0.0012
     50  CZ2       -0.1770   13.5310   10.6080 C.ar  416  TRP416      0.0191
     51  CZ3       -2.1460   12.1630   10.9210 C.ar  416  TRP416      0.0001
     52  CH2       -1.4350   13.1480   10.2210 C.ar  416  TRP416      0.0015
     53  N         14.5870   11.0790   11.7350 N.3   453  TRP453     -0.1241
     54  CA        13.7760   12.1190   11.1440 C.3   453  TRP453      0.1605
     55  C         12.8200   12.6600   12.2080 C.2   453  TRP453      0.2264
     56  O         12.0070   11.8990   12.7410 O.2   453  TRP453     -0.2867
     57  CB        13.0250   11.5200    9.9460 C.3   453  TRP453      0.0550
     58  CG        11.9480   12.3570    9.3320 C.ar  453  TRP453      0.0003
     59  CD1       11.8300   13.7180    9.3610 C.ar  453  TRP453      0.0946
     60  CD2       10.9570   11.8920    8.4110 C.ar  453  TRP453      0.0152
     61  NE1       10.7700   14.1110    8.5860 N.ar  453  TRP453     -0.2442
     62  CE2       10.1990   13.0090    8.0140 C.ar  453  TRP453      0.0810
     63  CE3       10.5640   10.6150    7.9680 C.ar  453  TRP453      0.0012
     64  CZ2        9.0960   12.9000    7.1620 C.ar  453  TRP453      0.0191
     65  CZ3        9.4520   10.5080    7.1410 C.ar  453  TRP453      0.0001
     66  CH2        8.7370   11.6430    6.7470 C.ar  453  TRP453      0.0015
     67  N          9.7630   15.0030   12.7520 N.3   455  ASP455     -0.1225
     68  CA         8.6450   15.6290   12.0480 C.3   455  ASP455      0.1805
     69  C          7.6800   16.1870   13.0950 C.2   455  ASP455      0.2597
     70  O          7.8130   15.8550   14.2690 O.2   455  ASP455     -0.2718
     71  CB         7.9230   14.5750   11.1930 C.3   455  ASP455      0.1424
     72  CG         6.7990   15.0930   10.3350 C.2   455  ASP455      0.3668
     73  OD1        6.8340   16.3140    9.9620 O.co2 455  ASP455     -0.2456
     74  OD2        5.8540   14.3130   10.0660 O.co2 455  ASP455     -0.2456
     75  N          6.7120   17.0230   12.6720 N.am  456  MET456     -0.1979
     76  CA         5.6530   17.5500   13.5520 C.3   456  MET456      0.1605
     77  C          6.2340   18.3320   14.7550 C.2   456  MET456      0.2287
     78  O          5.5470   18.4840   15.7480 O.2   456  MET456     -0.2864
     79  CB         4.7700   16.4070   14.1090 C.3   456  MET456      0.0413
     80  CG         4.2940   15.4080   13.1110 C.3   456  MET456      0.0598
     81  SD         3.2180   16.0550   11.8280 S.3   456  MET456     -0.1393
     82  CE         1.7820   16.3290   12.6310 C.3   456  MET456      0.0692
     83  N         11.6120   19.2030   10.4480 N.3   515  ARG515     -0.1245
     84  CA        10.6570   20.0320    9.7380 C.3   515  ARG515      0.1563
     85  C         10.6910   21.4780   10.2440 C.2   515  ARG515      0.2260
     86  O         10.7410   22.3950    9.4320 O.2   515  ARG515     -0.2867
     87  CB         9.2460   19.4690    9.8250 C.3   515  ARG515      0.0307
     88  CG         8.3960   20.0340    8.6840 C.3   515  ARG515      0.0489
     89  CD         7.0790   19.3130    8.5110 C.3   515  ARG515      0.2205
     90  NE         6.2000   19.4880    9.6630 N.pl3 515  ARG515     -0.0865
     91  CZ         4.9380   19.0850    9.7130 C.cat 515  ARG515      0.5346
     92  NH1        4.4090   18.4080    8.7010 N.pl3 515  ARG515      0.1354
     93  NH2        4.2000   19.3290   10.7860 N.pl3 515  ARG515      0.1354
     94  N         13.7960   20.2870    5.3830 N.3   528  TRP528     -0.1241
     95  CA        13.0880   20.1940    4.0990 C.3   528  TRP528      0.1605
     96  C         11.8340   21.1000    4.1330 C.2   528  TRP528      0.2264
     97  O         11.3740   21.4870    5.2140 O.2   528  TRP528     -0.2867
     98  CB        12.8160   18.7620    3.6310 C.3   528  TRP528      0.0550
     99  CG        11.4790   18.2010    3.9810 C.ar  528  TRP528      0.0003
    100  CD1       10.4600   17.9410    3.1200 C.ar  528  TRP528      0.0946
    101  CD2       10.9880   17.8700    5.2950 C.ar  528  TRP528      0.0152
    102  NE1        9.4020   17.3780    3.7950 N.ar  528  TRP528     -0.2442
    103  CE2        9.6880   17.3380    5.1290 C.ar  528  TRP528      0.0810
    104  CE3       11.5570   17.8710    6.5870 C.ar  528  TRP528      0.0012
    105  CZ2        8.9190   16.8860    6.1970 C.ar  528  TRP528      0.0191
    106  CZ3       10.7900   17.4050    7.6460 C.ar  528  TRP528      0.0001
    107  CH2        9.4840   16.9190    7.4440 C.ar  528  TRP528      0.0015
    108  N          5.2170   19.6230    3.3190 N.3   531  ASP531     -0.1239
    109  CA         4.2420   18.9810    2.4480 C.3   531  ASP531      0.1674
    110  C          3.9210   19.8080    1.2320 C.2   531  ASP531      0.2266
    111  O          2.9560   20.5640    1.2050 O.2   531  ASP531     -0.2867
    112  CB         2.9830   18.6380    3.2620 C.3   531  ASP531      0.1410
    113  CG         3.2510   17.6560    4.3760 C.2   531  ASP531      0.3668
    114  OD1        4.2850   16.9360    4.3140 O.co2 531  ASP531     -0.2456
    115  OD2        2.4500   17.5970    5.3030 O.co2 531  ASP531     -0.2456
    116  N         10.5580   17.5870   -1.2820 N.3   560  ASP560     -0.1239
    117  CA        10.2080   16.2090   -1.6380 C.3   560  ASP560      0.1674
    118  C         10.1790   16.0170   -3.1310 C.2   560  ASP560      0.2266
    119  O          9.4560   16.7260   -3.8290 O.2   560  ASP560     -0.2867
    120  CB         8.8540   15.7930   -1.0860 C.3   560  ASP560      0.1410
    121  CG         8.7710   15.7080    0.4220 C.2   560  ASP560      0.3668
    122  OD1        9.8410   15.6770    1.0820 O.co2 560  ASP560     -0.2456
    123  OD2        7.6660   15.5170    0.9270 O.co2 560  ASP560     -0.2456
    124  N          4.9120   15.8990   -2.3460 N.3   564  PHE564     -0.1241
    125  CA         4.3730   15.0520   -1.2970 C.3   564  PHE564      0.1605
    126  C          2.9110   14.6560   -1.6360 C.2   564  PHE564      0.2264
    127  O          2.5890   13.4610   -1.7170 O.2   564  PHE564     -0.2867
    128  CB         4.4680   15.7500    0.0490 C.3   564  PHE564      0.0534
    129  CG         3.8640   14.9950    1.1970 C.ar  564  PHE564     -0.0203
    130  CD1        4.4520   13.8310    1.6670 C.ar  564  PHE564     -0.0042
    131  CD2        2.6890   15.4300    1.7930 C.ar  564  PHE564     -0.0042
    132  CE1        3.9160   13.1530    2.7530 C.ar  564  PHE564     -0.0003
    133  CE2        2.1690   14.7640    2.9070 C.ar  564  PHE564     -0.0003
    134  CZ         2.7660   13.6080    3.3530 C.ar  564  PHE564     -0.0000
    135  N          9.8480   11.5100   -1.7740 N.3   589  HIS589     -0.1241
    136  CA         8.8930   11.2330   -0.6970 C.3   589  HIS589      0.1621
    137  C          7.4730   11.4650   -1.2280 C.2   589  HIS589      0.2264
    138  O          7.2840   12.1520   -2.2300 O.2   589  HIS589     -0.2867
    139  CB         9.2390   12.0480    0.5740 C.3   589  HIS589      0.0745
    140  CG         8.4100   11.7140    1.7630 C.ar  589  HIS589      0.0817
    141  ND1        8.3270   10.4360    2.2510 N.ar  589  HIS589     -0.2268
    142  CD2        7.6130   12.5100    2.4940 C.ar  589  HIS589      0.1154
    143  CE1        7.5030   10.5030    3.2750 C.ar  589  HIS589      0.1986
    144  NE2        7.0520   11.7340    3.4470 N.ar  589  HIS589     -0.2212
@<TRIPOS>BOND
     1   119   118    2
     2   118   117    1
     3   124   125    1
     4   138   137    2
     5   135   136    1
     6   127   126    2
     7   117   116    1
     8   117   120    1
     9   126   125    1
    10   125   128    1
    11   137   136    1
    12   120   121    1
    13   136   139    1
    14   128   129    1
    15   121   123   ar
    16   121   122   ar
    17   139   140    1
    18   129   130   ar
    19   129   131   ar
    20   111   110    2
    21   110   109    1
    22   130   132   ar
    23   140   141   ar
    24   140   142   ar
    25   131   133   ar
    26   141   143   ar
    27     4     3    2
    28   109   112    1
    29   109   108    1
    30   142   144   ar
    31     1     2    1
    32   132   134   ar
    33   133   134   ar
    34   100   102   ar
    35   100    99   ar
    36     3     2    1
    37   112   113    1
    38   143   144   ar
    39    98    99    1
    40    98    95    1
    41   102   103   ar
    42     2     5    1
    43    99   101   ar
    44    95    96    1
    45    95    94    1
    46    96    97    2
    47     5     6    1
    48   114   113   ar
    49   113   115   ar
    50   103   101   ar
    51   103   105   ar
    52    11     8   ar
    53    11    13   ar
    54   101   104   ar
    55     6     8   ar
    56     6     7   ar
    57     8    10   ar
    58    13    14   ar
    59    22    20   ar
    60   105   107   ar
    61     7     9   ar
    62   104   106   ar
    63    66    65   ar
    64    66    64   ar
    65    10     9   ar
    66    10    12   ar
    67    19    20    1
    68    19    16    1
    69    14    12   ar
    70    20    21   ar
    71    65    63   ar
    72    64    62   ar
    73   107   106   ar
    74    15    16    1
    75    63    60   ar
    76    62    60   ar
    77    62    61   ar
    78    16    17    1
    79    60    58   ar
    80    89    88    1
    81    89    90    1
    82    61    59   ar
    83    88    87    1
    84    92    91    1
    85    17    18    2
    86    17    23   am
    87    58    59   ar
    88    58    57    1
    89    86    85    2
    90    90    91    2
    91    91    93    1
    92    84    87    1
    93    84    85    1
    94    84    83    1
    95    23    24    1
    96    57    54    1
    97    73    72   ar
    98    74    72   ar
    99    52    50   ar
   100    52    51   ar
   101    72    71    1
   102    28    30    1
   103    28    27    1
   104    38    36    1
   105    50    48   ar
   106    51    49   ar
   107    24    25    1
   108    24    27    1
   109    54    53    1
   110    54    55    1
   111    71    68    1
   112    25    26    2
   113    35    36    1
   114    35    37    1
   115    35    32    1
   116    27    29    1
   117    31    32    1
   118    48    47   ar
   119    48    46   ar
   120    81    82    1
   121    81    80    1
   122    49    46   ar
   123    68    67    1
   124    68    69    1
   125    32    33    1
   126    55    56    2
   127    47    45   ar
   128    46    44   ar
   129    75    69   am
   130    75    76    1
   131    69    70    2
   132    80    79    1
   133    45    44   ar
   134    44    43    1
   135    76    79    1
   136    76    77    1
   137    33    34    2
   138    43    40    1
   139    77    78    2
   140    40    39    1
   141    40    41    1
   142    42    41    2
