@<TRIPOS>MOLECULE
tmp/5iedA04.pdb
 106 103 0 0 0
SMALL
GASTEIGER

@<TRIPOS>ATOM
      1  N         27.9150   27.3650   12.3360 N.3   298  THR298     -0.1218
      2  CA        27.9470   26.9590   10.9290 C.3   298  THR298      0.1862
      3  C         27.2020   25.6550   10.7320 C.2   298  THR298      0.2287
      4  O         26.9420   24.9250   11.6950 O.2   298  THR298     -0.2866
      5  CB        29.3990   26.7760   10.4950 C.3   298  THR298      0.1770
      6  OG1       30.0110   25.7720   11.3050 O.3   298  THR298     -0.2211
      7  CG2       30.1990   28.0550   10.5500 C.3   298  THR298      0.0375
      8  N         32.0160   21.1800    3.5090 N.3   629  TYR629     -0.1241
      9  CA        33.1430   21.4450    4.3890 C.3   629  TYR629      0.1605
     10  C         33.3930   22.9500    4.4320 C.2   629  TYR629      0.2264
     11  O         33.5650   23.5210    5.5100 O.2   629  TYR629     -0.2867
     12  CB        34.4020   20.6720    3.9420 C.3   629  TYR629      0.0534
     13  CG        35.5250   20.8200    4.9370 C.ar  629  TYR629     -0.0201
     14  CD1       35.4270   20.2760    6.2080 C.ar  629  TYR629     -0.0009
     15  CD2       36.6460   21.5910    4.6430 C.ar  629  TYR629     -0.0009
     16  CE1       36.4290   20.4740    7.1650 C.ar  629  TYR629      0.0417
     17  CE2       37.6910   21.7330    5.5660 C.ar  629  TYR629      0.0417
     18  CZ        37.5680   21.1880    6.8330 C.ar  629  TYR629      0.1957
     19  OH        38.5690   21.3160    7.7750 O.3   629  TYR629     -0.2866
     20  N         30.8120   24.3820    6.5900 N.3   632  HIS632     -0.1226
     21  CA        31.1100   24.0250    7.9700 C.3   632  HIS632      0.1752
     22  C         32.2110   24.9120    8.5590 C.2   632  HIS632      0.2596
     23  O         32.1330   25.3080    9.7230 O.2   632  HIS632     -0.2718
     24  CB        31.5340   22.5480    8.0400 C.3   632  HIS632      0.0759
     25  CG        31.8640   22.0430    9.3960 C.ar  632  HIS632      0.0818
     26  ND1       30.9430   22.0910   10.4220 N.ar  632  HIS632     -0.2268
     27  CD2       32.9770   21.4000    9.8320 C.ar  632  HIS632      0.1154
     28  CE1       31.5270   21.5110   11.4630 C.ar  632  HIS632      0.1986
     29  NE2       32.7450   21.0600   11.1500 N.ar  632  HIS632     -0.2212
     30  N         33.2380   25.1940    7.7730 N.am  633  LYS633     -0.1966
     31  CA        34.3680   26.0130    8.2360 C.3   633  LYS633      0.1728
     32  C         34.1340   27.5260    8.1660 C.2   633  LYS633      0.2616
     33  O         34.6180   28.2320    9.0510 O.2   633  LYS633     -0.2715
     34  CB        35.6390   25.6460    7.4300 C.3   633  LYS633      0.0311
     35  CG        36.0630   24.1840    7.5900 C.3   633  LYS633      0.0038
     36  CD        36.2790   23.7170    9.0220 C.3   633  LYS633      0.0206
     37  CE        37.4120   24.4490    9.7350 C.3   633  LYS633      0.1093
     38  NZ        37.4390   24.1540   11.1930 N.3   633  LYS633     -0.1314
     39  N         33.4600   28.0300    7.1140 N.am  634  GLU634     -0.1977
     40  CA        33.2890   29.4850    6.8800 C.3   634  GLU634      0.1602
     41  C         31.9000   30.0660    7.0740 C.2   634  GLU634      0.2287
     42  O         31.7820   31.2920    7.1600 O.2   634  GLU634     -0.2864
     43  CB        33.6990   29.8140    5.4360 C.3   634  GLU634      0.0415
     44  CG        35.0420   29.2800    5.0030 C.3   634  GLU634      0.1163
     45  CD        36.2330   29.9510    5.6550 C.2   634  GLU634      0.3649
     46  OE1       36.3640   31.1860    5.5120 O.co2 634  GLU634     -0.2457
     47  OE2       37.0710   29.2350    6.2490 O.co2 634  GLU634     -0.2457
     48  N         38.0810   13.9430   11.6850 N.3   767  TYR767     -0.1227
     49  CA        38.6120   15.1390   11.0340 C.3   767  TYR767      0.1736
     50  C         38.9050   16.2430   12.0690 C.2   767  TYR767      0.2595
     51  O         39.8470   16.9870   11.8810 O.2   767  TYR767     -0.2718
     52  CB        37.6580   15.6730    9.9200 C.3   767  TYR767      0.0548
     53  CG        36.4530   16.4190   10.4490 C.ar  767  TYR767     -0.0200
     54  CD1       35.3680   15.7380   10.9850 C.ar  767  TYR767     -0.0009
     55  CD2       36.3750   17.8050   10.3640 C.ar  767  TYR767     -0.0009
     56  CE1       34.2770   16.4210   11.5200 C.ar  767  TYR767      0.0417
     57  CE2       35.2560   18.4970   10.8250 C.ar  767  TYR767      0.0417
     58  CZ        34.2200   17.8010   11.4370 C.ar  767  TYR767      0.1957
     59  OH        33.0950   18.4110   11.9250 O.3   767  TYR767     -0.2866
     60  N         38.0750   16.3760   13.1200 N.am  768  GLN768     -0.1979
     61  CA        38.2490   17.4200   14.1070 C.3   768  GLN768      0.1601
     62  C         39.0000   16.9520   15.3540 C.2   768  GLN768      0.2287
     63  O         39.8300   17.7060   15.8410 O.2   768  GLN768     -0.2864
     64  CB        36.9100   18.0910   14.4590 C.3   768  GLN768      0.0394
     65  CG        35.9520   17.4040   15.3860 C.3   768  GLN768      0.0908
     66  CD        34.9240   18.4310   15.8460 C.2   768  GLN768      0.2608
     67  OE1       34.1840   19.0120   15.0450 O.2   768  GLN768     -0.2717
     68  NE2       34.8600   18.6970   17.1340 N.am  768  GLN768     -0.0878
     69  N         42.3680   15.4020   13.4600 N.3   771  HIS771     -0.1241
     70  CA        42.8550   16.0580   12.2420 C.3   771  HIS771      0.1621
     71  C         43.1030   15.0250   11.1510 C.2   771  HIS771      0.2264
     72  O         44.0350   15.1570   10.3610 O.2   771  HIS771     -0.2867
     73  CB        44.0840   16.9520   12.5100 C.3   771  HIS771      0.0745
     74  CG        43.7470   18.2100   13.2470 C.ar  771  HIS771      0.0817
     75  ND1       44.7330   19.0420   13.7280 N.ar  771  HIS771     -0.2268
     76  CD2       42.5410   18.7500   13.5450 C.ar  771  HIS771      0.1154
     77  CE1       44.1020   20.0600   14.2800 C.ar  771  HIS771      0.1986
     78  NE2       42.7820   19.9230   14.1860 N.ar  771  HIS771     -0.2212
     79  N         41.9840   14.1000    7.9870 N.3   773  PHE773     -0.1241
     80  CA        41.3190   14.5090    6.7610 C.3   773  PHE773      0.1605
     81  C         42.3460   15.0310    5.8060 C.2   773  PHE773      0.2264
     82  O         43.5000   15.2100    6.1900 O.2   773  PHE773     -0.2867
     83  CB        40.3050   15.6420    7.0350 C.3   773  PHE773      0.0534
     84  CG        40.9260   16.9540    7.4780 C.ar  773  PHE773     -0.0203
     85  CD1       41.2500   17.1760    8.8160 C.ar  773  PHE773     -0.0042
     86  CD2       41.2070   17.9580    6.5560 C.ar  773  PHE773     -0.0042
     87  CE1       41.8490   18.3770    9.2190 C.ar  773  PHE773     -0.0003
     88  CE2       41.8040   19.1600    6.9630 C.ar  773  PHE773     -0.0003
     89  CZ        42.1350   19.3500    8.2910 C.ar  773  PHE773     -0.0000
     90  N         45.4130   22.7870    3.7580 N.3   791  ASP791     -0.1239
     91  CA        45.4720   22.7580    5.2190 C.3   791  ASP791      0.1674
     92  C         46.4740   21.6810    5.6510 C.2   791  ASP791      0.2266
     93  O         46.0920   20.5110    5.7610 O.2   791  ASP791     -0.2867
     94  CB        44.1100   22.5150    5.8800 C.3   791  ASP791      0.1410
     95  CG        44.1440   22.7040    7.3880 C.2   791  ASP791      0.3668
     96  OD1       45.2660   22.7860    7.9610 O.co2 791  ASP791     -0.2456
     97  OD2       43.0640   22.7930    7.9950 O.co2 791  ASP791     -0.2456
     98  N         47.5180   20.7720    8.4740 N.3   793  LYS793     -0.1245
     99  CA        47.1640   20.0600    9.7080 C.3   793  LYS793      0.1561
    100  C         46.5050   18.7150    9.4120 C.2   793  LYS793      0.2260
    101  O         46.6490   17.7780   10.1970 O.2   793  LYS793     -0.2867
    102  CB        46.2250   20.9070   10.5870 C.3   793  LYS793      0.0271
    103  CG        46.9370   22.0810   11.2330 C.3   793  LYS793      0.0035
    104  CD        45.9960   23.0800   11.9210 C.3   793  LYS793      0.0206
    105  CE        45.1300   23.8950   10.9820 C.3   793  LYS793      0.1093
    106  NZ        45.8900   24.6420    9.9360 N.3   793  LYS793     -0.1314
@<TRIPOS>BOND
     1     8     9    1
     2    90    91    1
     3    12     9    1
     4    12    13    1
     5     9    10    1
     6    10    11    2
     7    15    13   ar
     8    15    17   ar
     9    13    14   ar
    10    44    43    1
    11    44    45    1
    12    91    92    1
    13    91    94    1
    14    43    40    1
    15    46    45   ar
    16    17    18   ar
    17    92    93    2
    18    45    47   ar
    19    81    82    2
    20    81    80    1
    21    94    95    1
    22    14    16   ar
    23    86    88   ar
    24    86    84   ar
    25    20    21    1
    26    80    83    1
    27    80    79    1
    28    18    16   ar
    29    18    19    1
    30    40    41    1
    31    40    39    1
    32    88    89   ar
    33    83    84    1
    34    41    42    2
    35    39    32   am
    36    95    96   ar
    37    95    97   ar
    38    34    35    1
    39    34    31    1
    40    84    85   ar
    41    35    36    1
    42    30    31    1
    43    30    22   am
    44    21    24    1
    45    21    22    1
    46    24    25    1
    47    32    31    1
    48    32    33    2
    49    89    87   ar
    50    98    99    1
    51    22    23    2
    52    85    87   ar
    53    36    37    1
    54    25    27   ar
    55    25    26   ar
    56   100    99    1
    57   100   101    2
    58    99   102    1
    59    37    38    1
    60    27    29   ar
    61    52    53    1
    62    52    49    1
    63   106   105    1
    64    72    71    2
    65    55    53   ar
    66    55    57   ar
    67    26    28   ar
    68    53    54   ar
    69     5     7    1
    70     5     2    1
    71     5     6    1
    72   102   103    1
    73     3     2    1
    74     3     4    2
    75    57    58   ar
    76     2     1    1
    77   105   104    1
    78    54    56   ar
    79    49    48    1
    80    49    50    1
    81    29    28   ar
    82    71    70    1
    83   103   104    1
    84    58    56   ar
    85    58    59    1
    86    51    50    2
    87    50    60   am
    88    70    73    1
    89    70    69    1
    90    73    74    1
    91    60    61    1
    92    74    76   ar
    93    74    75   ar
    94    76    78   ar
    95    75    77   ar
    96    61    64    1
    97    61    62    1
    98    78    77   ar
    99    64    65    1
   100    67    66    2
   101    62    63    2
   102    65    66    1
   103    66    68   am
