@<TRIPOS>MOLECULE
tmp/5ieeA08.pdb
 144 142 0 0 0
SMALL
GASTEIGER

@<TRIPOS>ATOM
      1  N          2.0600   23.9190   11.0220 N.3   215  ASP215     -0.1239
      2  CA         1.7950   22.8070   10.1410 C.3   215  ASP215      0.1674
      3  C          0.5920   23.2510    9.2890 C.2   215  ASP215      0.2266
      4  O         -0.5490   23.2480    9.7650 O.2   215  ASP215     -0.2867
      5  CB         1.4980   21.5300   10.9480 C.3   215  ASP215      0.1410
      6  CG         1.1310   20.2960   10.1340 C.2   215  ASP215      0.3668
      7  OD1        1.0320   20.4030    8.8930 O.co2 215  ASP215     -0.2456
      8  OD2        1.0670   19.2110   10.7190 O.co2 215  ASP215     -0.2456
      9  N          5.3030    7.4110    2.6890 N.3   314  TRP314     -0.1241
     10  CA         4.4000    7.1220    3.7840 C.3   314  TRP314      0.1605
     11  C          3.5300    6.0430    3.1460 C.2   314  TRP314      0.2264
     12  O          2.6330    6.4010    2.3880 O.2   314  TRP314     -0.2867
     13  CB         3.5600    8.3700    4.1320 C.3   314  TRP314      0.0550
     14  CG         2.5750    8.2000    5.2580 C.ar  314  TRP314      0.0003
     15  CD1        2.5150    7.1890    6.1800 C.ar  314  TRP314      0.0946
     16  CD2        1.6610    9.1990    5.7020 C.ar  314  TRP314      0.0152
     17  NE1        1.5060    7.4400    7.0850 N.ar  314  TRP314     -0.2442
     18  CE2        0.9870    8.6840    6.8340 C.ar  314  TRP314      0.0810
     19  CE3        1.3600   10.4890    5.2630 C.ar  314  TRP314      0.0012
     20  CZ2       -0.0250    9.3940    7.4810 C.ar  314  TRP314      0.0191
     21  CZ3        0.3570   11.1940    5.9120 C.ar  314  TRP314      0.0001
     22  CH2       -0.3060   10.6530    7.0240 C.ar  314  TRP314      0.0015
     23  N          8.5200    5.7650    7.6630 N.3   342  ASP342     -0.1225
     24  CA         7.6070    6.7920    8.1410 C.3   342  ASP342      0.1805
     25  C          6.7890    6.1810    9.3140 C.2   342  ASP342      0.2597
     26  O          7.1040    5.0920    9.7570 O.2   342  ASP342     -0.2718
     27  CB         6.7930    7.3550    6.9600 C.3   342  ASP342      0.1424
     28  CG         6.2690    8.7540    7.1310 C.2   342  ASP342      0.3668
     29  OD1        5.8810    9.1090    8.2650 O.co2 342  ASP342     -0.2456
     30  OD2        6.0770    9.4380    6.1130 O.co2 342  ASP342     -0.2456
     31  N          5.8440    6.9180    9.8770 N.am  343  ILE343     -0.1980
     32  CA         5.1310    6.5880   11.1230 C.3   343  ILE343      0.1595
     33  C          4.4550    5.2230   11.2050 C.2   343  ILE343      0.2287
     34  O          4.2440    4.7680   12.3190 O.2   343  ILE343     -0.2864
     35  CB         4.1040    7.6900   11.5040 C.3   343  ILE343      0.0276
     36  CG1        3.0510    7.9370   10.3920 C.3   343  ILE343      0.0022
     37  CG2        4.8530    8.9820   11.9150 C.3   343  ILE343      0.0022
     38  CD1        1.9350    8.8850   10.7860 C.3   343  ILE343      0.0001
     39  N         11.4160    7.6000   11.5680 N.3   379  ILE379     -0.1245
     40  CA        10.7600    8.7970   12.0700 C.3   379  ILE379      0.1561
     41  C         10.5890    8.7160   13.6280 C.2   379  ILE379      0.2260
     42  O         10.1980    7.6770   14.1740 O.2   379  ILE379     -0.2867
     43  CB         9.4170    9.0570   11.3150 C.3   379  ILE379      0.0252
     44  CG1        8.9070   10.5150   11.5220 C.3   379  ILE379      0.0019
     45  CG2        8.3200    8.0400   11.7270 C.3   379  ILE379      0.0019
     46  CD1        7.9420   10.9660   10.5160 C.3   379  ILE379      0.0001
     47  N         -0.8620   11.9120   15.8590 N.3   416  TRP416     -0.1241
     48  CA        -0.8710   10.5700   15.2550 C.3   416  TRP416      0.1605
     49  C         -1.2660    9.4000   16.1950 C.2   416  TRP416      0.2264
     50  O         -2.0260    8.5320   15.7700 O.2   416  TRP416     -0.2867
     51  CB         0.4760   10.2400   14.5960 C.3   416  TRP416      0.0550
     52  CG         0.9140   11.1540   13.4900 C.ar  416  TRP416      0.0003
     53  CD1        2.1330   11.7590   13.3750 C.ar  416  TRP416      0.0946
     54  CD2        0.1330   11.6240   12.3900 C.ar  416  TRP416      0.0152
     55  NE1        2.1910   12.4890   12.2230 N.ar  416  TRP416     -0.2442
     56  CE2        0.9720   12.4530   11.6090 C.ar  416  TRP416      0.0810
     57  CE3       -1.1950   11.4370   11.9780 C.ar  416  TRP416      0.0012
     58  CZ2        0.5510   13.0140   10.4030 C.ar  416  TRP416      0.0191
     59  CZ3       -1.6150   12.0300   10.8140 C.ar  416  TRP416      0.0001
     60  CH2       -0.7350   12.7790   10.0190 C.ar  416  TRP416      0.0015
     61  N         14.6030   11.0070   11.6860 N.3   453  TRP453     -0.1241
     62  CA        13.7780   12.0470   11.0930 C.3   453  TRP453      0.1605
     63  C         12.8420   12.6040   12.1740 C.2   453  TRP453      0.2264
     64  O         12.0230   11.8550   12.7400 O.2   453  TRP453     -0.2867
     65  CB        12.9900   11.4300    9.9360 C.3   453  TRP453      0.0550
     66  CG        11.9550   12.2920    9.2910 C.ar  453  TRP453      0.0003
     67  CD1       11.8290   13.6510    9.3570 C.ar  453  TRP453      0.0946
     68  CD2       10.9080   11.8330    8.4370 C.ar  453  TRP453      0.0152
     69  NE1       10.7680   14.0590    8.5960 N.ar  453  TRP453     -0.2442
     70  CE2       10.2020   12.9690    7.9910 C.ar  453  TRP453      0.0810
     71  CE3       10.4920   10.5620    8.0110 C.ar  453  TRP453      0.0012
     72  CZ2        9.0570   12.8690    7.2000 C.ar  453  TRP453      0.0191
     73  CZ3        9.4400   10.4760    7.1200 C.ar  453  TRP453      0.0001
     74  CH2        8.6830   11.6060    6.7870 C.ar  453  TRP453      0.0015
     75  N          9.8500   15.0000   12.8150 N.3   455  ASP455     -0.1225
     76  CA         8.7370   15.6080   12.0890 C.3   455  ASP455      0.1805
     77  C          7.7130   16.1260   13.0770 C.2   455  ASP455      0.2597
     78  O          7.8280   15.8230   14.2570 O.2   455  ASP455     -0.2718
     79  CB         8.1100   14.5370   11.1840 C.3   455  ASP455      0.1424
     80  CG         6.9800   15.0090   10.3000 C.2   455  ASP455      0.3668
     81  OD1        7.0150   16.1850    9.8630 O.co2 455  ASP455     -0.2456
     82  OD2        6.0580   14.2050   10.0320 O.co2 455  ASP455     -0.2456
     83  N          6.7590   16.9680   12.6110 N.am  456  MET456     -0.1979
     84  CA         5.6500   17.4960   13.4220 C.3   456  MET456      0.1605
     85  C          6.1750   18.2750   14.6390 C.2   456  MET456      0.2287
     86  O          5.4890   18.3580   15.6580 O.2   456  MET456     -0.2864
     87  CB         4.7450   16.3230   13.9290 C.3   456  MET456      0.0413
     88  CG         4.3880   15.2510   12.8920 C.3   456  MET456      0.0598
     89  SD         3.4110   15.8350   11.5050 S.3   456  MET456     -0.1393
     90  CE         1.7670   16.0190   12.2950 C.3   456  MET456      0.0692
     91  N         11.6620   19.1520   10.4050 N.3   515  ARG515     -0.1245
     92  CA        10.7050   19.9750    9.6910 C.3   515  ARG515      0.1563
     93  C         10.7220   21.4290   10.2090 C.2   515  ARG515      0.2260
     94  O         10.8240   22.3700    9.4120 O.2   515  ARG515     -0.2867
     95  CB         9.2980   19.4050    9.7930 C.3   515  ARG515      0.0307
     96  CG         8.4230   20.0000    8.6760 C.3   515  ARG515      0.0489
     97  CD         7.1240   19.2760    8.4790 C.3   515  ARG515      0.2205
     98  NE         6.1970   19.4710    9.5980 N.pl3 515  ARG515     -0.0865
     99  CZ         4.9280   19.0860    9.5840 C.cat 515  ARG515      0.5346
    100  NH1        4.4250   18.4670    8.5190 N.pl3 515  ARG515      0.1354
    101  NH2        4.1390   19.3470   10.6140 N.pl3 515  ARG515      0.1354
    102  N         13.7510   20.2440    5.3480 N.3   528  TRP528     -0.1241
    103  CA        13.0470   20.1430    4.0680 C.3   528  TRP528      0.1605
    104  C         11.8030   21.0090    4.1060 C.2   528  TRP528      0.2264
    105  O         11.3580   21.4150    5.1840 O.2   528  TRP528     -0.2867
    106  CB        12.7810   18.6970    3.5770 C.3   528  TRP528      0.0550
    107  CG        11.4630   18.1090    3.9470 C.ar  528  TRP528      0.0003
    108  CD1       10.4300   17.8740    3.1050 C.ar  528  TRP528      0.0946
    109  CD2       10.9750   17.8010    5.2700 C.ar  528  TRP528      0.0152
    110  NE1        9.3940   17.2880    3.7790 N.ar  528  TRP528     -0.2442
    111  CE2        9.6790   17.2670    5.1160 C.ar  528  TRP528      0.0810
    112  CE3       11.5240   17.8670    6.5540 C.ar  528  TRP528      0.0012
    113  CZ2        8.9260   16.7960    6.1880 C.ar  528  TRP528      0.0191
    114  CZ3       10.8090   17.3140    7.6090 C.ar  528  TRP528      0.0001
    115  CH2        9.5020   16.8290    7.4250 C.ar  528  TRP528      0.0015
    116  N          5.2110   19.5280    3.3200 N.3   531  ASP531     -0.1239
    117  CA         4.2020   18.9170    2.4540 C.3   531  ASP531      0.1674
    118  C          3.8930   19.7550    1.2240 C.2   531  ASP531      0.2266
    119  O          2.9040   20.4900    1.1610 O.2   531  ASP531     -0.2867
    120  CB         2.9530   18.5930    3.2710 C.3   531  ASP531      0.1410
    121  CG         3.2190   17.6000    4.3730 C.2   531  ASP531      0.3668
    122  OD1        4.2610   16.8770    4.2970 O.co2 531  ASP531     -0.2456
    123  OD2        2.4330   17.5670    5.3290 O.co2 531  ASP531     -0.2456
    124  N          4.9560   15.8550   -2.3910 N.3   564  PHE564     -0.1241
    125  CA         4.3780   14.9900   -1.3620 C.3   564  PHE564      0.1605
    126  C          2.9260   14.5780   -1.6990 C.2   564  PHE564      0.2264
    127  O          2.5950   13.3910   -1.6860 O.2   564  PHE564     -0.2867
    128  CB         4.4090   15.7080   -0.0140 C.3   564  PHE564      0.0534
    129  CG         3.7870   14.9440    1.1110 C.ar  564  PHE564     -0.0203
    130  CD1        4.4030   13.8170    1.6230 C.ar  564  PHE564     -0.0042
    131  CD2        2.6170   15.3950    1.7160 C.ar  564  PHE564     -0.0042
    132  CE1        3.8740   13.1570    2.7280 C.ar  564  PHE564     -0.0003
    133  CE2        2.1080   14.7520    2.8370 C.ar  564  PHE564     -0.0003
    134  CZ         2.7210   13.6120    3.3170 C.ar  564  PHE564     -0.0000
    135  N          9.8210   11.5270   -1.6490 N.3   589  HIS589     -0.1241
    136  CA         8.8560   11.2390   -0.5890 C.3   589  HIS589      0.1621
    137  C          7.4490   11.4620   -1.1590 C.2   589  HIS589      0.2264
    138  O          7.2670   12.1910   -2.1480 O.2   589  HIS589     -0.2867
    139  CB         9.1690   12.0190    0.7080 C.3   589  HIS589      0.0745
    140  CG         8.3250   11.6360    1.8800 C.ar  589  HIS589      0.0817
    141  ND1        8.2640   10.3390    2.3220 N.ar  589  HIS589     -0.2268
    142  CD2        7.4860   12.3890    2.6270 C.ar  589  HIS589      0.1154
    143  CE1        7.4150   10.3420    3.3270 C.ar  589  HIS589      0.1986
    144  NE2        6.9260   11.5590    3.5440 N.ar  589  HIS589     -0.2212
@<TRIPOS>BOND
     1   124   125    1
     2   138   137    2
     3   126   127    2
     4   126   125    1
     5   135   136    1
     6   125   128    1
     7   137   136    1
     8   136   139    1
     9   128   129    1
    10   139   140    1
    11   129   130   ar
    12   129   131   ar
    13   119   118    2
    14   118   117    1
    15   130   132   ar
    16   131   133   ar
    17   140   141   ar
    18   140   142   ar
    19   141   143   ar
    20    12    11    2
    21   117   120    1
    22   117   116    1
    23   142   144   ar
    24     9    10    1
    25   132   134   ar
    26   133   134   ar
    27   108   110   ar
    28   108   107   ar
    29    11    10    1
    30   120   121    1
    31   143   144   ar
    32   106   107    1
    33   106   103    1
    34   110   111   ar
    35    10    13    1
    36   107   109   ar
    37   103   104    1
    38   103   102    1
    39   104   105    2
    40    13    14    1
    41   122   121   ar
    42   121   123   ar
    43   111   109   ar
    44   111   113   ar
    45    14    16   ar
    46    14    15   ar
    47    19    16   ar
    48    19    21   ar
    49   109   112   ar
    50    16    18   ar
    51    21    22   ar
    52    30    28   ar
    53    15    17   ar
    54   113   115   ar
    55   112   114   ar
    56    74    73   ar
    57    74    72   ar
    58    18    17   ar
    59    18    20   ar
    60    27    28    1
    61    27    24    1
    62    22    20   ar
    63    73    71   ar
    64    28    29   ar
    65    72    70   ar
    66   115   114   ar
    67    23    24    1
    68    70    68   ar
    69    70    69   ar
    70    71    68   ar
    71    24    25    1
    72    68    66   ar
    73    97    96    1
    74    97    98    1
    75   100    99    1
    76    69    67   ar
    77    96    95    1
    78     7     6   ar
    79     3     4    2
    80     3     2    1
    81    66    67   ar
    82    66    65    1
    83    25    26    2
    84    25    31   am
    85    94    93    2
    86    99    98    2
    87    99   101    1
    88    92    95    1
    89    92    93    1
    90    92    91    1
    91    81    80   ar
    92    31    32    1
    93    65    62    1
    94    60    58   ar
    95    60    59   ar
    96    82    80   ar
    97     6     8   ar
    98     6     5    1
    99     2     5    1
   100     2     1    1
   101    80    79    1
   102    36    38    1
   103    36    35    1
   104    58    56   ar
   105    46    44    1
   106    59    57   ar
   107    62    61    1
   108    62    63    1
   109    32    33    1
   110    32    35    1
   111    79    76    1
   112    33    34    2
   113    43    44    1
   114    43    45    1
   115    43    40    1
   116    35    37    1
   117    89    90    1
   118    89    88    1
   119    39    40    1
   120    56    55   ar
   121    56    54   ar
   122    57    54   ar
   123    40    41    1
   124    76    75    1
   125    76    77    1
   126    63    64    2
   127    55    53   ar
   128    54    52   ar
   129    83    77   am
   130    83    84    1
   131    88    87    1
   132    77    78    2
   133    53    52   ar
   134    84    87    1
   135    84    85    1
   136    52    51    1
   137    41    42    2
   138    51    48    1
   139    85    86    2
   140    48    47    1
   141    48    49    1
   142    50    49    2
