@<TRIPOS>MOLECULE
tmp/5ieeA06.pdb
 133 129 0 0 0
SMALL
GASTEIGER

@<TRIPOS>ATOM
      1  N         -2.4410   45.6310   16.9920 N.3    17  ARG17      -0.1231
      2  CA        -1.9910   46.7770   17.8210 C.3    17  ARG17       0.1694
      3  C         -0.7110   47.3820   17.2580 C.2    17  ARG17       0.2591
      4  O         -0.6500   48.5890   17.0030 O.2    17  ARG17      -0.2718
      5  CB        -1.7690   46.3360   19.2880 C.3    17  ARG17       0.0321
      6  CG        -3.0800   46.0630   20.0480 C.3    17  ARG17       0.0489
      7  CD        -2.8910   46.0200   21.5540 C.3    17  ARG17       0.2205
      8  NE        -1.8480   45.0930   21.9970 N.pl3  17  ARG17      -0.0865
      9  CZ        -1.9700   43.7710   22.1300 C.cat  17  ARG17       0.5346
     10  NH1       -3.1160   43.1670   21.8400 N.pl3  17  ARG17       0.1354
     11  NH2       -0.9400   43.0410   22.5370 N.pl3  17  ARG17       0.1354
     12  N          0.3120   46.5410   17.0410 N.am   18  GLN18      -0.1979
     13  CA         1.5990   47.0100   16.4950 C.3    18  GLN18       0.1601
     14  C          1.4340   47.6870   15.1450 C.2    18  GLN18       0.2287
     15  O          1.8430   48.8410   14.9840 O.2    18  GLN18      -0.2864
     16  CB         2.5970   45.8580   16.3720 C.3    18  GLN18       0.0394
     17  CG         3.1410   45.3600   17.7110 C.3    18  GLN18       0.0908
     18  CD         4.2570   46.2140   18.2390 C.2    18  GLN18       0.2608
     19  OE1        4.9530   46.9070   17.4830 O.2    18  GLN18      -0.2717
     20  NE2        4.4340   46.2170   19.5590 N.am   18  GLN18      -0.0878
     21  N         -1.1640   48.9730   13.6640 N.3    20  SER20      -0.1202
     22  CA        -1.9900   50.1860   13.6200 C.3    20  SER20       0.2020
     23  C         -1.1690   51.4680   13.8380 C.2    20  SER20       0.2619
     24  O         -1.6660   52.5480   13.5260 O.2    20  SER20      -0.2717
     25  CB        -3.1270   50.1370   14.6320 C.3    20  SER20       0.2103
     26  OG        -2.6970   50.3720   15.9640 O.3    20  SER20      -0.2182
     27  N          0.0390   51.3610   14.4360 N.am   21  ILE21      -0.1965
     28  CA         0.9330   52.5010   14.6150 C.3    21  ILE21       0.1727
     29  C          1.4530   52.8770   13.2560 C.2    21  ILE21       0.2616
     30  O          2.0330   52.0400   12.5550 O.2    21  ILE21      -0.2715
     31  CB         2.1200   52.2040   15.5670 C.3    21  ILE21       0.0290
     32  CG1        1.6080   51.8610   16.9750 C.3    21  ILE21       0.0022
     33  CG2        3.1230   53.3970   15.5860 C.3    21  ILE21       0.0023
     34  CD1        2.6320   51.1640   17.8420 C.3    21  ILE21       0.0001
     35  N          1.2560   54.1170   12.8750 N.am   22  ARG22      -0.1977
     36  CA         1.7030   54.5600   11.5730 C.3    22  ARG22       0.1597
     37  C          2.8820   55.4930   11.7020 C.2    22  ARG22       0.2287
     38  O          3.1340   56.0270   12.7990 O.2    22  ARG22      -0.2864
     39  CB         0.5350   55.1690   10.8060 C.3    22  ARG22       0.0334
     40  CG         0.2760   56.6160   11.0680 C.3    22  ARG22       0.0492
     41  CD        -0.9590   57.0280   10.2940 C.3    22  ARG22       0.2205
     42  NE        -1.2440   58.4490   10.4700 N.pl3  22  ARG22      -0.0865
     43  CZ        -2.1850   59.1230    9.8180 C.cat  22  ARG22       0.5346
     44  NH1       -2.9520   58.5130    8.9220 N.pl3  22  ARG22       0.1354
     45  NH2       -2.3650   60.4150   10.0560 N.pl3  22  ARG22       0.1354
     46  N          6.2100   60.9250   14.5410 N.3    25  LEU25      -0.1245
     47  CA         7.1820   61.3190   15.5480 C.3    25  LEU25       0.1561
     48  C          7.1300   60.3620   16.7450 C.2    25  LEU25       0.2260
     49  O          6.0910   60.2310   17.3810 O.2    25  LEU25      -0.2867
     50  CB         6.9040   62.7440   15.9900 C.3    25  LEU25       0.0270
     51  CG         8.1160   63.5370   16.3820 C.3    25  LEU25       0.0019
     52  CD1        8.9530   63.9180   15.1280 C.3    25  LEU25       0.0001
     53  CD2        7.6860   64.7780   17.1450 C.3    25  LEU25       0.0001
     54  N          7.1650   58.7900   20.3140 N.3    27  PRO27      -0.2102
     55  CA         7.0360   59.2970   21.6940 C.3    27  PRO27       0.1504
     56  C          8.2150   58.8850   22.5940 C.2    27  PRO27       0.2575
     57  O          8.3130   59.3670   23.7190 O.2    27  PRO27      -0.2718
     58  CB         5.7320   58.6400   22.1650 C.3    27  PRO27       0.0282
     59  CG         5.7200   57.3260   21.4630 C.3    27  PRO27       0.0208
     60  CD         6.3030   57.6080   20.1020 C.3    27  PRO27       0.0893
     61  N          9.1120   57.9870   22.1150 N.am   28  TYR28      -0.1977
     62  CA        10.3040   57.5870   22.8670 C.3    28  TYR28       0.1639
     63  C         11.4050   58.5890   22.7420 C.2    28  TYR28       0.2290
     64  O         11.6860   59.0510   21.6360 O.2    28  TYR28      -0.2864
     65  CB        10.8360   56.2230   22.4180 C.3    28  TYR28       0.0560
     66  CG         9.8780   55.1180   22.7610 C.ar   28  TYR28      -0.0198
     67  CD1        9.7860   54.6250   24.0610 C.ar   28  TYR28      -0.0009
     68  CD2        9.0760   54.5450   21.7900 C.ar   28  TYR28      -0.0009
     69  CE1        8.8680   53.6330   24.3920 C.ar   28  TYR28       0.0417
     70  CE2        8.1360   53.5750   22.1130 C.ar   28  TYR28       0.0417
     71  CZ         8.0490   53.1080   23.4110 C.ar   28  TYR28       0.1957
     72  OH         7.1650   52.1100   23.7010 O.3    28  TYR28      -0.2866
     73  N          8.9240   56.6470   27.4480 N.3    48  HIS48      -0.1241
     74  CA         7.7500   56.9170   26.6130 C.3    48  HIS48       0.1621
     75  C          7.1660   58.2370   27.2040 C.2    48  HIS48       0.2264
     76  O          6.8430   58.2890   28.3840 O.2    48  HIS48      -0.2867
     77  CB         6.7470   55.7640   26.7050 C.3    48  HIS48       0.0745
     78  CG         5.6140   55.8770   25.7330 C.ar   48  HIS48       0.0817
     79  ND1        4.7150   56.9370   25.7760 N.ar   48  HIS48      -0.2268
     80  CD2        5.2410   55.0340   24.7450 C.ar   48  HIS48       0.1154
     81  CE1        3.8640   56.7210   24.7840 C.ar   48  HIS48       0.1986
     82  NE2        4.1340   55.5760   24.1530 N.ar   48  HIS48      -0.2212
     83  N          4.2960   59.7460   27.1130 N.3    50  VAL50      -0.1231
     84  CA         2.9220   59.7650   27.5920 C.3    50  VAL50       0.1692
     85  C          2.7810   58.8750   28.8210 C.2    50  VAL50       0.2592
     86  O          2.3240   59.3330   29.8690 O.2    50  VAL50      -0.2718
     87  CB         1.8960   59.3510   26.4990 C.3    50  VAL50       0.0266
     88  CG1        0.4700   59.6160   26.9840 C.3    50  VAL50       0.0020
     89  CG2        2.1550   60.0860   25.1870 C.3    50  VAL50       0.0020
     90  N          3.1510   57.6060   28.6900 N.am   51  THR51      -0.1953
     91  CA         2.9880   56.6410   29.7950 C.3    51  THR51       0.1897
     92  C          4.0610   56.7750   30.8690 C.2    51  THR51       0.2313
     93  O          3.8920   56.2060   31.9400 O.2    51  THR51      -0.2863
     94  CB         2.9980   55.2160   29.2640 C.3    51  THR51       0.1794
     95  OG1        4.3220   54.8970   28.8320 O.3    51  THR51      -0.2208
     96  CG2        1.9910   55.0020   28.1490 C.3    51  THR51       0.0378
     97  N          9.5210   56.2320   13.3710 N.3   142  GLY142     -0.1225
     98  CA         8.9060   56.3020   14.6890 C.3   142  GLY142      0.1811
     99  C          7.9640   55.1520   14.9970 C.2   142  GLY142      0.2280
    100  O          6.9410   55.3510   15.6440 O.2   142  GLY142     -0.2866
    101  N          8.8710   52.3090   16.7140 N.3   144  MET144     -0.1230
    102  CA         9.2490   51.5970   17.9230 C.3   144  MET144      0.1702
    103  C          8.0180   51.4940   18.8520 C.2   144  MET144      0.2592
    104  O          7.3330   52.4830   19.0960 O.2   144  MET144     -0.2718
    105  CB        10.3900   52.3150   18.6560 C.3   144  MET144      0.0401
    106  CG        10.7200   51.6750   19.9660 C.3   144  MET144      0.0596
    107  SD        12.1670   52.3840   20.7300 S.3   144  MET144     -0.1393
    108  CE        11.9380   51.7260   22.3970 C.3   144  MET144      0.0692
    109  N          7.7530   50.3080   19.3630 N.am  145  ALA145     -0.1966
    110  CA         6.5950   50.0710   20.2260 C.3   145  ALA145      0.1728
    111  C          6.9230   48.9970   21.2140 C.2   145  ALA145      0.2616
    112  O          7.2490   47.8780   20.8270 O.2   145  ALA145     -0.2715
    113  CB         5.4070   49.6640   19.3800 C.3   145  ALA145      0.0334
    114  N          6.9170   49.3510   22.4870 N.am  146  PHE146     -0.1960
    115  CA         7.2750   48.4290   23.5580 C.3   146  PHE146      0.1771
    116  C          6.1450   48.3910   24.5560 C.2   146  PHE146      0.2619
    117  O          6.0710   49.2340   25.4410 O.2   146  PHE146     -0.2715
    118  CB         8.6010   48.8910   24.2000 C.3   146  PHE146      0.0574
    119  CG         9.3160   47.8050   24.9680 C.ar  146  PHE146     -0.0200
    120  CD1        8.7870   47.3000   26.1460 C.ar  146  PHE146     -0.0042
    121  CD2       10.5120   47.2810   24.5060 C.ar  146  PHE146     -0.0042
    122  CE1        9.4160   46.2580   26.8170 C.ar  146  PHE146     -0.0003
    123  CE2       11.1670   46.2750   25.2070 C.ar  146  PHE146     -0.0003
    124  CZ        10.6240   45.7780   26.3660 C.ar  146  PHE146     -0.0000
    125  N          5.2790   47.4050   24.4400 N.am  147  GLU147     -0.1977
    126  CA         4.1590   47.2770   25.3870 C.3   147  GLU147      0.1602
    127  C          4.6920   46.7840   26.7490 C.2   147  GLU147      0.2287
    128  O          5.1170   45.6350   26.8710 O.2   147  GLU147     -0.2864
    129  CB         3.1200   46.3120   24.8520 C.3   147  GLU147      0.0415
    130  CG         2.5530   46.7500   23.5230 C.3   147  GLU147      0.1163
    131  CD         1.3780   45.9080   23.1040 C.2   147  GLU147      0.3649
    132  OE1        0.3240   46.4950   22.7780 O.co2 147  GLU147     -0.2457
    133  OE2        1.4860   44.6620   23.1480 O.co2 147  GLU147     -0.2457
@<TRIPOS>BOND
     1    44    43    1
     2    43    45    1
     3    43    42    2
     4    41    42    1
     5    41    40    1
     6    39    40    1
     7    39    36    1
     8    36    37    1
     9    36    35    1
    10    37    38    2
    11    30    29    2
    12    35    29   am
    13    29    28    1
    14    97    98    1
    15    24    23    2
    16    22    21    1
    17    22    23    1
    18    22    25    1
    19    23    27   am
    20    27    28    1
    21    46    47    1
    22    28    31    1
    23    25    26    1
    24    98    99    1
    25    15    14    2
    26    99   100    2
    27    52    51    1
    28    14    13    1
    29    47    50    1
    30    47    48    1
    31    31    33    1
    32    31    32    1
    33    50    51    1
    34    16    13    1
    35    16    17    1
    36    51    53    1
    37    13    12    1
    38   101   102    1
    39    48    49    2
    40    32    34    1
    41     1     2    1
    42     4     3    2
    43    12     3   am
    44     3     2    1
    45    19    18    2
    46    17    18    1
    47     2     5    1
    48   102   105    1
    49   102   103    1
    50    18    20   am
    51   105   106    1
    52   103   104    2
    53   103   109   am
    54     5     6    1
    55   109   110    1
    56   113   110    1
    57   106   107    1
    58     6     7    1
    59    60    54    1
    60    60    59    1
    61   110   111    1
    62    54    55    1
    63   107   108    1
    64   112   111    2
    65   111   114   am
    66    59    58    1
    67     7     8    1
    68    64    63    2
    69    55    58    1
    70    55    56    1
    71    68    70   ar
    72    68    66   ar
    73    10     9    1
    74     8     9    2
    75    70    71   ar
    76    61    56   am
    77    61    62    1
    78     9    11    1
    79    65    66    1
    80    65    62    1
    81   114   115    1
    82    56    57    2
    83    63    62    1
    84    66    67   ar
    85   132   131   ar
    86   131   133   ar
    87   131   130    1
    88    71    72    1
    89    71    69   ar
    90   130   129    1
    91   115   118    1
    92   115   116    1
    93    67    69   ar
    94    82    80   ar
    95    82    81   ar
    96   118   119    1
    97   125   116   am
    98   125   126    1
    99   121   119   ar
   100   121   123   ar
   101   116   117    2
   102    80    78   ar
   103    81    79   ar
   104   129   126    1
   105   119   120   ar
   106    89    87    1
   107   123   124   ar
   108   126   127    1
   109    78    79   ar
   110    78    77    1
   111   120   122   ar
   112   124   122   ar
   113    87    88    1
   114    87    84    1
   115    74    77    1
   116    74    75    1
   117    74    73    1
   118   127   128    2
   119    83    84    1
   120    75    76    2
   121    84    85    1
   122    96    94    1
   123    90    85   am
   124    90    91    1
   125    85    86    2
   126    95    94    1
   127    94    91    1
   128    91    92    1
   129    92    93    2
