@<TRIPOS>MOLECULE
tmp/5ieeA04.pdb
 97 94 0 0 0
SMALL
GASTEIGER

@<TRIPOS>ATOM
      1  N         27.8810   27.4170   12.3000 N.3   298  THR298     -0.1218
      2  CA        27.9250   26.9610   10.9110 C.3   298  THR298      0.1862
      3  C         27.2070   25.6230   10.7410 C.2   298  THR298      0.2287
      4  O         26.9540   24.9090   11.7080 O.2   298  THR298     -0.2866
      5  CB        29.3750   26.7810   10.4480 C.3   298  THR298      0.1770
      6  OG1       30.0120   25.8240   11.2920 O.3   298  THR298     -0.2211
      7  CG2       30.1680   28.0910   10.4250 C.3   298  THR298      0.0375
      8  N         31.9600   21.1020    3.5110 N.3   629  TYR629     -0.1241
      9  CA        33.0960   21.3640    4.3870 C.3   629  TYR629      0.1605
     10  C         33.3400   22.8760    4.4600 C.2   629  TYR629      0.2264
     11  O         33.5180   23.3980    5.5530 O.2   629  TYR629     -0.2867
     12  CB        34.3530   20.6010    3.9370 C.3   629  TYR629      0.0534
     13  CG        35.4730   20.7310    4.9330 C.ar  629  TYR629     -0.0201
     14  CD1       35.3810   20.1510    6.1970 C.ar  629  TYR629     -0.0009
     15  CD2       36.5630   21.5560    4.6760 C.ar  629  TYR629     -0.0009
     16  CE1       36.3850   20.3210    7.1440 C.ar  629  TYR629      0.0417
     17  CE2       37.5880   21.7070    5.6040 C.ar  629  TYR629      0.0417
     18  CZ        37.4900   21.1030    6.8420 C.ar  629  TYR629      0.1957
     19  OH        38.5020   21.2660    7.7540 O.3   629  TYR629     -0.2866
     20  N         30.7270   24.3440    6.6170 N.3   632  HIS632     -0.1226
     21  CA        31.0570   23.9810    7.9850 C.3   632  HIS632      0.1752
     22  C         32.1760   24.8580    8.5610 C.2   632  HIS632      0.2595
     23  O         32.1090   25.2650    9.7160 O.2   632  HIS632     -0.2718
     24  CB        31.4440   22.4840    8.0250 C.3   632  HIS632      0.0759
     25  CG        31.7850   21.9770    9.3790 C.ar  632  HIS632      0.0818
     26  ND1       30.8990   22.0970   10.4270 N.ar  632  HIS632     -0.2268
     27  CD2       32.8860   21.3160    9.8020 C.ar  632  HIS632      0.1154
     28  CE1       31.4930   21.5430   11.4710 C.ar  632  HIS632      0.1986
     29  NE2       32.6930   21.0390   11.1330 N.ar  632  HIS632     -0.2212
     30  N         33.1850   25.1470    7.7690 N.am  633  LYS633     -0.1980
     31  CA        34.3320   25.9450    8.2160 C.3   633  LYS633      0.1596
     32  C         34.1220   27.4530    8.1740 C.2   633  LYS633      0.2287
     33  O         34.6080   28.1340    9.0750 O.2   633  LYS633     -0.2864
     34  CB        35.5790   25.5770    7.3790 C.3   633  LYS633      0.0298
     35  CG        36.0870   24.1450    7.5780 C.3   633  LYS633      0.0038
     36  CD        36.3510   23.7380    9.0050 C.3   633  LYS633      0.0206
     37  CE        37.4870   24.5590    9.5890 C.3   633  LYS633      0.1093
     38  NZ        37.7130   24.3490   11.0240 N.3   633  LYS633     -0.1314
     39  N         38.0660   13.9220   11.7280 N.3   767  TYR767     -0.1227
     40  CA        38.6140   15.1240   11.0890 C.3   767  TYR767      0.1736
     41  C         38.8860   16.2530   12.1230 C.2   767  TYR767      0.2595
     42  O         39.7990   17.0210   11.9070 O.2   767  TYR767     -0.2718
     43  CB        37.6820   15.6510    9.9720 C.3   767  TYR767      0.0548
     44  CG        36.4510   16.3780   10.4810 C.ar  767  TYR767     -0.0200
     45  CD1       35.3640   15.6780   10.9880 C.ar  767  TYR767     -0.0009
     46  CD2       36.3530   17.7680   10.4000 C.ar  767  TYR767     -0.0009
     47  CE1       34.2370   16.3390   11.4680 C.ar  767  TYR767      0.0417
     48  CE2       35.2360   18.4460   10.8970 C.ar  767  TYR767      0.0417
     49  CZ        34.1620   17.7230   11.3960 C.ar  767  TYR767      0.1957
     50  OH        33.0230   18.3330   11.8480 O.3   767  TYR767     -0.2866
     51  N         38.0540   16.3910   13.1760 N.am  768  GLN768     -0.1979
     52  CA        38.2330   17.4550   14.1650 C.3   768  GLN768      0.1601
     53  C         38.9800   16.9930   15.4230 C.2   768  GLN768      0.2287
     54  O         39.8080   17.7470   15.9310 O.2   768  GLN768     -0.2864
     55  CB        36.8890   18.1460   14.5220 C.3   768  GLN768      0.0394
     56  CG        35.8910   17.3520   15.3170 C.3   768  GLN768      0.0908
     57  CD        34.8770   18.2740   15.9620 C.2   768  GLN768      0.2608
     58  OE1       34.4090   19.2330   15.3540 O.2   768  GLN768     -0.2717
     59  NE2       34.4710   17.9750   17.1870 N.am  768  GLN768     -0.0878
     60  N         42.3680   15.4300   13.5250 N.3   771  HIS771     -0.1241
     61  CA        42.8460   16.0630   12.2910 C.3   771  HIS771      0.1621
     62  C         43.1190   15.0230   11.2030 C.2   771  HIS771      0.2264
     63  O         44.0500   15.1610   10.4060 O.2   771  HIS771     -0.2867
     64  CB        44.0520   16.9810   12.5330 C.3   771  HIS771      0.0745
     65  CG        43.7220   18.2280   13.3030 C.ar  771  HIS771      0.0817
     66  ND1       44.7050   18.9490   13.9430 N.ar  771  HIS771     -0.2268
     67  CD2       42.5380   18.8580   13.4780 C.ar  771  HIS771      0.1154
     68  CE1       44.0910   19.9740   14.5030 C.ar  771  HIS771      0.1986
     69  NE2       42.7900   19.9660   14.2310 N.ar  771  HIS771     -0.2212
     70  N         41.9770   14.0820    8.0020 N.3   773  PHE773     -0.1241
     71  CA        41.2750   14.5110    6.7980 C.3   773  PHE773      0.1605
     72  C         42.2880   15.0490    5.8270 C.2   773  PHE773      0.2264
     73  O         43.4470   15.2100    6.1940 O.2   773  PHE773     -0.2867
     74  CB        40.2570   15.6460    7.1240 C.3   773  PHE773      0.0534
     75  CG        40.8720   16.9700    7.5590 C.ar  773  PHE773     -0.0203
     76  CD1       41.2500   17.1810    8.8820 C.ar  773  PHE773     -0.0042
     77  CD2       41.1240   17.9810    6.6300 C.ar  773  PHE773     -0.0042
     78  CE1       41.8310   18.3830    9.2730 C.ar  773  PHE773     -0.0003
     79  CE2       41.7450   19.1740    7.0190 C.ar  773  PHE773     -0.0003
     80  CZ        42.0830   19.3700    8.3360 C.ar  773  PHE773     -0.0000
     81  N         45.3320   22.7880    3.8590 N.3   791  ASP791     -0.1239
     82  CA        45.3810   22.7560    5.3140 C.3   791  ASP791      0.1674
     83  C         46.4040   21.6880    5.7500 C.2   791  ASP791      0.2266
     84  O         46.0550   20.5150    5.8360 O.2   791  ASP791     -0.2867
     85  CB        44.0070   22.5050    5.9520 C.3   791  ASP791      0.1410
     86  CG        44.0230   22.6850    7.4580 C.2   791  ASP791      0.3668
     87  OD1       45.1290   22.8560    8.0300 O.co2 791  ASP791     -0.2456
     88  OD2       42.9410   22.6970    8.0590 O.co2 791  ASP791     -0.2456
     89  N         47.4940   20.7550    8.5340 N.3   793  LYS793     -0.1245
     90  CA        47.1070   20.0710    9.7730 C.3   793  LYS793      0.1561
     91  C         46.4590   18.7240    9.4750 C.2   793  LYS793      0.2260
     92  O         46.6170   17.7910   10.2570 O.2   793  LYS793     -0.2867
     93  CB        46.1260   20.9320   10.6030 C.3   793  LYS793      0.0271
     94  CG        46.7840   22.1460   11.2200 C.3   793  LYS793      0.0035
     95  CD        45.8120   23.0910   11.9270 C.3   793  LYS793      0.0206
     96  CE        44.9360   23.9380   11.0170 C.3   793  LYS793      0.1093
     97  NZ        45.7100   24.6860    9.9770 N.3   793  LYS793     -0.1314
@<TRIPOS>BOND
     1     8     9    1
     2    81    82    1
     3    12     9    1
     4    12    13    1
     5     9    10    1
     6    10    11    2
     7    15    13   ar
     8    15    17   ar
     9    13    14   ar
    10    82    83    1
    11    82    85    1
    12    17    18   ar
    13    83    84    2
    14    72    73    2
    15    72    71    1
    16    85    86    1
    17    14    16   ar
    18    20    21    1
    19    77    79   ar
    20    77    75   ar
    21    71    74    1
    22    71    70    1
    23    18    16   ar
    24    18    19    1
    25    79    80   ar
    26    74    75    1
    27    34    35    1
    28    34    31    1
    29    86    87   ar
    30    86    88   ar
    31    75    76   ar
    32    35    36    1
    33    30    31    1
    34    30    22   am
    35    21    24    1
    36    21    22    1
    37    24    25    1
    38    32    31    1
    39    32    33    2
    40    80    78   ar
    41    89    90    1
    42    22    23    2
    43    76    78   ar
    44    36    37    1
    45    25    27   ar
    46    25    26   ar
    47    91    90    1
    48    91    92    2
    49    37    38    1
    50    90    93    1
    51    27    29   ar
    52    43    44    1
    53    43    40    1
    54    97    96    1
    55    46    44   ar
    56    46    48   ar
    57    63    62    2
    58     7     5    1
    59    26    28   ar
    60     5     2    1
    61     5     6    1
    62    44    45   ar
    63    93    94    1
    64     3     2    1
    65     3     4    2
    66    48    49   ar
    67     2     1    1
    68    45    47   ar
    69    96    95    1
    70    40    39    1
    71    40    41    1
    72    29    28   ar
    73    62    61    1
    74    94    95    1
    75    49    47   ar
    76    49    50    1
    77    42    41    2
    78    41    51   am
    79    61    64    1
    80    61    60    1
    81    64    65    1
    82    51    52    1
    83    65    67   ar
    84    65    66   ar
    85    67    69   ar
    86    66    68   ar
    87    52    55    1
    88    52    53    1
    89    69    68   ar
    90    55    56    1
    91    56    57    1
    92    58    57    2
    93    53    54    2
    94    57    59   am
