@<TRIPOS>MOLECULE
tmp/5iefA02.pdb
 166 164 0 0 0
SMALL
GASTEIGER

@<TRIPOS>ATOM
      1  N        106.0400  542.1400   73.8980 N.3   215  ASP215     -0.1239
      2  CA       105.7680  541.0300   73.0110 C.3   215  ASP215      0.1674
      3  C        104.5520  541.4550   72.1490 C.2   215  ASP215      0.2266
      4  O        103.4190  541.4620   72.6330 O.2   215  ASP215     -0.2867
      5  CB       105.4550  539.7870   73.8540 C.3   215  ASP215      0.1410
      6  CG       105.0810  538.5320   73.0780 C.2   215  ASP215      0.3668
      7  OD1      104.9040  538.6120   71.8390 O.co2 215  ASP215     -0.2456
      8  OD2      104.9710  537.4800   73.6970 O.co2 215  ASP215     -0.2456
      9  N        102.3870  540.6010   69.0660 N.3   217  PHE217     -0.1241
     10  CA       101.9640  539.5150   68.1760 C.3   217  PHE217      0.1605
     11  C        101.6410  540.0790   66.8090 C.2   217  PHE217      0.2264
     12  O        100.8660  541.0330   66.7060 O.2   217  PHE217     -0.2867
     13  CB       100.7430  538.7940   68.7850 C.3   217  PHE217      0.0534
     14  CG       100.2000  537.6050   68.0310 C.ar  217  PHE217     -0.0203
     15  CD1      100.8390  536.3750   68.0910 C.ar  217  PHE217     -0.0042
     16  CD2       99.0230  537.7050   67.2950 C.ar  217  PHE217     -0.0042
     17  CE1      100.3430  535.2790   67.3760 C.ar  217  PHE217     -0.0003
     18  CE2       98.5420  536.6190   66.5590 C.ar  217  PHE217     -0.0003
     19  CZ        99.1840  535.4050   66.6330 C.ar  217  PHE217     -0.0000
     20  N        109.3390  525.6900   65.5360 N.3   314  TRP314     -0.1241
     21  CA       108.4680  525.3360   66.6350 C.3   314  TRP314      0.1605
     22  C        107.5830  524.2300   66.0530 C.2   314  TRP314      0.2264
     23  O        106.6720  524.5620   65.3250 O.2   314  TRP314     -0.2867
     24  CB       107.6600  526.5670   67.0280 C.3   314  TRP314      0.0550
     25  CG       106.6940  526.3960   68.1680 C.ar  314  TRP314      0.0003
     26  CD1      106.5890  525.3420   69.0360 C.ar  314  TRP314      0.0946
     27  CD2      105.7250  527.3590   68.5810 C.ar  314  TRP314      0.0152
     28  NE1      105.5950  525.5840   69.9510 N.ar  314  TRP314     -0.2442
     29  CE2      105.0550  526.8270   69.7010 C.ar  314  TRP314      0.0810
     30  CE3      105.3810  528.6450   68.1350 C.ar  314  TRP314      0.0012
     31  CZ2      104.0310  527.5240   70.3480 C.ar  314  TRP314      0.0191
     32  CZ3      104.3580  529.3210   68.7690 C.ar  314  TRP314      0.0001
     33  CH2      103.7180  528.7760   69.8750 C.ar  314  TRP314      0.0015
     34  N        112.5580  524.0210   70.5620 N.3   342  ASP342     -0.1225
     35  CA       111.5920  524.9740   71.0920 C.3   342  ASP342      0.1805
     36  C        110.8020  524.3420   72.2620 C.2   342  ASP342      0.2597
     37  O        111.1440  523.2530   72.7270 O.2   342  ASP342     -0.2718
     38  CB       110.7040  525.5300   69.9730 C.3   342  ASP342      0.1424
     39  CG       110.2240  526.9410   70.1550 C.2   342  ASP342      0.3668
     40  OD1      109.9790  527.3520   71.3220 O.co2 342  ASP342     -0.2456
     41  OD2      110.0270  527.6210   69.1420 O.co2 342  ASP342     -0.2456
     42  N        109.7780  525.0450   72.7530 N.am  343  ILE343     -0.1980
     43  CA       109.0540  524.7730   73.9920 C.3   343  ILE343      0.1595
     44  C        108.4610  523.3710   74.1100 C.2   343  ILE343      0.2287
     45  O        108.3280  522.8780   75.2360 O.2   343  ILE343     -0.2864
     46  CB       108.0130  525.8490   74.3090 C.3   343  ILE343      0.0276
     47  CG1      106.9420  525.9970   73.2170 C.3   343  ILE343      0.0022
     48  CG2      108.7210  527.1680   74.6060 C.3   343  ILE343      0.0022
     49  CD1      105.8980  527.0180   73.5570 C.3   343  ILE343      0.0001
     50  N        115.4190  525.9370   74.5110 N.3   379  ILE379     -0.1245
     51  CA       114.7180  527.0990   75.0200 C.3   379  ILE379      0.1561
     52  C        114.5220  526.9790   76.5480 C.2   379  ILE379      0.2260
     53  O        114.1710  525.9010   77.0640 O.2   379  ILE379     -0.2867
     54  CB       113.4070  527.3360   74.2460 C.3   379  ILE379      0.0252
     55  CG1      112.8730  528.7500   74.4890 C.3   379  ILE379      0.0019
     56  CG2      112.3640  526.2780   74.5690 C.3   379  ILE379      0.0019
     57  CD1      111.8740  529.2040   73.5250 C.3   379  ILE379      0.0001
     58  N        102.8530  530.4450   78.9370 N.3   416  TRP416     -0.1241
     59  CA       103.0390  529.1620   78.2110 C.3   416  TRP416      0.1605
     60  C        102.6310  527.9290   79.0630 C.2   416  TRP416      0.2264
     61  O        101.8880  527.0870   78.5610 O.2   416  TRP416     -0.2867
     62  CB       104.4700  529.0070   77.6240 C.3   416  TRP416      0.0550
     63  CG       104.7130  529.7700   76.3540 C.ar  416  TRP416      0.0003
     64  CD1      103.8440  530.3990   75.5310 C.ar  416  TRP416      0.0946
     65  CD2      106.0210  529.9190   75.7320 C.ar  416  TRP416      0.0152
     66  NE1      104.5150  530.9360   74.4690 N.ar  416  TRP416     -0.2442
     67  CE2      105.8310  530.6510   74.5330 C.ar  416  TRP416      0.0810
     68  CE3      107.2970  529.4830   76.0710 C.ar  416  TRP416      0.0012
     69  CZ2      106.9120  530.9440   73.6930 C.ar  416  TRP416      0.0191
     70  CZ3      108.3360  529.7880   75.2590 C.ar  416  TRP416      0.0001
     71  CH2      108.1470  530.4930   74.0540 C.ar  416  TRP416      0.0015
     72  N        118.4520  529.3190   74.5930 N.3   453  TRP453     -0.1241
     73  CA       117.6730  530.3870   74.0180 C.3   453  TRP453      0.1605
     74  C        116.7260  530.9070   75.0910 C.2   453  TRP453      0.2264
     75  O        115.9370  530.1420   75.6480 O.2   453  TRP453     -0.2867
     76  CB       116.9340  529.8260   72.7980 C.3   453  TRP453      0.0550
     77  CG       115.8660  530.6620   72.1600 C.ar  453  TRP453      0.0003
     78  CD1      115.7300  532.0210   72.1860 C.ar  453  TRP453      0.0946
     79  CD2      114.8240  530.1740   71.3210 C.ar  453  TRP453      0.0152
     80  NE1      114.6550  532.4020   71.4280 N.ar  453  TRP453     -0.2442
     81  CE2      114.0870  531.2870   70.8730 C.ar  453  TRP453      0.0810
     82  CE3      114.4370  528.8930   70.8980 C.ar  453  TRP453      0.0012
     83  CZ2      112.9840  531.1560   70.0410 C.ar  453  TRP453      0.0191
     84  CZ3      113.3610  528.7740   70.0430 C.ar  453  TRP453      0.0001
     85  CH2      112.6470  529.8920   69.6270 C.ar  453  TRP453      0.0015
     86  N        113.6890  533.2480   75.6170 N.3   455  ASP455     -0.1225
     87  CA       112.5590  533.8400   74.9210 C.3   455  ASP455      0.1805
     88  C        111.6060  534.4310   75.9470 C.2   455  ASP455      0.2597
     89  O        111.7260  534.1390   77.1470 O.2   455  ASP455     -0.2718
     90  CB       111.8530  532.7510   74.0830 C.3   455  ASP455      0.1424
     91  CG       110.6560  533.2160   73.2900 C.2   455  ASP455      0.3668
     92  OD1      110.6540  534.3870   72.8500 O.co2 455  ASP455     -0.2456
     93  OD2      109.7330  532.4020   73.0840 O.co2 455  ASP455     -0.2456
     94  N        110.6840  535.2950   75.4900 N.am  456  MET456     -0.1979
     95  CA       109.6000  535.8300   76.3140 C.3   456  MET456      0.1605
     96  C        110.1130  536.5140   77.5990 C.2   456  MET456      0.2287
     97  O        109.4540  536.5200   78.6470 O.2   456  MET456     -0.2864
     98  CB       108.5820  534.6950   76.5790 C.3   456  MET456      0.0413
     99  CG       107.7070  534.3820   75.3620 C.3   456  MET456      0.0598
    100  SD       106.6370  533.0240   75.8060 S.3   456  MET456     -0.1393
    101  CE       105.3800  533.8820   76.6910 C.3   456  MET456      0.0692
    102  N        100.9470  536.5320   79.4840 N.3   462  PHE462     -0.1241
    103  CA        99.7670  536.4540   78.5870 C.3   462  PHE462      0.1605
    104  C         98.5220  537.2210   79.0450 C.2   462  PHE462      0.2264
    105  O         97.8690  537.8640   78.2160 O.2   462  PHE462     -0.2867
    106  CB        99.3840  535.0090   78.2150 C.3   462  PHE462      0.0534
    107  CG       100.3110  534.3330   77.2120 C.ar  462  PHE462     -0.0203
    108  CD1      101.1570  535.0880   76.3910 C.ar  462  PHE462     -0.0042
    109  CD2      100.3530  532.9390   77.1040 C.ar  462  PHE462     -0.0042
    110  CE1      102.0340  534.4620   75.5020 C.ar  462  PHE462     -0.0003
    111  CE2      101.2370  532.3120   76.2240 C.ar  462  PHE462     -0.0003
    112  CZ       102.0610  533.0770   75.4160 C.ar  462  PHE462     -0.0000
    113  N        115.4970  537.4530   73.3130 N.3   515  ARG515     -0.1245
    114  CA       114.5390  538.2920   72.6020 C.3   515  ARG515      0.1563
    115  C        114.5880  539.7480   73.0880 C.2   515  ARG515      0.2260
    116  O        114.7030  540.6660   72.2910 O.2   515  ARG515     -0.2867
    117  CB       113.1110  537.7320   72.7220 C.3   515  ARG515      0.0307
    118  CG       112.2470  538.1990   71.5450 C.3   515  ARG515      0.0489
    119  CD       110.9610  537.4260   71.3700 C.3   515  ARG515      0.2205
    120  NE       110.0490  537.6650   72.4860 N.pl3 515  ARG515     -0.0865
    121  CZ       108.7930  537.2410   72.5370 C.cat 515  ARG515      0.5346
    122  NH1      108.3000  536.4890   71.5650 N.pl3 515  ARG515      0.1354
    123  NH2      108.0240  537.5500   73.5730 N.pl3 515  ARG515      0.1354
    124  N        117.6010  538.5050   68.2990 N.3   528  TRP528     -0.1241
    125  CA       116.9480  538.4390   67.0060 C.3   528  TRP528      0.1605
    126  C        115.7090  539.3300   67.0170 C.2   528  TRP528      0.2264
    127  O        115.2520  539.7390   68.0890 O.2   528  TRP528     -0.2867
    128  CB       116.7030  536.9970   66.5460 C.3   528  TRP528      0.0550
    129  CG       115.3700  536.4370   66.8960 C.ar  528  TRP528      0.0003
    130  CD1      114.3400  536.2080   66.0390 C.ar  528  TRP528      0.0946
    131  CD2      114.8900  536.0770   68.2120 C.ar  528  TRP528      0.0152
    132  NE1      113.2680  535.6690   66.7200 N.ar  528  TRP528     -0.2442
    133  CE2      113.5810  535.5670   68.0530 C.ar  528  TRP528      0.0810
    134  CE3      115.4440  536.1210   69.5060 C.ar  528  TRP528      0.0012
    135  CZ2      112.8260  535.0700   69.1290 C.ar  528  TRP528      0.0191
    136  CZ3      114.7060  535.6060   70.5690 C.ar  528  TRP528      0.0001
    137  CH2      113.4030  535.1130   70.3770 C.ar  528  TRP528      0.0015
    138  N        109.1930  537.8260   66.2590 N.3   531  ASP531     -0.1239
    139  CA       108.2270  537.1310   65.4200 C.3   531  ASP531      0.1674
    140  C        107.8490  537.9270   64.2050 C.2   531  ASP531      0.2266
    141  O        106.8540  538.6550   64.1850 O.2   531  ASP531     -0.2867
    142  CB       107.0170  536.6920   66.2510 C.3   531  ASP531      0.1410
    143  CG       107.3670  535.7950   67.4220 C.2   531  ASP531      0.3668
    144  OD1      108.3950  535.0820   67.3460 O.co2 531  ASP531     -0.2456
    145  OD2      106.6400  535.8380   68.4320 O.co2 531  ASP531     -0.2456
    146  N        108.9240  534.0440   60.6240 N.3   564  PHE564     -0.1241
    147  CA       108.3310  533.1990   61.6540 C.3   564  PHE564      0.1605
    148  C        106.9050  532.7700   61.2840 C.2   564  PHE564      0.2264
    149  O        106.6430  531.5710   61.1660 O.2   564  PHE564     -0.2867
    150  CB       108.3700  533.9090   62.9990 C.3   564  PHE564      0.0534
    151  CG       107.7730  533.1530   64.1560 C.ar  564  PHE564     -0.0203
    152  CD1      108.3970  532.0190   64.6640 C.ar  564  PHE564     -0.0042
    153  CD2      106.6180  533.6050   64.7760 C.ar  564  PHE564     -0.0042
    154  CE1      107.8700  531.3460   65.7540 C.ar  564  PHE564     -0.0003
    155  CE2      106.1120  532.9550   65.9030 C.ar  564  PHE564     -0.0003
    156  CZ       106.7300  531.8190   66.3730 C.ar  564  PHE564     -0.0000
    157  N        113.8200  529.6980   61.2580 N.3   589  HIS589     -0.1241
    158  CA       112.8720  529.4130   62.3220 C.3   589  HIS589      0.1621
    159  C        111.4750  529.6540   61.7780 C.2   589  HIS589      0.2264
    160  O        111.3100  530.3970   60.8070 O.2   589  HIS589     -0.2867
    161  CB       113.1830  530.2750   63.5540 C.3   589  HIS589      0.0745
    162  CG       112.3510  529.9360   64.7450 C.ar  589  HIS589      0.0817
    163  ND1      112.2910  528.6580   65.2350 N.ar  589  HIS589     -0.2268
    164  CD2      111.5910  530.7340   65.5230 C.ar  589  HIS589      0.1154
    165  CE1      111.4850  528.7080   66.2800 C.ar  589  HIS589      0.1986
    166  NE2      111.0220  529.9320   66.4670 N.ar  589  HIS589     -0.2212
@<TRIPOS>BOND
     1   146   147    1
     2   160   159    2
     3   149   148    2
     4   157   158    1
     5   148   147    1
     6   147   150    1
     7   159   158    1
     8   158   161    1
     9   150   151    1
    10   161   162    1
    11   151   152   ar
    12   151   153   ar
    13   141   140    2
    14   140   139    1
    15   152   154   ar
    16   162   163   ar
    17   162   164   ar
    18   153   155   ar
    19   163   165   ar
    20    23    22    2
    21   139   142    1
    22   139   138    1
    23   164   166   ar
    24    20    21    1
    25   154   156   ar
    26   155   156   ar
    27   130   132   ar
    28   130   129   ar
    29    22    21    1
    30   142   143    1
    31   165   166   ar
    32   128   129    1
    33   128   125    1
    34    18    19   ar
    35    18    16   ar
    36    19    17   ar
    37    21    24    1
    38    12    11    2
    39   132   133   ar
    40    11    10    1
    41   129   131   ar
    42   125   126    1
    43   125   124    1
    44   126   127    2
    45    24    25    1
    46    16    14   ar
    47   144   143   ar
    48    17    15   ar
    49   143   145   ar
    50    14    15   ar
    51    14    13    1
    52   133   131   ar
    53   133   135   ar
    54    30    27   ar
    55    30    32   ar
    56    25    27   ar
    57    25    26   ar
    58    10    13    1
    59    10     9    1
    60   131   134   ar
    61    27    29   ar
    62    32    33   ar
    63    26    28   ar
    64   135   137   ar
    65    41    39   ar
    66   134   136   ar
    67    85    83   ar
    68    85    84   ar
    69    29    28   ar
    70    29    31   ar
    71    33    31   ar
    72    38    39    1
    73    38    35    1
    74    83    81   ar
    75    84    82   ar
    76    39    40   ar
    77   137   136   ar
    78    34    35    1
    79    81    79   ar
    80    81    80   ar
    81    82    79   ar
    82    35    36    1
    83    79    77   ar
    84   119   118    1
    85   119   120    1
    86    80    78   ar
    87   118   117    1
    88   122   121    1
    89     7     6   ar
    90     3     4    2
    91     3     2    1
    92    77    78   ar
    93    77    76    1
    94    36    37    2
    95    36    42   am
    96   116   115    2
    97   120   121    2
    98   121   123    1
    99   114   117    1
   100   114   115    1
   101   114   113    1
   102    42    43    1
   103    76    73    1
   104    92    91   ar
   105     2     5    1
   106     2     1    1
   107     6     8   ar
   108     6     5    1
   109    93    91   ar
   110    47    49    1
   111    47    46    1
   112    91    90    1
   113    57    55    1
   114    69    71   ar
   115    69    67   ar
   116    43    44    1
   117    43    46    1
   118    73    72    1
   119    73    74    1
   120    71    70   ar
   121    90    87    1
   122    44    45    2
   123    54    55    1
   124    54    56    1
   125    54    51    1
   126    46    48    1
   127    66    67   ar
   128    66    64   ar
   129    50    51    1
   130    67    65   ar
   131    87    86    1
   132    87    88    1
   133    51    52    1
   134    74    75    2
   135    70    68   ar
   136    99   100    1
   137    99    98    1
   138   112   110   ar
   139   112   111   ar
   140    94    88   am
   141    94    95    1
   142   110   108   ar
   143    64    63   ar
   144    65    68   ar
   145    65    63   ar
   146   100   101    1
   147    88    89    2
   148   111   109   ar
   149    95    98    1
   150    95    96    1
   151    63    62    1
   152   108   107   ar
   153    52    53    2
   154   109   107   ar
   155   107   106    1
   156    96    97    2
   157    62    59    1
   158    59    58    1
   159    59    60    1
   160   106   103    1
   161   105   104    2
   162    61    60    2
   163   103   104    1
   164   103   102    1
