@<TRIPOS>MOLECULE
tmp/5iefA00.pdb
 84 81 0 0 0
SMALL
GASTEIGER

@<TRIPOS>ATOM
      1  N        137.7670  560.7830   76.8730 N.3    64  LYS64      -0.1231
      2  CA       137.2900  560.2970   75.5880 C.3    64  LYS64       0.1693
      3  C        136.1510  561.1460   75.0300 C.2    64  LYS64       0.2592
      4  O        135.2550  560.6050   74.3910 O.2    64  LYS64      -0.2718
      5  CB       136.9010  558.7820   75.6280 C.3    64  LYS64       0.0285
      6  CG       137.9540  557.8310   76.1960 C.3    64  LYS64       0.0035
      7  CD       137.6800  556.4050   75.7790 C.3    64  LYS64       0.0206
      8  CE       138.0180  555.4030   76.8670 C.3    64  LYS64       0.1093
      9  NZ       139.3490  554.7820   76.6560 N.3    64  LYS64      -0.1314
     10  N        136.1760  562.4730   75.2490 N.am   65  ASN65      -0.1974
     11  CA       135.2100  563.3910   74.6320 C.3    65  ASN65       0.1688
     12  C        133.7290  563.1470   74.9740 C.2    65  ASN65       0.2292
     13  O        132.8580  563.1520   74.0920 O.2    65  ASN65      -0.2864
     14  CB       135.4060  563.3550   73.1270 C.3    65  ASN65       0.1181
     15  CG       136.7900  563.7120   72.6600 C.2    65  ASN65       0.2629
     16  OD1      137.5990  564.2400   73.4160 O.2    65  ASN65      -0.2716
     17  ND2      137.0720  563.4430   71.3850 N.am   65  ASN65      -0.0877
     18  N        139.9940  571.1300   73.5680 N.3   114  PRO114     -0.2102
     19  CA       139.1690  572.2570   73.0820 C.3   114  PRO114      0.1504
     20  C        137.6870  572.2680   73.4950 C.2   114  PRO114      0.2575
     21  O        136.9720  573.1950   73.1060 O.2   114  PRO114     -0.2718
     22  CB       139.3170  572.1350   71.5610 C.3   114  PRO114      0.0282
     23  CG       139.4550  570.6600   71.3280 C.3   114  PRO114      0.0208
     24  CD       140.2050  570.1170   72.5150 C.3   114  PRO114      0.0893
     25  N        137.2000  571.2370   74.2110 N.am  115  TYR115     -0.1977
     26  CA       135.7860  571.1770   74.5810 C.3   115  TYR115      0.1639
     27  C        135.4250  572.1810   75.6650 C.2   115  TYR115      0.2290
     28  O        136.2160  572.4300   76.5740 O.2   115  TYR115     -0.2864
     29  CB       135.3600  569.7530   74.9500 C.3   115  TYR115      0.0560
     30  CG       135.4360  568.8210   73.7620 C.ar  115  TYR115     -0.0198
     31  CD1      134.3740  568.7130   72.8670 C.ar  115  TYR115     -0.0009
     32  CD2      136.5950  568.0950   73.4910 C.ar  115  TYR115     -0.0009
     33  CE1      134.4540  567.8880   71.7470 C.ar  115  TYR115      0.0417
     34  CE2      136.6750  567.2500   72.3850 C.ar  115  TYR115      0.0417
     35  CZ       135.5940  567.1370   71.5280 C.ar  115  TYR115      0.1957
     36  OH       135.6490  566.3020   70.4500 O.3   115  TYR115     -0.2866
     37  N        132.9910  572.5390   70.7630 N.3   130  GLU130     -0.1245
     38  CA       134.3920  572.2140   70.5060 C.3   130  GLU130      0.1567
     39  C        134.9570  573.5000   69.9280 C.2   130  GLU130      0.2260
     40  O        134.6230  573.8760   68.7930 O.2   130  GLU130     -0.2867
     41  CB       134.6610  571.0380   69.5680 C.3   130  GLU130      0.0388
     42  CG       136.1570  570.7510   69.5110 C.3   130  GLU130      0.1160
     43  CD       136.6690  569.7820   68.4650 C.2   130  GLU130      0.3649
     44  OE1      135.9090  568.8800   68.0530 O.co2 130  GLU130     -0.2457
     45  OE2      137.8560  569.9010   68.0860 O.co2 130  GLU130     -0.2457
     46  N        132.1200  562.3560   69.6920 N.3   282  GLY282     -0.1210
     47  CA       132.8680  561.9670   68.5100 C.3   282  GLY282      0.1940
     48  C        134.3050  562.4470   68.5360 C.2   282  GLY282      0.2453
     49  O        134.9850  562.2730   69.5520 O.2   282  GLY282     -0.2732
     50  N        134.8070  563.0610   67.4380 N.am  283  PRO283     -0.2728
     51  CA       134.0680  563.5590   66.2640 C.3   283  PRO283      0.1401
     52  C        133.6980  562.5720   65.1720 C.2   283  PRO283      0.2269
     53  O        132.7520  562.8600   64.4630 O.2   283  PRO283     -0.2865
     54  CB       134.9910  564.6460   65.7270 C.3   283  PRO283      0.0296
     55  CG       136.3550  564.1350   66.0450 C.3   283  PRO283      0.0237
     56  CD       136.2010  563.5520   67.4180 C.3   283  PRO283      0.0939
     57  N        134.8610  557.0500   66.8130 N.3   287  ASP287     -0.1239
     58  CA       135.0940  557.6680   68.1190 C.3   287  ASP287      0.1674
     59  C        133.8610  557.5030   69.0050 C.2   287  ASP287      0.2266
     60  O        134.0090  557.1480   70.1610 O.2   287  ASP287     -0.2867
     61  CB       135.4350  559.1570   67.9780 C.3   287  ASP287      0.1410
     62  CG       136.6840  559.4670   67.1690 C.2   287  ASP287      0.3668
     63  OD1      137.6570  558.6610   67.2280 O.co2 287  ASP287     -0.2456
     64  OD2      136.7070  560.5240   66.5090 O.co2 287  ASP287     -0.2456
     65  N        133.6190  553.8730   70.1580 N.3   290  ARG290     -0.1231
     66  CA       134.5630  553.6490   71.2590 C.3   290  ARG290      0.1694
     67  C        134.0510  554.2380   72.5590 C.2   290  ARG290      0.2591
     68  O        134.2290  553.6430   73.6210 O.2   290  ARG290     -0.2718
     69  CB       135.9220  554.2920   70.9650 C.3   290  ARG290      0.0321
     70  CG       136.8200  553.5380   70.0440 C.3   290  ARG290      0.0489
     71  CD       138.2430  554.0190   70.1790 C.3   290  ARG290      0.2205
     72  NE       139.1330  553.1810   69.3830 N.pl3 290  ARG290     -0.0865
     73  CZ       139.4760  553.4350   68.1240 C.cat 290  ARG290      0.5346
     74  NH1      139.0160  554.5190   67.5090 N.pl3 290  ARG290      0.1354
     75  NH2      140.2850  552.6090   67.4710 N.pl3 290  ARG290      0.1354
     76  N        133.4960  555.4420   72.4870 N.am  291  GLN291     -0.1979
     77  CA       132.9860  556.1610   73.6360 C.3   291  GLN291      0.1601
     78  C        131.9020  555.3260   74.3020 C.2   291  GLN291      0.2287
     79  O        131.9470  555.0620   75.5070 O.2   291  GLN291     -0.2864
     80  CB       132.4400  557.5350   73.1880 C.3   291  GLN291      0.0394
     81  CG       133.5650  558.5160   72.9250 C.3   291  GLN291      0.0908
     82  CD       133.3160  559.6090   71.9060 C.2   291  GLN291      0.2608
     83  OE1      132.1830  559.9110   71.5120 O.2   291  GLN291     -0.2717
     84  NE2      134.4000  560.2470   71.4610 N.am  291  GLN291     -0.0878
@<TRIPOS>BOND
     1    53    52    2
     2    52    51    1
     3    54    55    1
     4    54    51    1
     5    55    56    1
     6    51    50    1
     7    64    62   ar
     8    57    58    1
     9    62    63   ar
    10    62    61    1
    11    56    50    1
    12    50    48   am
    13    75    73    1
    14    74    73    1
    15    61    58    1
    16    44    43   ar
    17    45    43   ar
    18    58    59    1
    19    73    72    2
    20    43    42    1
    21    47    48    1
    22    47    46    1
    23    48    49    2
    24    40    39    2
    25    59    60    2
    26    72    71    1
    27    42    41    1
    28    41    38    1
    29    39    38    1
    30    70    71    1
    31    70    69    1
    32    65    66    1
    33    36    35    1
    34    38    37    1
    35    69    66    1
    36    66    67    1
    37    23    22    1
    38    23    24    1
    39    17    15   am
    40    84    82   am
    41    83    82    2
    42    35    33   ar
    43    35    34   ar
    44    22    19    1
    45    33    31   ar
    46    82    81    1
    47    34    32   ar
    48    76    67   am
    49    76    77    1
    50    24    18    1
    51    67    68    2
    52    15    14    1
    53    15    16    2
    54    31    30   ar
    55    81    80    1
    56    19    20    1
    57    19    18    1
    58    21    20    2
    59    14    11    1
    60    80    77    1
    61    32    30   ar
    62    20    25   am
    63    77    78    1
    64    30    29    1
    65    13    12    2
    66    25    26    1
    67    78    79    2
    68     4     3    2
    69    26    29    1
    70    26    27    1
    71    11    12    1
    72    11    10    1
    73     3    10   am
    74     3     2    1
    75     2     5    1
    76     2     1    1
    77     5     6    1
    78    27    28    2
    79     7     6    1
    80     7     8    1
    81     9     8    1
