@<TRIPOS>MOLECULE
tmp/5iegA02.pdb
 177 172 0 0 0
SMALL
GASTEIGER

@<TRIPOS>ATOM
      1  N         -8.0540   28.2590    9.2970 N.3     5  ASN5       -0.1240
      2  CA        -7.4080   27.5710   10.4250 C.3     5  ASN5        0.1653
      3  C         -6.1900   28.3260   10.9510 C.2     5  ASN5        0.2266
      4  O         -5.6580   27.9690   12.0120 O.2     5  ASN5       -0.2867
      5  CB        -6.9680   26.1530   10.0140 C.3     5  ASN5        0.1155
      6  CG        -8.0860   25.1620    9.8360 C.2     5  ASN5        0.2627
      7  OD1       -9.2410   25.3950   10.2220 O.2     5  ASN5       -0.2716
      8  ND2       -7.7480   24.0020    9.2830 N.am    5  ASN5       -0.0877
      9  N          2.2170   23.5100   11.2300 N.3   215  ASP215     -0.1239
     10  CA         1.9680   22.3940   10.3340 C.3   215  ASP215      0.1674
     11  C          0.7630   22.8410    9.4570 C.2   215  ASP215      0.2266
     12  O         -0.3800   22.8910    9.9350 O.2   215  ASP215     -0.2867
     13  CB         1.6370   21.1380   11.1820 C.3   215  ASP215      0.1410
     14  CG         1.2680   19.8920   10.3750 C.2   215  ASP215      0.3668
     15  OD1        1.1090   20.0020    9.1410 O.co2 215  ASP215     -0.2456
     16  OD2        1.1270   18.8250   10.9770 O.co2 215  ASP215     -0.2456
     17  N         -1.3840   21.9450    6.3710 N.3   217  PHE217     -0.1241
     18  CA        -1.8350   20.8810    5.4820 C.3   217  PHE217      0.1605
     19  C         -2.1570   21.4440    4.0960 C.2   217  PHE217      0.2264
     20  O         -2.9270   22.4040    3.9750 O.2   217  PHE217     -0.2867
     21  CB        -3.0700   20.1850    6.0930 C.3   217  PHE217      0.0534
     22  CG        -3.6730   19.0850    5.2570 C.ar  217  PHE217     -0.0203
     23  CD1       -3.0550   17.8440    5.1630 C.ar  217  PHE217     -0.0042
     24  CD2       -4.8970   19.2650    4.6220 C.ar  217  PHE217     -0.0042
     25  CE1       -3.6210   16.8190    4.3950 C.ar  217  PHE217     -0.0003
     26  CE2       -5.4540   18.2460    3.8350 C.ar  217  PHE217     -0.0003
     27  CZ        -4.8200   17.0320    3.7320 C.ar  217  PHE217     -0.0000
     28  N          5.5290    7.0310    2.7710 N.3   314  TRP314     -0.1241
     29  CA         4.6790    6.6870    3.9030 C.3   314  TRP314      0.1605
     30  C          3.7730    5.5830    3.3020 C.2   314  TRP314      0.2264
     31  O          2.8610    5.9120    2.5830 O.2   314  TRP314     -0.2867
     32  CB         3.8780    7.9260    4.3030 C.3   314  TRP314      0.0550
     33  CG         2.9060    7.7260    5.4400 C.ar  314  TRP314      0.0003
     34  CD1        2.8150    6.6540    6.2940 C.ar  314  TRP314      0.0946
     35  CD2        1.8960    8.6480    5.8340 C.ar  314  TRP314      0.0152
     36  NE1        1.7850    6.8550    7.1840 N.ar  314  TRP314     -0.2442
     37  CE2        1.2300    8.0910    6.9490 C.ar  314  TRP314      0.0810
     38  CE3        1.5190    9.9300    5.3820 C.ar  314  TRP314      0.0012
     39  CZ2        0.1810    8.7500    7.5910 C.ar  314  TRP314      0.0191
     40  CZ3        0.4690   10.5820    6.0180 C.ar  314  TRP314      0.0001
     41  CH2       -0.1930    9.9870    7.0990 C.ar  314  TRP314      0.0015
     42  N          8.7220    5.3350    7.7240 N.3   342  ASP342     -0.1225
     43  CA         7.7960    6.3080    8.2440 C.3   342  ASP342      0.1805
     44  C          7.0050    5.6890    9.4340 C.2   342  ASP342      0.2597
     45  O          7.3520    4.5980    9.8910 O.2   342  ASP342     -0.2718
     46  CB         6.9220    6.8670    7.1100 C.3   342  ASP342      0.1424
     47  CG         6.4430    8.2770    7.2940 C.2   342  ASP342      0.3668
     48  OD1        6.1630    8.6670    8.4490 O.co2 342  ASP342     -0.2456
     49  OD2        6.2970    8.9780    6.2860 O.co2 342  ASP342     -0.2456
     50  N          6.0030    6.3970    9.9410 N.am  343  ILE343     -0.1980
     51  CA         5.2910    6.1120   11.2050 C.3   343  ILE343      0.1595
     52  C          4.6840    4.7280   11.3080 C.2   343  ILE343      0.2287
     53  O          4.5030    4.2550   12.4400 O.2   343  ILE343     -0.2864
     54  CB         4.2590    7.2020   11.5660 C.3   343  ILE343      0.0276
     55  CG1        3.1790    7.4070   10.4660 C.3   343  ILE343      0.0022
     56  CG2        4.9660    8.5080   11.9070 C.3   343  ILE343      0.0022
     57  CD1        2.1000    8.4460   10.8700 C.3   343  ILE343      0.0001
     58  N         11.6060    7.1970   11.6890 N.3   379  ILE379     -0.1245
     59  CA        10.9450    8.3920   12.2010 C.3   379  ILE379      0.1561
     60  C         10.7500    8.2870   13.7390 C.2   379  ILE379      0.2260
     61  O         10.3900    7.2270   14.2560 O.2   379  ILE379     -0.2867
     62  CB         9.6190    8.6500   11.4540 C.3   379  ILE379      0.0252
     63  CG1        9.0900   10.0720   11.7290 C.3   379  ILE379      0.0019
     64  CG2        8.5490    7.5670   11.7930 C.3   379  ILE379      0.0019
     65  CD1        8.0030   10.5260   10.7250 C.3   379  ILE379      0.0001
     66  N         14.7010   10.6470   11.8110 N.3   450  TRP450     -0.1241
     67  CA        13.9070   11.7210   11.2380 C.3   450  TRP450      0.1605
     68  C         12.9470   12.2330   12.3270 C.2   450  TRP450      0.2264
     69  O         12.1620   11.4420   12.8720 O.2   450  TRP450     -0.2867
     70  CB        13.1340   11.1370   10.0400 C.3   450  TRP450      0.0550
     71  CG        12.0610   11.9770    9.4410 C.ar  450  TRP450      0.0003
     72  CD1       11.9430   13.3430    9.4750 C.ar  450  TRP450      0.0946
     73  CD2       11.0360   11.5080    8.5680 C.ar  450  TRP450      0.0152
     74  NE1       10.8820   13.7420    8.6970 N.ar  450  TRP450     -0.2442
     75  CE2       10.2870   12.6330    8.1570 C.ar  450  TRP450      0.0810
     76  CE3       10.6550   10.2280    8.1110 C.ar  450  TRP450      0.0012
     77  CZ2        9.1780   12.5250    7.3140 C.ar  450  TRP450      0.0191
     78  CZ3        9.5690   10.1290    7.2400 C.ar  450  TRP450      0.0001
     79  CH2        8.8270   11.2640    6.8850 C.ar  450  TRP450      0.0015
     80  N          9.8760   14.5340   12.8740 N.3   452  ASP452     -0.1225
     81  CA         8.7940   15.2020   12.1750 C.3   452  ASP452      0.1805
     82  C          7.8060   15.7810   13.2140 C.2   452  ASP452      0.2597
     83  O          7.9030   15.4590   14.4130 O.2   452  ASP452     -0.2718
     84  CB         8.1060   14.1730   11.2620 C.3   452  ASP452      0.1424
     85  CG         6.9500   14.6550   10.4280 C.2   452  ASP452      0.3668
     86  OD1        6.9540   15.8500   10.0310 O.co2 452  ASP452     -0.2456
     87  OD2        5.9660   13.8710   10.2930 O.co2 452  ASP452     -0.2456
     88  N          6.8460   16.6340   12.7370 N.am  453  MET453     -0.1979
     89  CA         5.7630   17.2310   13.5320 C.3   453  MET453      0.1605
     90  C          6.3150   17.9210   14.8040 C.2   453  MET453      0.2287
     91  O          5.6700   17.9440   15.8530 O.2   453  MET453     -0.2864
     92  CB         4.7170   16.1470   13.8610 C.3   453  MET453      0.0413
     93  CG         3.9630   15.6180   12.6310 C.3   453  MET453      0.0598
     94  SD         2.7770   14.2990   13.0480 S.3   453  MET453     -0.1393
     95  CE         1.6350   15.1800   14.0500 C.3   453  MET453      0.0692
     96  N         -2.9080   18.0060   16.7560 N.3   459  PHE459     -0.1241
     97  CA        -4.1200   17.9050   15.9150 C.3   459  PHE459      0.1605
     98  C         -5.3310   18.7250   16.3950 C.2   459  PHE459      0.2264
     99  O         -5.9760   19.3780   15.5710 O.2   459  PHE459     -0.2867
    100  CB        -4.5330   16.4410   15.6910 C.3   459  PHE459      0.0534
    101  CG        -5.4700   16.2350   14.5190 C.ar  459  PHE459     -0.0203
    102  CD1       -4.9830   16.1840   13.2160 C.ar  459  PHE459     -0.0042
    103  CD2       -6.8360   16.0630   14.7210 C.ar  459  PHE459     -0.0042
    104  CE1       -5.8460   15.9740   12.1350 C.ar  459  PHE459     -0.0003
    105  CE2       -7.7010   15.8640   13.6390 C.ar  459  PHE459     -0.0003
    106  CZ        -7.1990   15.8180   12.3540 C.ar  459  PHE459     -0.0000
    107  N         -3.3020   24.0480   14.8140 N.3   464  VAL464     -0.1245
    108  CA        -2.6790   22.7230   14.8040 C.3   464  VAL464      0.1561
    109  C         -1.3550   22.7300   15.6210 C.2   464  VAL464      0.2260
    110  O         -0.4530   21.9400   15.3460 O.2   464  VAL464     -0.2867
    111  CB        -2.5020   22.1480   13.3530 C.3   464  VAL464      0.0252
    112  CG1       -2.3900   20.6280   13.3710 C.3   464  VAL464      0.0019
    113  CG2       -3.6350   22.6080   12.4100 C.3   464  VAL464      0.0019
    114  N         11.6830   18.7710   10.5790 N.3   512  ARG512     -0.1245
    115  CA        10.7460   19.6090    9.8450 C.3   512  ARG512      0.1563
    116  C         10.7940   21.0580   10.3450 C.2   512  ARG512      0.2260
    117  O         10.8680   21.9850    9.5450 O.2   512  ARG512     -0.2867
    118  CB         9.3140   19.0400    9.9470 C.3   512  ARG512      0.0307
    119  CG         8.4530   19.6080    8.7940 C.3   512  ARG512      0.0489
    120  CD         7.1390   18.8360    8.5700 C.3   512  ARG512      0.2205
    121  NE         6.2530   19.0370    9.7170 N.pl3 512  ARG512     -0.0865
    122  CZ         5.0090   18.5950    9.7750 C.cat 512  ARG512      0.5346
    123  NH1        4.5200   17.8430    8.7980 N.pl3 512  ARG512      0.1354
    124  NH2        4.2480   18.8800   10.8190 N.pl3 512  ARG512      0.1354
    125  N         13.8010   19.9270    5.5480 N.3   525  TRP525     -0.1241
    126  CA        13.1620   19.8320    4.2380 C.3   525  TRP525      0.1605
    127  C         11.9180   20.6780    4.2710 C.2   525  TRP525      0.2264
    128  O         11.4780   21.0760    5.3580 O.2   525  TRP525     -0.2867
    129  CB        12.9360   18.3850    3.7680 C.3   525  TRP525      0.0550
    130  CG        11.6010   17.8130    4.1050 C.ar  525  TRP525      0.0003
    131  CD1       10.5790   17.5630    3.2320 C.ar  525  TRP525      0.0946
    132  CD2       11.1170   17.4470    5.4120 C.ar  525  TRP525      0.0152
    133  NE1        9.4960   17.0330    3.9070 N.ar  525  TRP525     -0.2442
    134  CE2        9.8140   16.9090    5.2390 C.ar  525  TRP525      0.0810
    135  CE3       11.6770   17.4780    6.7130 C.ar  525  TRP525      0.0012
    136  CZ2        9.0450   16.4290    6.3150 C.ar  525  TRP525      0.0191
    137  CZ3       10.9210   16.9730    7.7770 C.ar  525  TRP525      0.0001
    138  CH2        9.6100   16.4800    7.5740 C.ar  525  TRP525      0.0015
    139  N          5.3770   19.1640    3.5080 N.3   528  ASP528     -0.1239
    140  CA         4.3910   18.4660    2.6700 C.3   528  ASP528      0.1674
    141  C          4.0250   19.2430    1.4240 C.2   528  ASP528      0.2266
    142  O          3.0110   19.9460    1.3730 O.2   528  ASP528     -0.2867
    143  CB         3.1600   18.0660    3.5180 C.3   528  ASP528      0.1410
    144  CG         3.5200   17.1460    4.6710 C.2   528  ASP528      0.3668
    145  OD1        4.5650   16.4820    4.5860 O.co2 528  ASP528     -0.2456
    146  OD2        2.7580   17.1010    5.6540 O.co2 528  ASP528     -0.2456
    147  N          5.0510   15.4160   -2.2000 N.3   561  PHE561     -0.1241
    148  CA         4.4770   14.5550   -1.1560 C.3   561  PHE561      0.1605
    149  C          3.0480   14.1430   -1.5140 C.2   561  PHE561      0.2264
    150  O          2.7810   12.9500   -1.6390 O.2   561  PHE561     -0.2867
    151  CB         4.5280   15.2580    0.2000 C.3   561  PHE561      0.0534
    152  CG         3.9210   14.4980    1.3520 C.ar  561  PHE561     -0.0203
    153  CD1        4.5220   13.3320    1.8330 C.ar  561  PHE561     -0.0042
    154  CD2        2.7750   14.9740    1.9900 C.ar  561  PHE561     -0.0042
    155  CE1        4.0020   12.6680    2.9390 C.ar  561  PHE561     -0.0003
    156  CE2        2.2570   14.3160    3.1120 C.ar  561  PHE561     -0.0003
    157  CZ         2.8720   13.1660    3.5760 C.ar  561  PHE561     -0.0000
    158  N          9.9650   11.0930   -1.5430 N.3   586  HIS586     -0.1241
    159  CA         9.0270   10.7760   -0.4540 C.3   586  HIS586      0.1621
    160  C          7.6230   10.9860   -0.9960 C.2   586  HIS586      0.2264
    161  O          7.4410   11.7040   -1.9860 O.2   586  HIS586     -0.2867
    162  CB         9.3260   11.6420    0.8020 C.3   586  HIS586      0.0745
    163  CG         8.4780   11.2760    2.0040 C.ar  586  HIS586      0.0817
    164  ND1        8.4340    9.9940    2.4900 N.ar  586  HIS586     -0.2268
    165  CD2        7.6570   12.0500    2.7420 C.ar  586  HIS586      0.1154
    166  CE1        7.6110   10.0260    3.5270 C.ar  586  HIS586      0.1986
    167  NE2        7.0960   11.2390    3.6940 N.ar  586  HIS586     -0.2212
    168  N          3.1030   10.6680    0.0880 N.3   588  HIS588     -0.1241
    169  CA         1.9770   10.5200    1.0320 C.3   588  HIS588      0.1621
    170  C          1.3650    9.0880    0.9910 C.2   588  HIS588      0.2264
    171  O          1.5220    8.3580    0.0010 O.2   588  HIS588     -0.2867
    172  CB         0.9420   11.6160    0.7260 C.3   588  HIS588      0.0745
    173  CG        -0.2840   11.5930    1.5800 C.ar  588  HIS588      0.0817
    174  ND1       -1.4490   10.9510    1.1630 N.ar  588  HIS588     -0.2268
    175  CD2       -0.4950   12.1170    2.8120 C.ar  588  HIS588      0.1154
    176  CE1       -2.3160   11.0910    2.1620 C.ar  588  HIS588      0.1986
    177  NE2       -1.7920   11.7910    3.1720 N.ar  588  HIS588     -0.2212
@<TRIPOS>BOND
     1   147   148    1
     2   161   160    2
     3   150   149    2
     4   158   159    1
     5   149   148    1
     6   148   151    1
     7   160   159    1
     8   159   162    1
     9   171   170    2
    10   168   169    1
    11   151   152    1
    12   172   169    1
    13   172   173    1
    14   162   163    1
    15   170   169    1
    16   174   173   ar
    17   174   176   ar
    18   152   153   ar
    19   152   154   ar
    20   142   141    2
    21   141   140    1
    22   173   175   ar
    23   153   155   ar
    24   154   156   ar
    25   163   164   ar
    26   163   165   ar
    27   176   177   ar
    28   164   166   ar
    29    31    30    2
    30   140   139    1
    31   140   143    1
    32   165   167   ar
    33    28    29    1
    34   175   177   ar
    35   155   157   ar
    36   156   157   ar
    37   131   133   ar
    38   131   130   ar
    39    30    29    1
    40   143   144    1
    41   166   167   ar
    42    27    26   ar
    43    27    25   ar
    44   129   130    1
    45   129   126    1
    46    26    24   ar
    47    29    32    1
    48   133   134   ar
    49    20    19    2
    50    19    18    1
    51   130   132   ar
    52   126   127    1
    53   126   125    1
    54   127   128    2
    55    32    33    1
    56    25    23   ar
    57   145   144   ar
    58    24    22   ar
    59   144   146   ar
    60    23    22   ar
    61   134   132   ar
    62   134   136   ar
    63    22    21    1
    64    38    35   ar
    65    38    40   ar
    66   132   135   ar
    67    33    35   ar
    68    33    34   ar
    69    18    21    1
    70    18    17    1
    71    35    37   ar
    72    40    41   ar
    73    49    47   ar
    74    34    36   ar
    75   136   138   ar
    76   135   137   ar
    77    79    78   ar
    78    79    77   ar
    79    37    36   ar
    80    37    39   ar
    81    41    39   ar
    82    46    47    1
    83    46    43    1
    84    78    76   ar
    85    47    48   ar
    86    77    75   ar
    87   138   137   ar
    88    42    43    1
    89    76    73   ar
    90    75    73   ar
    91    75    74   ar
    92    43    44    1
    93    73    71   ar
    94   120   119    1
    95   120   121    1
    96    74    72   ar
    97   119   118    1
    98   123   122    1
    99    15    14   ar
   100     8     6   am
   101     1     2    1
   102    44    45    2
   103    44    50   am
   104    71    72   ar
   105    71    70    1
   106    11    12    2
   107    11    10    1
   108   117   116    2
   109   121   122    2
   110   122   124    1
   111     6     5    1
   112     6     7    2
   113   115   118    1
   114   115   116    1
   115   115   114    1
   116    50    51    1
   117     5     2    1
   118    86    85   ar
   119    70    67    1
   120    87    85   ar
   121    10    13    1
   122    10     9    1
   123    14    16   ar
   124    14    13    1
   125     2     3    1
   126    85    84    1
   127    55    57    1
   128    55    54    1
   129    65    63    1
   130     3     4    2
   131    51    52    1
   132    51    54    1
   133    67    66    1
   134    67    68    1
   135    84    81    1
   136    52    53    2
   137    62    63    1
   138    62    64    1
   139    62    59    1
   140    54    56    1
   141    58    59    1
   142   104   106   ar
   143   104   102   ar
   144    81    80    1
   145    81    82    1
   146    59    60    1
   147    68    69    2
   148   106   105   ar
   149   113   111    1
   150    93    94    1
   151    93    92    1
   152    88    82   am
   153    88    89    1
   154    94    95    1
   155    82    83    2
   156   102   101   ar
   157   111   112    1
   158   111   108    1
   159    89    92    1
   160    89    90    1
   161   105   103   ar
   162    60    61    2
   163   101   103   ar
   164   101   100    1
   165   108   107    1
   166   108   109    1
   167    90    91    2
   168   110   109    2
   169    99    98    2
   170   100    97    1
   171    97    98    1
   172    97    96    1
