@<TRIPOS>MOLECULE
tmp/5iehA00.pdb
 270 260 0 0 0
SMALL
GASTEIGER

@<TRIPOS>ATOM
      1  N         14.2570  -19.0040  -28.6490 N.3     5  MET5       -0.1245
      2  CA        13.8800  -17.7530  -29.2920 C.3     5  MET5        0.1570
      3  C         12.4610  -17.4400  -28.8580 C.2     5  MET5        0.2261
      4  O         11.5990  -18.3260  -28.8550 O.2     5  MET5       -0.2867
      5  CB        13.9560  -17.8140  -30.8080 C.3     5  MET5        0.0387
      6  CG        13.6130  -16.4960  -31.4520 C.3     5  MET5        0.0595
      7  SD        14.1220  -16.4700  -33.2030 S.3     5  MET5       -0.1393
      8  CE        12.9950  -17.6650  -33.9940 C.3     5  MET5        0.0692
      9  N          9.3760  -14.2120  -29.0750 N.3     7  TYR7       -0.1241
     10  CA         8.8230  -12.9050  -29.3640 C.3     7  TYR7        0.1605
     11  C          7.7130  -12.5900  -28.3730 C.2     7  TYR7        0.2264
     12  O          6.9250  -13.4610  -27.9820 O.2     7  TYR7       -0.2867
     13  CB         8.3020  -12.8200  -30.7970 C.3     7  TYR7        0.0534
     14  CG         9.3990  -12.8200  -31.8400 C.ar    7  TYR7       -0.0201
     15  CD1       10.0630  -11.6540  -32.1550 C.ar    7  TYR7       -0.0009
     16  CD2        9.7690  -13.9870  -32.4930 C.ar    7  TYR7       -0.0009
     17  CE1       11.0770  -11.6420  -33.0950 C.ar    7  TYR7        0.0417
     18  CE2       10.7730  -13.9840  -33.4480 C.ar    7  TYR7        0.0417
     19  CZ        11.4190  -12.8060  -33.7360 C.ar    7  TYR7        0.1957
     20  OH        12.4080  -12.8050  -34.7010 O.3     7  TYR7       -0.2866
     21  N          4.6460   -9.8100  -27.5690 N.3     9  HIS9       -0.1241
     22  CA         3.7390   -8.7980  -28.0880 C.3     9  HIS9        0.1621
     23  C          2.9500   -8.1760  -26.9490 C.2     9  HIS9        0.2264
     24  O          2.4410   -8.8880  -26.0850 O.2     9  HIS9       -0.2867
     25  CB         2.7520   -9.4060  -29.0750 C.3     9  HIS9        0.0745
     26  CG         3.3790   -9.9850  -30.3060 C.ar    9  HIS9        0.0817
     27  ND1        2.6900  -10.7940  -31.1870 N.ar    9  HIS9       -0.2268
     28  CD2        4.6160   -9.8200  -30.8320 C.ar    9  HIS9        0.1154
     29  CE1        3.4900  -11.1240  -32.1890 C.ar    9  HIS9        0.1986
     30  NE2        4.6600  -10.5460  -31.9990 N.ar    9  HIS9       -0.2212
     31  N          6.5860   -4.8880  -29.8130 N.3    24  THR24      -0.1218
     32  CA         7.1750   -6.2150  -29.9200 C.3    24  THR24       0.1862
     33  C          8.6330   -6.1210  -29.5160 C.2    24  THR24       0.2287
     34  O          9.3260   -5.1780  -29.8980 O.2    24  THR24      -0.2866
     35  CB         7.0820   -6.7750  -31.3290 C.3    24  THR24       0.1770
     36  OG1        5.7230   -7.0390  -31.6410 O.3    24  THR24      -0.2211
     37  CG2        7.8570   -8.0620  -31.4880 C.3    24  THR24       0.0375
     38  N         10.7310   -2.2230  -37.4360 N.3    45  LYS45      -0.1245
     39  CA        11.5550   -3.1530  -36.6890 C.3    45  LYS45       0.1561
     40  C         12.9940   -2.6660  -36.7000 C.2    45  LYS45       0.2260
     41  O         13.5240   -2.2890  -37.7540 O.2    45  LYS45      -0.2867
     42  CB        11.4260   -4.5440  -37.2870 C.3    45  LYS45       0.0271
     43  CG        10.2150   -5.2920  -36.7890 C.3    45  LYS45       0.0035
     44  CD        10.6170   -6.2130  -35.6420 C.3    45  LYS45       0.0206
     45  CE         9.5300   -7.1680  -35.2010 C.3    45  LYS45       0.1093
     46  NZ         8.9080   -8.0200  -36.2540 N.3    45  LYS45      -0.1314
     47  N         14.7520   -8.8120  -45.1950 N.3    59  TYR59      -0.1241
     48  CA        14.4220   -9.2250  -43.8310 C.3    59  TYR59       0.1605
     49  C         13.7150   -8.1130  -43.0680 C.2    59  TYR59       0.2264
     50  O         12.6610   -8.3310  -42.4450 O.2    59  TYR59      -0.2867
     51  CB        15.7060   -9.6260  -43.1120 C.3    59  TYR59       0.0534
     52  CG        15.5390  -10.0200  -41.6500 C.ar   59  TYR59      -0.0201
     53  CD1       15.5710   -9.0700  -40.6500 C.ar   59  TYR59      -0.0009
     54  CD2       15.3980  -11.3420  -41.2900 C.ar   59  TYR59      -0.0009
     55  CE1       15.4320   -9.4360  -39.3070 C.ar   59  TYR59       0.0417
     56  CE2       15.2560  -11.7130  -39.9640 C.ar   59  TYR59       0.0417
     57  CZ        15.2750  -10.7540  -38.9840 C.ar   59  TYR59       0.1957
     58  OH        15.1350  -11.0860  -37.6480 O.3    59  TYR59      -0.2866
     59  N         10.1250   -7.3830  -44.2880 N.3    62  ARG62      -0.1231
     60  CA         9.1480   -8.3790  -43.8680 C.3    62  ARG62       0.1694
     61  C          8.8430   -8.2290  -42.3880 C.2    62  ARG62       0.2591
     62  O          7.6760   -8.2390  -41.9770 O.2    62  ARG62      -0.2718
     63  CB         9.6640   -9.7940  -44.1730 C.3    62  ARG62       0.0321
     64  CG         8.7740  -10.9290  -43.6710 C.3    62  ARG62       0.0489
     65  CD         9.3640  -12.3480  -43.9100 C.3    62  ARG62       0.2205
     66  NE         8.4420  -13.3830  -43.4450 N.pl3  62  ARG62      -0.0865
     67  CZ         8.3430  -13.8200  -42.1860 C.cat  62  ARG62       0.5346
     68  NH1        9.1250  -13.3310  -41.2240 N.pl3  62  ARG62       0.1354
     69  NH2        7.4350  -14.7270  -41.8780 N.pl3  62  ARG62       0.1354
     70  N          9.8870   -8.0800  -41.5730 N.am   63  GLU63      -0.1979
     71  CA         9.6770   -7.9330  -40.1320 C.3    63  GLU63       0.1602
     72  C          8.8210   -6.7100  -39.8130 C.2    63  GLU63       0.2287
     73  O          7.9250   -6.7740  -38.9620 O.2    63  GLU63      -0.2864
     74  CB        11.0160   -7.8540  -39.4140 C.3    63  GLU63       0.0415
     75  CG        11.7600   -9.1770  -39.3450 C.3    63  GLU63       0.1163
     76  CD        11.0330  -10.2000  -38.4980 C.2    63  GLU63       0.3649
     77  OE1       10.6690   -9.8390  -37.3630 O.co2  63  GLU63      -0.2457
     78  OE2       10.8340  -11.3280  -38.9780 O.co2  63  GLU63      -0.2457
     79  N          5.1610   -7.2900  -40.8190 N.3    66  ILE66      -0.1231
     80  CA         4.4780   -8.1600  -39.8640 C.3    66  ILE66       0.1692
     81  C          4.0290   -7.3590  -38.6450 C.2    66  ILE66       0.2592
     82  O          2.8970   -7.5010  -38.1740 O.2    66  ILE66      -0.2718
     83  CB         5.3880   -9.3470  -39.4870 C.3    66  ILE66       0.0266
     84  CG1        5.4510  -10.3300  -40.6560 C.3    66  ILE66       0.0019
     85  CG2        4.8850  -10.0570  -38.2470 C.3    66  ILE66       0.0020
     86  CD1        6.4680  -11.4470  -40.4910 C.3    66  ILE66       0.0001
     87  N          4.9130   -6.5140  -38.1150 N.am   67  SER67      -0.1952
     88  CA         4.5810   -5.7410  -36.9270 C.3    67  SER67       0.1924
     89  C          3.5040   -4.7020  -37.2030 C.2    67  SER67       0.2314
     90  O          2.6410   -4.4550  -36.3470 O.2    67  SER67      -0.2863
     91  CB         5.8290   -5.0790  -36.3610 C.3    67  SER67       0.2116
     92  OG         6.7070   -6.0520  -35.8120 O.3    67  SER67      -0.2180
     93  N          1.0860   -5.0160  -39.5010 N.3    69  THR69      -0.1203
     94  CA        -0.1360   -5.8020  -39.5660 C.3    69  THR69       0.1994
     95  C         -0.5710   -6.2340  -38.1730 C.2    69  THR69       0.2617
     96  O         -1.7440   -6.1020  -37.8080 O.2    69  THR69      -0.2717
     97  CB         0.0620   -7.0080  -40.4840 C.3    69  THR69       0.1784
     98  OG1        0.3580   -6.5470  -41.8110 O.3    69  THR69      -0.2211
     99  CG2       -1.1700   -7.8820  -40.5350 C.3    69  THR69       0.0376
    100  N          0.3670   -6.7100  -37.3580 N.am   70  ASN70      -0.1974
    101  CA         0.0160   -7.1220  -36.0020 C.3    70  ASN70       0.1688
    102  C         -0.5920   -5.9750  -35.2060 C.2    70  ASN70       0.2292
    103  O         -1.4780   -6.1960  -34.3760 O.2    70  ASN70      -0.2864
    104  CB         1.2390   -7.6450  -35.2490 C.3    70  ASN70       0.1181
    105  CG         1.6790   -9.0520  -35.6630 C.2    70  ASN70       0.2629
    106  OD1        0.9470   -9.8120  -36.2820 O.2    70  ASN70      -0.2716
    107  ND2        2.9100   -9.3890  -35.2890 N.am   70  ASN70      -0.0877
    108  N         -4.1440   -6.1740  -36.0910 N.3    73  THR73      -0.1203
    109  CA        -4.7530   -7.4020  -35.5900 C.3    73  THR73       0.1994
    110  C         -5.0360   -7.3050  -34.1010 C.2    73  THR73       0.2617
    111  O         -6.1160   -7.6880  -33.6400 O.2    73  THR73      -0.2717
    112  CB        -3.8440   -8.5860  -35.8790 C.3    73  THR73       0.1784
    113  OG1       -3.6400   -8.6770  -37.2900 O.3    73  THR73      -0.2211
    114  CG2       -4.4150   -9.8890  -35.3690 C.3    73  THR73       0.0376
    115  N         -4.0680   -6.8010  -33.3330 N.am   74  TYR74      -0.1975
    116  CA        -4.2280   -6.7400  -31.8860 C.3    74  TYR74       0.1639
    117  C         -5.2610   -5.6980  -31.4840 C.2    74  TYR74       0.2290
    118  O         -5.9520   -5.8780  -30.4790 O.2    74  TYR74      -0.2864
    119  CB        -2.8580   -6.4900  -31.2200 C.3    74  TYR74       0.0560
    120  CG        -2.0250   -7.7590  -31.0200 C.ar   74  TYR74      -0.0198
    121  CD1       -1.4950   -8.4610  -32.0850 C.ar   74  TYR74      -0.0009
    122  CD2       -1.8480   -8.2870  -29.7500 C.ar   74  TYR74      -0.0009
    123  CE1       -0.7720   -9.6270  -31.8880 C.ar   74  TYR74       0.0417
    124  CE2       -1.1220   -9.4470  -29.5620 C.ar   74  TYR74       0.0417
    125  CZ        -0.6160  -10.1150  -30.6310 C.ar   74  TYR74       0.1957
    126  OH         0.0930  -11.2860  -30.4670 O.3    74  TYR74      -0.2866
    127  N         -8.4300   -7.6150  -31.9370 N.3    77  SER77      -0.1217
    128  CA        -8.5550   -8.5430  -30.8180 C.3    77  SER77       0.1889
    129  C         -9.0280   -7.8420  -29.5500 C.2    77  SER77       0.2288
    130  O         -9.8830   -8.3680  -28.8280 O.2    77  SER77      -0.2866
    131  CB        -7.2330   -9.2480  -30.5570 C.3    77  SER77       0.2089
    132  OG        -6.8910  -10.0380  -31.6710 O.3    77  SER77      -0.2183
    133  N          1.0590  -11.5000  -25.7310 N.3    97  SER97      -0.1217
    134  CA         1.3220  -12.8640  -26.1650 C.3    97  SER97       0.1889
    135  C          2.8160  -13.0910  -26.2200 C.2    97  SER97       0.2288
    136  O          3.6100  -12.1560  -26.2630 O.2    97  SER97      -0.2866
    137  CB         0.6520  -13.1800  -27.5020 C.3    97  SER97       0.2089
    138  OG         1.3240  -12.5560  -28.5490 O.3    97  SER97      -0.2183
    139  N          5.5620  -16.1870  -27.9430 N.3    99  TYR99      -0.1241
    140  CA         5.6600  -17.4020  -28.7360 C.3    99  TYR99       0.1605
    141  C          7.1040  -17.6460  -29.1280 C.2    99  TYR99       0.2264
    142  O          7.9180  -16.7200  -29.1720 O.2    99  TYR99      -0.2867
    143  CB         4.7850  -17.3480  -29.9960 C.3    99  TYR99       0.0534
    144  CG         5.2780  -16.4450  -31.1130 C.ar   99  TYR99      -0.0201
    145  CD1        6.1100  -16.9290  -32.0950 C.ar   99  TYR99      -0.0009
    146  CD2        4.9010  -15.1030  -31.1960 C.ar   99  TYR99      -0.0009
    147  CE1        6.5640  -16.1310  -33.1170 C.ar   99  TYR99       0.0417
    148  CE2        5.3530  -14.2990  -32.2350 C.ar   99  TYR99       0.0417
    149  CZ         6.1790  -14.8240  -33.1800 C.ar   99  TYR99       0.1957
    150  OH         6.6630  -14.0640  -34.2170 O.3    99  TYR99      -0.2866
    151  N          3.0370  -20.8350  -27.7600 N.3   114  ASN114     -0.1240
    152  CA         2.2930  -19.6570  -28.2120 C.3   114  ASN114      0.1653
    153  C          1.1410  -19.4470  -27.2520 C.2   114  ASN114      0.2266
    154  O          0.1790  -20.2120  -27.2770 O.2   114  ASN114     -0.2867
    155  CB         1.7800  -19.7960  -29.6440 C.3   114  ASN114      0.1155
    156  CG         1.0490  -18.5260  -30.1200 C.2   114  ASN114      0.2627
    157  OD1        0.1570  -18.5730  -30.9580 O.2   114  ASN114     -0.2716
    158  ND2        1.3760  -17.4130  -29.5180 N.am  114  ASN114     -0.0877
    159  N         -1.3170  -16.4540  -24.7330 N.3   116  TYR116     -0.1241
    160  CA        -1.9280  -15.1340  -24.6630 C.3   116  TYR116      0.1605
    161  C         -2.4670  -14.8740  -23.2680 C.2   116  TYR116      0.2264
    162  O         -2.9220  -15.7950  -22.5840 O.2   116  TYR116     -0.2867
    163  CB        -3.0920  -15.0060  -25.6650 C.3   116  TYR116      0.0534
    164  CG        -2.7000  -15.2190  -27.0920 C.ar  116  TYR116     -0.0201
    165  CD1       -2.4480  -16.4800  -27.5880 C.ar  116  TYR116     -0.0009
    166  CD2       -2.5480  -14.1590  -27.9330 C.ar  116  TYR116     -0.0009
    167  CE1       -2.0540  -16.6860  -28.8860 C.ar  116  TYR116      0.0417
    168  CE2       -2.1440  -14.3570  -29.2610 C.ar  116  TYR116      0.0417
    169  CZ        -1.8940  -15.6330  -29.7120 C.ar  116  TYR116      0.1957
    170  OH        -1.4870  -15.8370  -31.0210 O.3   116  TYR116     -0.2866
    171  N        -13.0670  -20.4620  -32.8470 N.3   146  LYS146     -0.1231
    172  CA       -12.6850  -19.7580  -34.0640 C.3   146  LYS146      0.1693
    173  C        -11.3590  -20.2800  -34.6110 C.2   146  LYS146      0.2592
    174  O        -11.2130  -20.5250  -35.8160 O.2   146  LYS146     -0.2718
    175  CB       -12.6060  -18.2640  -33.7720 C.3   146  LYS146      0.0285
    176  CG       -12.2160  -17.4320  -34.9520 C.3   146  LYS146      0.0035
    177  CD       -12.7840  -16.0260  -34.8480 C.3   146  LYS146      0.0206
    178  CE       -12.1490  -15.2630  -33.7040 C.3   146  LYS146      0.1093
    179  NZ       -12.4170  -13.7670  -33.7640 N.3   146  LYS146     -0.1314
    180  N        -10.3800  -20.4760  -33.7350 N.am  147  TRP147     -0.1976
    181  CA        -9.0680  -20.9040  -34.1930 C.3   147  TRP147      0.1640
    182  C         -9.0550  -22.3710  -34.6090 C.2   147  TRP147      0.2290
    183  O         -8.2820  -22.7410  -35.5030 O.2   147  TRP147     -0.2864
    184  CB        -8.0330  -20.6280  -33.0980 C.3   147  TRP147      0.0576
    185  CG        -7.7530  -19.1710  -32.9050 C.ar  147  TRP147      0.0006
    186  CD1       -8.2760  -18.1440  -33.6040 C.ar  147  TRP147      0.0946
    187  CD2       -6.8520  -18.5960  -31.9520 C.ar  147  TRP147      0.0152
    188  NE1       -7.7650  -16.9370  -33.1400 N.ar  147  TRP147     -0.2442
    189  CE2       -6.8840  -17.2020  -32.1250 C.ar  147  TRP147      0.0810
    190  CE3       -6.0320  -19.1280  -30.9640 C.ar  147  TRP147      0.0012
    191  CZ2       -6.1210  -16.3260  -31.3420 C.ar  147  TRP147      0.0191
    192  CZ3       -5.2770  -18.2530  -30.1880 C.ar  147  TRP147      0.0001
    193  CH2       -5.3230  -16.8740  -30.3880 C.ar  147  TRP147      0.0015
    194  N         -5.7330  -22.7750  -37.1220 N.3   152  VAL152     -0.1245
    195  CA        -4.6010  -21.9210  -36.7670 C.3   152  VAL152      0.1561
    196  C         -3.4460  -22.7500  -36.2120 C.2   152  VAL152      0.2260
    197  O         -2.2740  -22.4520  -36.4640 O.2   152  VAL152     -0.2867
    198  CB        -5.0710  -20.8450  -35.7610 C.3   152  VAL152      0.0252
    199  CG1       -3.9020  -20.0470  -35.1950 C.3   152  VAL152      0.0019
    200  CG2       -6.0810  -19.9150  -36.4160 C.3   152  VAL152      0.0019
    201  N         -0.8860  -23.8860  -38.6820 N.3   155  GLN155     -0.1231
    202  CA         0.0290  -22.8350  -39.1040 C.3   155  GLN155      0.1698
    203  C          1.1210  -22.6140  -38.0700 C.2   155  GLN155      0.2592
    204  O          2.2950  -22.4930  -38.4200 O.2   155  GLN155     -0.2718
    205  CB        -0.7230  -21.5360  -39.3340 C.3   155  GLN155      0.0381
    206  CG        -1.8020  -21.5920  -40.3790 C.3   155  GLN155      0.0905
    207  CD        -2.5560  -20.2770  -40.4230 C.2   155  GLN155      0.2608
    208  OE1       -3.3640  -19.9820  -39.5510 O.2   155  GLN155     -0.2717
    209  NE2       -2.2310  -19.4490  -41.3990 N.am  155  GLN155     -0.0878
    210  N          0.7570  -22.5720  -36.7930 N.am  156  LEU156     -0.1980
    211  CA         1.7720  -22.3930  -35.7620 C.3   156  LEU156      0.1596
    212  C          2.7260  -23.5740  -35.7130 C.2   156  LEU156      0.2287
    213  O          3.9390  -23.3900  -35.5980 O.2   156  LEU156     -0.2864
    214  CB         1.1080  -22.1950  -34.4130 C.3   156  LEU156      0.0297
    215  CG         0.5830  -20.7790  -34.2160 C.3   156  LEU156      0.0022
    216  CD1       -0.3970  -20.8210  -33.0880 C.3   156  LEU156      0.0001
    217  CD2        1.7450  -19.7970  -33.9610 C.3   156  LEU156      0.0001
    218  N          5.2790  -23.2650  -38.4730 N.3   159  TYR159     -0.1241
    219  CA         6.2530  -22.2320  -38.1370 C.3   159  TYR159      0.1605
    220  C          7.2090  -22.6930  -37.0410 C.2   159  TYR159      0.2264
    221  O          8.4310  -22.5430  -37.1660 O.2   159  TYR159     -0.2867
    222  CB         5.5320  -20.9510  -37.7110 C.3   159  TYR159      0.0534
    223  CG         6.4650  -19.9520  -37.0660 C.ar  159  TYR159     -0.0201
    224  CD1        7.2720  -19.1220  -37.8370 C.ar  159  TYR159     -0.0009
    225  CD2        6.5630  -19.8660  -35.6890 C.ar  159  TYR159     -0.0009
    226  CE1        8.1670  -18.2200  -37.2450 C.ar  159  TYR159      0.0417
    227  CE2        7.4500  -18.9820  -35.0930 C.ar  159  TYR159      0.0417
    228  CZ         8.2310  -18.1470  -35.8820 C.ar  159  TYR159      0.1957
    229  OH         9.1020  -17.2800  -35.2680 O.3   159  TYR159     -0.2866
    230  N         10.5630  -22.7220  -39.5480 N.3   163  GLU163     -0.1231
    231  CA        11.2420  -21.4280  -39.5610 C.3   163  GLU163      0.1699
    232  C         11.8050  -21.0440  -38.1980 C.2   163  GLU163      0.2592
    233  O         12.9160  -20.5130  -38.1130 O.2   163  GLU163     -0.2718
    234  CB        10.2740  -20.3290  -40.0110 C.3   163  GLU163      0.0402
    235  CG         9.7230  -20.4130  -41.4210 C.3   163  GLU163      0.1161
    236  CD         8.3390  -19.7470  -41.5040 C.2   163  GLU163      0.3649
    237  OE1        7.3310  -20.4830  -41.6390 O.co2 163  GLU163     -0.2457
    238  OE2        8.2580  -18.4910  -41.3850 O.co2 163  GLU163     -0.2457
    239  N         11.0370  -21.2510  -37.1280 N.am  164  CYS164     -0.1970
    240  CA        11.4890  -20.8280  -35.8060 C.3   164  CYS164      0.1712
    241  C         12.8240  -21.4870  -35.4530 C.2   164  CYS164      0.2296
    242  O         13.7900  -20.8170  -35.0770 O.2   164  CYS164     -0.2864
    243  CB        10.4110  -21.1580  -34.7690 C.3   164  CYS164      0.0983
    244  SG        10.7830  -20.4310  -33.1150 S.3   164  CYS164     -0.0798
    245  N         15.7000  -20.3790  -38.0240 N.3   167  TRP167     -0.1241
    246  CA        16.2250  -19.0390  -37.8550 C.3   167  TRP167      0.1605
    247  C         16.9110  -18.8840  -36.5000 C.2   167  TRP167      0.2264
    248  O         17.9300  -18.1920  -36.4060 O.2   167  TRP167     -0.2867
    249  CB        15.1120  -18.0070  -38.0960 C.3   167  TRP167      0.0550
    250  CG        14.9040  -17.8250  -39.5670 C.ar  167  TRP167      0.0003
    251  CD1       14.1850  -18.6430  -40.3950 C.ar  167  TRP167      0.0946
    252  CD2       15.4760  -16.8170  -40.3960 C.ar  167  TRP167      0.0152
    253  NE1       14.2570  -18.1830  -41.6850 N.ar  167  TRP167     -0.2442
    254  CE2       15.0540  -17.0710  -41.7160 C.ar  167  TRP167      0.0810
    255  CE3       16.2950  -15.7150  -40.1500 C.ar  167  TRP167      0.0012
    256  CZ2       15.4210  -16.2570  -42.7890 C.ar  167  TRP167      0.0191
    257  CZ3       16.6640  -14.9100  -41.2200 C.ar  167  TRP167      0.0001
    258  CH2       16.2340  -15.1890  -42.5200 C.ar  167  TRP167      0.0015
    259  N         20.6800  -17.4860  -36.0780 N.3   171  TYR171     -0.1241
    260  CA        21.0790  -16.4240  -35.1600 C.3   171  TYR171      0.1605
    261  C         22.1730  -16.9050  -34.2150 C.2   171  TYR171      0.2264
    262  O         23.1270  -16.1670  -33.9260 O.2   171  TYR171     -0.2867
    263  CB        19.8730  -15.9320  -34.3610 C.3   171  TYR171      0.0534
    264  CG        18.7560  -15.3140  -35.1740 C.ar  171  TYR171     -0.0201
    265  CD1       18.9800  -14.7270  -36.4150 C.ar  171  TYR171     -0.0009
    266  CD2       17.4680  -15.3560  -34.7060 C.ar  171  TYR171     -0.0009
    267  CE1       17.9390  -14.1880  -37.1410 C.ar  171  TYR171      0.0417
    268  CE2       16.4410  -14.8120  -35.4180 C.ar  171  TYR171      0.0417
    269  CZ        16.6700  -14.2330  -36.6330 C.ar  171  TYR171      0.1957
    270  OH        15.5940  -13.7290  -37.3250 O.3   171  TYR171     -0.2866
@<TRIPOS>BOND
     1    47    48    1
     2    59    60    1
     3    63    60    1
     4    63    64    1
     5    65    64    1
     6    65    66    1
     7    60    61    1
     8    48    51    1
     9    48    49    1
    10    66    67    2
    11    51    52    1
    12    49    50    2
    13   256   258   ar
    14   256   254   ar
    15   258   257   ar
    16    61    62    2
    17    61    70   am
    18    67    69    1
    19    67    68    1
    20    98    97    1
    21   254   253   ar
    22   254   252   ar
    23   253   251   ar
    24    52    54   ar
    25    52    53   ar
    26   237   236   ar
    27    70    71    1
    28   236   235    1
    29   236   238   ar
    30   235   234    1
    31   209   207   am
    32    54    56   ar
    33   257   255   ar
    34    79    80    1
    35    84    86    1
    36    84    83    1
    37    53    55   ar
    38    99    97    1
    39    97    94    1
    40   207   206    1
    41   207   208    2
    42   252   255   ar
    43   252   250   ar
    44   251   250   ar
    45   206   205    1
    46    71    72    1
    47    71    74    1
    48   234   231    1
    49    56    57   ar
    50    80    83    1
    51    80    81    1
    52    72    73    2
    53   250   249    1
    54    94    93    1
    55    94    95    1
    56   231   230    1
    57   231   232    1
    58    83    85    1
    59    74    75    1
    60    75    76    1
    61   205   202    1
    62    55    57   ar
    63   202   201    1
    64   202   203    1
    65    57    58    1
    66    78    76   ar
    67    81    82    2
    68    81    87   am
    69    76    77   ar
    70   218   219    1
    71   204   203    2
    72   232   233    2
    73   232   239   am
    74    95    96    2
    75    95   100   am
    76   219   222    1
    77   219   220    1
    78    87    88    1
    79   249   246    1
    80   203   210   am
    81   245   246    1
    82   246   247    1
    83   224   226   ar
    84   224   223   ar
    85    41    40    2
    86   222   223    1
    87    38    39    1
    88   100   101    1
    89   270   269    1
    90   113   112    1
    91    42    43    1
    92    42    39    1
    93   226   228   ar
    94    89    88    1
    95    89    90    2
    96   221   220    2
    97   267   269   ar
    98   267   265   ar
    99   239   240    1
   100   194   195    1
   101   223   225   ar
   102    88    91    1
   103   210   211    1
   104    43    44    1
   105   195   196    1
   106   195   198    1
   107    40    39    1
   108   269   268   ar
   109   247   248    2
   110   197   196    2
   111   200   198    1
   112   265   264   ar
   113    91    92    1
   114   106   105    2
   115    46    45    1
   116   108   109    1
   117   259   260    1
   118   101   104    1
   119   101   102    1
   120   228   229    1
   121   228   227   ar
   122   112   109    1
   123   112   114    1
   124   174   173    2
   125   240   241    1
   126   240   243    1
   127   211   212    1
   128   211   214    1
   129   198   199    1
   130   212   213    2
   131   225   227   ar
   132   105   107   am
   133   105   104    1
   134    44    45    1
   135   109   110    1
   136   183   182    2
   137   241   242    2
   138   268   266   ar
   139   102   103    2
   140   264   266   ar
   141   264   263    1
   142   260   263    1
   143   260   261    1
   144   176   177    1
   145   176   175    1
   146   177   178    1
   147   243   244    1
   148    20    19    1
   149   173   172    1
   150   173   180   am
   151   182   181    1
   152   214   215    1
   153   150   149    1
   154   215   217    1
   155   215   216    1
   156   261   262    2
   157   181   180    1
   158   181   184    1
   159   110   111    2
   160   110   115   am
   161   172   175    1
   162   172   171    1
   163     8     7    1
   164   179   178    1
   165    19    18   ar
   166    19    17   ar
   167   186   188   ar
   168   186   185   ar
   169    18    16   ar
   170   115   116    1
   171     7     6    1
   172   149   147   ar
   173   149   148   ar
   174   188   189   ar
   175   147   145   ar
   176   184   185    1
   177    17    15   ar
   178   185   187   ar
   179    16    14   ar
   180   148   146   ar
   181    29    30   ar
   182    29    27   ar
   183    15    14   ar
   184   189   187   ar
   185   189   191   ar
   186   145   144   ar
   187   121   123   ar
   188   121   120   ar
   189    30    28   ar
   190   187   190   ar
   191   127   128    1
   192   123   125   ar
   193   116   117    1
   194   116   119    1
   195    14    13    1
   196   132   131    1
   197    36    35    1
   198    37    35    1
   199   117   118    2
   200     6     5    1
   201   191   193   ar
   202    35    32    1
   203   119   120    1
   204   146   144   ar
   205    27    26   ar
   206   144   143    1
   207   170   169    1
   208   120   122   ar
   209   190   192   ar
   210   157   156    2
   211    28    26   ar
   212   128   131    1
   213   128   129    1
   214     5     2    1
   215    13    10    1
   216   125   126    1
   217   125   124   ar
   218   193   192   ar
   219    26    25    1
   220   156   155    1
   221   156   158   am
   222   143   140    1
   223    32    31    1
   224    32    33    1
   225    34    33    2
   226   122   124   ar
   227   169   168   ar
   228   169   167   ar
   229   155   152    1
   230   129   130    2
   231    10     9    1
   232    10    11    1
   233     2     3    1
   234     2     1    1
   235   168   166   ar
   236   142   141    2
   237   141   140    1
   238    25    22    1
   239   167   165   ar
   240     3     4    2
   241   140   139    1
   242   138   137    1
   243    11    12    2
   244   152   151    1
   245   152   153    1
   246    22    21    1
   247    22    23    1
   248   166   164   ar
   249   165   164   ar
   250   137   134    1
   251   154   153    2
   252   164   163    1
   253    23    24    2
   254   136   135    2
   255   135   134    1
   256   134   133    1
   257   163   160    1
   258   159   160    1
   259   160   161    1
   260   161   162    2
