@<TRIPOS>MOLECULE
tmp/5ielA00.pdb
 84 81 0 0 0
SMALL
GASTEIGER

@<TRIPOS>ATOM
      1  N          4.3340   11.3690   -8.6080 N.3     1  LYS1       -0.1231
      2  CA         3.4060   11.7090   -9.7310 C.3     1  LYS1        0.1693
      3  C          3.4790   13.2360   -9.9500 C.2     1  LYS1        0.2592
      4  O          3.4260   13.9790   -8.9350 O.2     1  LYS1       -0.2718
      5  CB         1.9580   11.3550   -9.3410 C.3     1  LYS1        0.0285
      6  CG         0.9540   11.7910  -10.3830 C.3     1  LYS1        0.0035
      7  CD        -0.4190   11.2810  -10.0080 C.3     1  LYS1        0.0206
      8  CE        -1.3890   11.7970  -11.0160 C.3     1  LYS1        0.1093
      9  NZ        -2.7570   11.4870  -10.5560 N.3     1  LYS1       -0.1314
     10  N          3.5710   13.6770  -11.2100 N.am    2  VAL2       -0.1966
     11  CA         3.4700   15.0980  -11.5020 C.3     2  VAL2        0.1727
     12  C          2.1000   15.3420  -12.0780 C.2     2  VAL2        0.2616
     13  O          1.7870   14.8530  -13.1750 O.2     2  VAL2       -0.2715
     14  CB         4.5740   15.6080  -12.4450 C.3     2  VAL2        0.0290
     15  CG1        4.4140   17.1080  -12.7400 C.3     2  VAL2        0.0023
     16  CG2        5.9520   15.2690  -11.8550 C.3     2  VAL2        0.0023
     17  N          1.2650   16.0530  -11.3360 N.am    3  PHE3       -0.1974
     18  CA        -0.0600   16.3690  -11.8210 C.3     3  PHE3        0.1639
     19  C         -0.0400   17.5370  -12.7990 C.2     3  PHE3        0.2290
     20  O          0.7420   18.4240  -12.7110 O.2     3  PHE3       -0.2864
     21  CB        -0.9380   16.8620  -10.6480 C.3     3  PHE3        0.0560
     22  CG        -1.4310   15.8410   -9.7370 C.ar    3  PHE3       -0.0200
     23  CD1       -0.6420   15.3460   -8.7210 C.ar    3  PHE3       -0.0042
     24  CD2       -2.7480   15.3760   -9.8540 C.ar    3  PHE3       -0.0042
     25  CE1       -1.1440   14.4200   -7.8450 C.ar    3  PHE3       -0.0003
     26  CE2       -3.2690   14.4560   -8.9600 C.ar    3  PHE3       -0.0003
     27  CZ        -2.4520   13.9420   -7.9520 C.ar    3  PHE3       -0.0000
     28  N         -5.8710   18.4870  -13.3950 N.3     7  GLU7       -0.1245
     29  CA        -5.9540   17.1960  -12.7260 C.3     7  GLU7        0.1567
     30  C         -5.8030   17.3270  -11.2010 C.2     7  GLU7        0.2260
     31  O         -6.5090   16.6980  -10.4080 O.2     7  GLU7       -0.2867
     32  CB        -4.8220   16.3170  -13.2760 C.3     7  GLU7        0.0388
     33  CG        -4.8740   15.9440  -14.7580 C.3     7  GLU7        0.1160
     34  CD        -3.6480   15.1380  -15.2150 C.2     7  GLU7        0.3649
     35  OE1       -2.4570   15.4060  -14.7820 O.co2   7  GLU7       -0.2457
     36  OE2       -3.8800   14.2120  -16.0390 O.co2   7  GLU7       -0.2457
     37  N         -8.4970   16.6570   -8.1640 N.3    11  ALA11      -0.1245
     38  CA        -8.1610   15.7580   -7.0180 C.3    11  ALA11       0.1562
     39  C         -8.3530   16.5040   -5.7060 C.2    11  ALA11       0.2260
     40  O         -8.8960   15.9580   -4.7730 O.2    11  ALA11      -0.2867
     41  CB        -6.7330   15.2130   -7.1640 C.3    11  ALA11       0.0290
     42  N        -11.9340   16.7270   -4.9430 N.3    14  ARG14      -0.1231
     43  CA       -12.4890   15.4740   -4.5680 C.3    14  ARG14       0.1694
     44  C        -12.1020   15.1640   -3.1050 C.2    14  ARG14       0.2592
     45  O        -12.8690   14.5310   -2.3640 O.2    14  ARG14      -0.2718
     46  CB       -11.9730   14.3710   -5.4890 C.3    14  ARG14       0.0321
     47  CG       -12.7020   13.0570   -5.3830 C.3    14  ARG14       0.0489
     48  CD       -12.0000   12.0380   -6.2500 C.3    14  ARG14       0.2205
     49  NE       -10.8180   11.5210   -5.4910 N.pl3  14  ARG14      -0.0865
     50  CZ       -10.8260   10.6540   -4.4210 C.cat  14  ARG14       0.5346
     51  NH1      -11.9700   10.2100   -3.8610 N.pl3  14  ARG14       0.1354
     52  NH2       -9.7110   10.2360   -3.8630 N.pl3  14  ARG14       0.1354
     53  N        -10.9280   15.6070   -2.6860 N.am   15  HIS15      -0.1976
     54  CA       -10.4470   15.3680   -1.3510 C.3    15  HIS15       0.1656
     55  C        -10.9140   16.4690   -0.3530 C.2    15  HIS15       0.2291
     56  O        -10.4370   16.4830    0.8370 O.2    15  HIS15      -0.2864
     57  CB        -8.9020   15.3420   -1.3880 C.3    15  HIS15       0.0771
     58  CG        -8.3410   14.0200   -1.7860 C.ar   15  HIS15       0.0820
     59  ND1       -8.0870   13.6070   -3.1040 N.ar   15  HIS15      -0.2267
     60  CD2       -7.9670   13.0140   -0.9940 C.ar   15  HIS15       0.1154
     61  CE1       -7.5700   12.3830   -3.0750 C.ar   15  HIS15       0.1986
     62  NE2       -7.5520   11.9930   -1.8040 N.ar   15  HIS15      -0.2212
     63  N          1.6820    8.9400   -4.8280 N.3    86  SER86      -0.1202
     64  CA         0.7850    9.3630   -5.8730 C.3    86  SER86       0.2020
     65  C         -0.6360    9.5760   -5.3050 C.2    86  SER86       0.2619
     66  O         -1.3670   10.4260   -5.8720 O.2    86  SER86      -0.2717
     67  CB         0.7980    8.3970   -7.0760 C.3    86  SER86       0.2103
     68  OG         0.2070    7.2090   -6.6630 O.3    86  SER86      -0.2182
     69  N         -0.9860    8.9400   -4.2020 N.am   87  ASP87      -0.1959
     70  CA        -2.2530    9.1340   -3.5330 C.3    87  ASP87       0.1840
     71  C         -2.0660   10.3960   -2.6200 C.2    87  ASP87       0.2621
     72  O         -1.3340   10.3430   -1.6170 O.2    87  ASP87      -0.2715
     73  CB        -2.5170    7.8770   -2.6280 C.3    87  ASP87       0.1450
     74  CG        -3.6990    8.0020   -1.6950 C.2    87  ASP87       0.3671
     75  OD1       -4.4930    9.0160   -1.7970 O.co2  87  ASP87      -0.2456
     76  OD2       -3.8540    7.0940   -0.8190 O.co2  87  ASP87      -0.2456
     77  N         -2.8440   11.4840   -2.9030 N.am   88  ILE88      -0.1977
     78  CA        -2.6260   12.7530   -2.1480 C.3    88  ILE88       0.1596
     79  C         -3.3350   12.7600   -0.8140 C.2    88  ILE88       0.2287
     80  O         -3.2170   13.7330   -0.0800 O.2    88  ILE88      -0.2864
     81  CB        -2.9240   13.9910   -2.9920 C.3    88  ILE88       0.0276
     82  CG1       -4.4290   14.1350   -3.2730 C.3    88  ILE88       0.0022
     83  CG2       -2.0590   14.0490   -4.2380 C.3    88  ILE88       0.0022
     84  CD1       -4.7800   15.5170   -3.8190 C.3    88  ILE88       0.0001
@<TRIPOS>BOND
     1    36    34   ar
     2    34    35   ar
     3    34    33    1
     4    33    32    1
     5    28    29    1
     6    32    29    1
     7    13    12    2
     8    19    20    2
     9    19    18    1
    10    15    14    1
    11    29    30    1
    12    14    16    1
    13    14    11    1
    14    12    11    1
    15    12    17   am
    16    18    17    1
    17    18    21    1
    18    11    10    1
    19    10     3   am
    20    30    31    2
    21     8     9    1
    22     8     7    1
    23    21    22    1
    24     6     7    1
    25     6     5    1
    26     3     2    1
    27     3     4    2
    28    24    22   ar
    29    24    26   ar
    30    22    23   ar
    31     2     5    1
    32     2     1    1
    33    26    27   ar
    34    23    25   ar
    35    37    38    1
    36    27    25   ar
    37    41    38    1
    38    67    68    1
    39    67    64    1
    40    38    39    1
    41    48    49    1
    42    48    47    1
    43    64    65    1
    44    64    63    1
    45    66    65    2
    46    39    40    2
    47    49    50    2
    48    46    47    1
    49    46    43    1
    50    65    69   am
    51    42    43    1
    52    43    44    1
    53    50    52    1
    54    50    51    1
    55    83    81    1
    56    69    70    1
    57    84    82    1
    58    70    73    1
    59    70    71    1
    60    82    81    1
    61    44    53   am
    62    44    45    2
    63    59    61   ar
    64    59    58   ar
    65    61    62   ar
    66    81    78    1
    67    77    71   am
    68    77    78    1
    69    53    54    1
    70    73    74    1
    71    71    72    2
    72    78    79    1
    73    62    60   ar
    74    75    74   ar
    75    58    57    1
    76    58    60   ar
    77    74    76   ar
    78    57    54    1
    79    54    55    1
    80    79    80    2
    81    55    56    2
