@<TRIPOS>MOLECULE
tmp/5ienA00.pdb
 208 193 0 0 0
SMALL
GASTEIGER

@<TRIPOS>ATOM
      1  N         -7.3710    4.8540  -18.8990 N.3    11  LEU11      -0.1245
      2  CA        -6.8860    4.8950  -17.5280 C.3    11  LEU11       0.1561
      3  C         -8.0440    5.0660  -16.5510 C.2    11  LEU11       0.2260
      4  O         -7.9540    4.6510  -15.3990 O.2    11  LEU11      -0.2867
      5  CB        -5.8640    6.0200  -17.3490 C.3    11  LEU11       0.0270
      6  CG        -4.4950    5.8100  -18.0050 C.3    11  LEU11       0.0019
      7  CD1       -3.5850    6.9960  -17.7360 C.3    11  LEU11       0.0001
      8  CD2       -3.8350    4.5230  -17.5240 C.3    11  LEU11       0.0001
      9  N         -9.1310    1.7030  -16.0740 N.3    14  PHE14      -0.1241
     10  CA        -8.0840    1.0870  -15.2640 C.3    14  PHE14       0.1605
     11  C         -8.3730    1.2720  -13.7780 C.2    14  PHE14       0.2264
     12  O         -8.3470    0.3150  -13.0030 O.2    14  PHE14      -0.2867
     13  CB        -6.7260    1.6960  -15.6240 C.3    14  PHE14       0.0534
     14  CG        -5.5460    0.9300  -15.0950 C.ar   14  PHE14      -0.0203
     15  CD1       -5.2240    0.9610  -13.7500 C.ar   14  PHE14      -0.0042
     16  CD2       -4.7390    0.2020  -15.9570 C.ar   14  PHE14      -0.0042
     17  CE1       -4.1300    0.2660  -13.2680 C.ar   14  PHE14      -0.0003
     18  CE2       -3.6440   -0.4940  -15.4820 C.ar   14  PHE14      -0.0003
     19  CZ        -3.3390   -0.4600  -14.1360 C.ar   14  PHE14      -0.0000
     20  N         -3.4460   -4.3080  -20.6270 N.3    30  TYR30      -0.1241
     21  CA        -2.0720   -4.4970  -21.0860 C.3    30  TYR30       0.1605
     22  C         -1.9930   -5.4190  -22.2930 C.2    30  TYR30       0.2264
     23  O         -2.8210   -6.3150  -22.4570 O.2    30  TYR30      -0.2867
     24  CB        -1.2080   -5.0820  -19.9670 C.3    30  TYR30       0.0534
     25  CG        -0.9790   -4.1600  -18.7940 C.ar   30  TYR30      -0.0201
     26  CD1       -1.9220   -4.0410  -17.7830 C.ar   30  TYR30      -0.0009
     27  CD2        0.1920   -3.4210  -18.6870 C.ar   30  TYR30      -0.0009
     28  CE1       -1.7110   -3.2050  -16.7030 C.ar   30  TYR30       0.0417
     29  CE2        0.4130   -2.5830  -17.6110 C.ar   30  TYR30       0.0417
     30  CZ        -0.5420   -2.4800  -16.6230 C.ar   30  TYR30       0.1957
     31  OH        -0.3270   -1.6470  -15.5520 O.3    30  TYR30      -0.2866
     32  N          6.5290   -3.9870  -17.1910 N.3    36  ILE36      -0.1245
     33  CA         6.6110   -2.8740  -16.2550 C.3    36  ILE36       0.1561
     34  C          8.0030   -2.8490  -15.6460 C.2    36  ILE36       0.2260
     35  O          8.4980   -3.8720  -15.1720 O.2    36  ILE36      -0.2867
     36  CB         5.5450   -2.9820  -15.1450 C.3    36  ILE36       0.0252
     37  CG1        4.1450   -2.9620  -15.7700 C.3    36  ILE36       0.0019
     38  CG2        5.7100   -1.8490  -14.1300 C.3    36  ILE36       0.0019
     39  CD1        3.0010   -3.0830  -14.7780 C.3    36  ILE36       0.0001
     40  N          9.7570   -1.0800  -12.7280 N.3    38  PRO38      -0.2116
     41  CA         9.8990   -0.2190  -11.5530 C.3    38  PRO38       0.1372
     42  C         11.3770    0.0280  -11.2740 C.2    38  PRO38       0.2244
     43  O         12.1280   -0.9290  -11.0900 O.2    38  PRO38      -0.2868
     44  CB         9.2290   -1.0200  -10.4290 C.3    38  PRO38       0.0268
     45  CG         8.8400   -2.3650  -11.0340 C.3    38  PRO38       0.0207
     46  CD         9.5300   -2.4830  -12.3500 C.3    38  PRO38       0.0892
     47  N         14.1370   -1.8660   -9.1380 N.3    41  MET41      -0.1245
     48  CA        13.3870   -3.0580   -8.7630 C.3    41  MET41       0.1570
     49  C         13.3380   -4.0280   -9.9410 C.2    41  MET41       0.2261
     50  O         13.7360   -3.6830  -11.0530 O.2    41  MET41      -0.2867
     51  CB        11.9770   -2.6790   -8.3210 C.3    41  MET41       0.0387
     52  CG        11.9060   -2.0040   -6.9620 C.3    41  MET41       0.0595
     53  SD        10.3350   -1.1610   -6.6700 S.3    41  MET41      -0.1393
     54  CE         9.1690   -2.3940   -7.2270 C.3    41  MET41       0.0692
     55  N          0.9650   -8.6460   -9.9300 N.3    53  LEU53      -0.1231
     56  CA         1.4700   -7.4240   -9.3150 C.3    53  LEU53       0.1693
     57  C          0.3310   -6.5930   -8.7360 C.2    53  LEU53       0.2592
     58  O          0.3540   -6.2260   -7.5630 O.2    53  LEU53      -0.2718
     59  CB         2.2600   -6.5960  -10.3340 C.3    53  LEU53       0.0284
     60  CG         2.6490   -5.1750   -9.9160 C.3    53  LEU53       0.0019
     61  CD1        3.5920   -5.2040   -8.7240 C.3    53  LEU53       0.0001
     62  CD2        3.2800   -4.4290  -11.0820 C.3    53  LEU53       0.0001
     63  N         -0.6670   -6.3050   -9.5630 N.am   54  TRP54      -0.1976
     64  CA        -1.7850   -5.4760   -9.1360 C.3    54  TRP54       0.1640
     65  C         -2.6330   -6.1950   -8.0880 C.2    54  TRP54       0.2290
     66  O         -3.1720   -5.5630   -7.1830 O.2    54  TRP54      -0.2864
     67  CB        -2.6360   -5.0750  -10.3400 C.3    54  TRP54       0.0576
     68  CG        -1.9340   -4.0970  -11.2330 C.ar   54  TRP54       0.0006
     69  CD1       -1.4130   -4.3420  -12.4700 C.ar   54  TRP54       0.0946
     70  CD2       -1.6590   -2.7200  -10.9490 C.ar   54  TRP54       0.0152
     71  NE1       -0.8350   -3.2020  -12.9760 N.ar   54  TRP54      -0.2442
     72  CE2       -0.9740   -2.1920  -12.0610 C.ar   54  TRP54       0.0810
     73  CE3       -1.9300   -1.8820   -9.8630 C.ar   54  TRP54       0.0012
     74  CZ2       -0.5560   -0.8640  -12.1190 C.ar   54  TRP54       0.0191
     75  CZ3       -1.5140   -0.5640   -9.9230 C.ar   54  TRP54       0.0001
     76  CH2       -0.8340   -0.0680  -11.0420 C.ar   54  TRP54       0.0015
     77  N         -0.8790   -5.7510   -4.8270 N.3    57  LEU57      -0.1245
     78  CA        -1.1000   -4.4270   -4.2600 C.3    57  LEU57       0.1561
     79  C         -2.4600   -4.3640   -3.5790 C.2    57  LEU57       0.2260
     80  O         -2.5950   -3.7880   -2.4980 O.2    57  LEU57      -0.2867
     81  CB        -0.9980   -3.3520   -5.3430 C.3    57  LEU57       0.0270
     82  CG         0.3960   -3.1410   -5.9420 C.3    57  LEU57       0.0019
     83  CD1        0.3160   -2.2210   -7.1480 C.3    57  LEU57       0.0001
     84  CD2        1.3580   -2.5800   -4.9080 C.3    57  LEU57       0.0001
     85  N         -2.2330   -6.0300   -0.3090 N.3    60  MET60      -0.1245
     86  CA        -1.5020   -5.2000    0.6460 C.3    60  MET60       0.1570
     87  C         -2.3730   -4.1250    1.2840 C.2    60  MET60       0.2261
     88  O         -1.9870   -3.5240    2.2860 O.2    60  MET60      -0.2867
     89  CB        -0.3190   -4.5150   -0.0350 C.3    60  MET60       0.0387
     90  CG         0.8810   -5.3950   -0.2620 C.3    60  MET60       0.0595
     91  SD         2.2560   -4.4240   -0.8970 S.3    60  MET60      -0.1393
     92  CE         2.7560   -3.5500    0.5850 C.3    60  MET60       0.0692
     93  N         -3.4380   -1.5800   -0.6970 N.3    62  VAL62      -0.1245
     94  CA        -3.2380   -0.4100   -1.5470 C.3    62  VAL62       0.1561
     95  C         -4.5670   -0.0320   -2.1990 C.2    62  VAL62       0.2260
     96  O         -5.2700   -0.8970   -2.7220 O.2    62  VAL62      -0.2867
     97  CB        -2.1670   -0.6620   -2.6290 C.3    62  VAL62       0.0252
     98  CG1       -1.9650    0.5800   -3.4920 C.3    62  VAL62       0.0019
     99  CG2       -0.8540   -1.0810   -1.9870 C.3    62  VAL62       0.0019
    100  N         -4.6620    8.9830  -11.0300 N.3    67  LEU67      -0.1245
    101  CA        -3.7370    9.1500  -12.1430 C.3    67  LEU67       0.1561
    102  C         -3.8470   10.5290  -12.7790 C.2    67  LEU67       0.2260
    103  O         -4.9450   10.9950  -13.0860 O.2    67  LEU67      -0.2867
    104  CB        -3.9910    8.0710  -13.1970 C.3    67  LEU67       0.0270
    105  CG        -4.0280    6.6350  -12.6680 C.3    67  LEU67       0.0019
    106  CD1       -4.3620    5.6570  -13.7810 C.3    67  LEU67       0.0001
    107  CD2       -2.7040    6.2710  -12.0130 C.3    67  LEU67       0.0001
    108  N          1.2150    9.4410  -10.3180 N.3    85  ILE85      -0.1245
    109  CA         0.2250    8.6240   -9.6330 C.3    85  ILE85       0.1561
    110  C          0.2920    8.8700   -8.1350 C.2    85  ILE85       0.2260
    111  O          1.3690    9.0840   -7.5810 O.2    85  ILE85      -0.2867
    112  CB         0.4310    7.1180   -9.9190 C.3    85  ILE85       0.0252
    113  CG1       -0.6000    6.2840   -9.1510 C.3    85  ILE85       0.0019
    114  CG2        1.8550    6.6950   -9.5580 C.3    85  ILE85       0.0019
    115  CD1       -0.6030    4.8150   -9.5150 C.3    85  ILE85       0.0001
    116  N         -1.6280    7.2520   -4.4210 N.3    87  LEU87      -0.1245
    117  CA        -2.4820    6.2150   -3.8600 C.3    87  LEU87       0.1561
    118  C         -2.2510    6.0690   -2.3610 C.2    87  LEU87       0.2260
    119  O         -1.3050    6.6340   -1.8110 O.2    87  LEU87      -0.2867
    120  CB        -2.2390    4.8820   -4.5780 C.3    87  LEU87       0.0270
    121  CG        -0.7920    4.5140   -4.9190 C.3    87  LEU87       0.0019
    122  CD1       -0.0360    4.0750   -3.6820 C.3    87  LEU87       0.0001
    123  CD2       -0.7560    3.4290   -5.9840 C.3    87  LEU87       0.0001
    124  N          0.3650    1.0260    2.7630 N.3    90  PRO90      -0.2116
    125  CA         0.9990    0.8660    4.0750 C.3    90  PRO90       0.1372
    126  C          2.4640    1.2930    4.0970 C.2    90  PRO90       0.2244
    127  O          3.2120    0.9920    3.1660 O.2    90  PRO90      -0.2868
    128  CB         0.8760   -0.6360    4.3340 C.3    90  PRO90       0.0268
    129  CG         0.9020   -1.2410    2.9770 C.3    90  PRO90       0.0207
    130  CD         0.1750   -0.2690    2.0860 C.3    90  PRO90       0.0892
    131  N          0.9180    7.8440   -0.8720 N.3    99  ILE99      -0.1245
    132  CA         2.1400    7.4970   -1.5870 C.3    99  ILE99       0.1561
    133  C          2.0370    7.9880   -3.0220 C.2    99  ILE99       0.2260
    134  O          1.0120    7.8060   -3.6760 O.2    99  ILE99      -0.2867
    135  CB         2.3920    5.9760   -1.5620 C.3    99  ILE99       0.0252
    136  CG1        2.4550    5.4810   -0.1140 C.3    99  ILE99       0.0019
    137  CG2        3.6790    5.6290   -2.2960 C.3    99  ILE99       0.0019
    138  CD1        2.3730    3.9840    0.0290 C.3    99  ILE99       0.0001
    139  N          4.1730    8.7850   -6.9730 N.3   101  GLY101     -0.1225
    140  CA         5.1990    8.3200   -7.8840 C.3   101  GLY101      0.1811
    141  C          5.0440    8.9590   -9.2470 C.2   101  GLY101      0.2280
    142  O          4.0360    9.6100   -9.5270 O.2   101  GLY101     -0.2866
    143  N          5.8510    8.4060  -13.6840 N.3   103  TYR103     -0.1241
    144  CA         6.0090    7.3810  -14.7020 C.3   103  TYR103      0.1605
    145  C          6.0330    7.9360  -16.1190 C.2   103  TYR103      0.2264
    146  O          5.4980    9.0100  -16.3980 O.2   103  TYR103     -0.2867
    147  CB         4.8810    6.3510  -14.5870 C.3   103  TYR103      0.0534
    148  CG         3.5130    6.9050  -14.9250 C.ar  103  TYR103     -0.0201
    149  CD1        3.0620    6.9450  -16.2390 C.ar  103  TYR103     -0.0009
    150  CD2        2.6720    7.3880  -13.9310 C.ar  103  TYR103     -0.0009
    151  CE1        1.8160    7.4520  -16.5530 C.ar  103  TYR103      0.0417
    152  CE2        1.4220    7.8970  -14.2360 C.ar  103  TYR103      0.0417
    153  CZ         1.0000    7.9260  -15.5480 C.ar  103  TYR103      0.1957
    154  OH        -0.2430    8.4310  -15.8590 O.3   103  TYR103     -0.2866
    155  N          5.2190    5.9740  -19.9860 N.3   105  GLU105     -0.1245
    156  CA         4.7910    4.7040  -20.5510 C.3   105  GLU105      0.1567
    157  C          4.4050    4.8010  -22.0150 C.2   105  GLU105      0.2260
    158  O          4.0540    5.8660  -22.5250 O.2   105  GLU105     -0.2867
    159  CB         3.6280    4.1200  -19.7440 C.3   105  GLU105      0.0388
    160  CG         2.4750    5.0640  -19.4580 C.3   105  GLU105      0.1160
    161  CD         1.4670    4.4450  -18.5040 C.2   105  GLU105      0.3649
    162  OE1        1.8060    3.4350  -17.8510 O.co2 105  GLU105     -0.2457
    163  OE2        0.3380    4.9630  -18.4020 O.co2 105  GLU105     -0.2457
    164  N         -1.5820   -0.8430  -22.8240 N.3   117  LEU117     -0.1245
    165  CA        -0.2570   -0.5720  -22.2810 C.3   117  LEU117      0.1561
    166  C          0.7610   -1.5970  -22.7670 C.2   117  LEU117      0.2260
    167  O          0.4620   -2.7880  -22.8600 O.2   117  LEU117     -0.2867
    168  CB        -0.2990   -0.5590  -20.7520 C.3   117  LEU117      0.0270
    169  CG        -0.7330    0.7570  -20.1020 C.3   117  LEU117      0.0019
    170  CD1       -0.9710    0.5670  -18.6140 C.3   117  LEU117      0.0001
    171  CD2        0.3070    1.8440  -20.3330 C.3   117  LEU117      0.0001
    172  N          6.0270    0.3920  -19.3490 N.3   120  THR120     -0.1218
    173  CA         5.8970    1.3630  -18.2690 C.3   120  THR120      0.1862
    174  C          7.1810    1.4140  -17.4530 C.2   120  THR120      0.2287
    175  O          7.6890    0.3830  -17.0130 O.2   120  THR120     -0.2866
    176  CB         4.7150    1.0220  -17.3340 C.3   120  THR120      0.1770
    177  OG1        3.4960    0.9820  -18.0840 O.3   120  THR120     -0.2211
    178  CG2        4.5840    2.0550  -16.2230 C.3   120  THR120      0.0375
    179  N          8.5370    3.4050  -14.0300 N.3   122  ALA122     -0.1231
    180  CA         7.9640    4.1450  -12.9150 C.3   122  ALA122      0.1694
    181  C          8.8580    4.1270  -11.6830 C.2   122  ALA122      0.2592
    182  O          9.7270    3.2670  -11.5370 O.2   122  ALA122     -0.2718
    183  CB         6.5960    3.5840  -12.5750 C.3   122  ALA122      0.0304
    184  N          8.6240    5.0930  -10.8000 N.am  123  ASN123     -0.1960
    185  CA         9.3590    5.2090   -9.5460 C.3   123  ASN123      0.1819
    186  C          8.4810    5.7540   -8.4360 C.2   123  ASN123      0.2621
    187  O          7.6560    6.6380   -8.6630 O.2   123  ASN123     -0.2715
    188  CB        10.5740    6.1170   -9.7150 C.3   123  ASN123      0.1195
    189  CG        11.4470    6.1610   -8.4740 C.2   123  ASN123      0.2630
    190  OD1       12.0650    5.1630   -8.1020 O.2   123  ASN123     -0.2716
    191  ND2       11.5000    7.3190   -7.8260 N.am  123  ASN123     -0.0877
    192  N          8.6690    5.2210   -7.2350 N.am  124  LEU124     -0.1977
    193  CA         7.9960    5.7350   -6.0530 C.3   124  LEU124      0.1596
    194  C          8.7930    6.8950   -5.4840 C.2   124  LEU124      0.2287
    195  O          9.9980    6.7790   -5.2610 O.2   124  LEU124     -0.2864
    196  CB         7.8410    4.6400   -4.9980 C.3   124  LEU124      0.0297
    197  CG         6.7090    3.6230   -5.1580 C.3   124  LEU124      0.0022
    198  CD1        6.7360    2.6360   -4.0100 C.3   124  LEU124      0.0001
    199  CD2        5.3570    4.3160   -5.2170 C.3   124  LEU124      0.0001
    200  N          8.2720    1.5120    3.0920 N.3   128  GLU128     -0.1245
    201  CA         8.7300    0.1290    3.1500 C.3   128  GLU128      0.1567
    202  C         10.1470   -0.0110    2.6050 C.2   128  GLU128      0.2260
    203  O         10.5420    0.7020    1.6830 O.2   128  GLU128     -0.2867
    204  CB         7.7810   -0.7820    2.3690 C.3   128  GLU128      0.0388
    205  CG         6.4820   -0.9610    3.1150 C.3   128  GLU128      0.1160
    206  CD         5.7030   -2.2290    2.7600 C.2   128  GLU128      0.3649
    207  OE1        6.0160   -2.9080    1.7710 O.co2 128  GLU128     -0.2457
    208  OE2        4.7830   -2.5480    3.5180 O.co2 128  GLU128     -0.2457
@<TRIPOS>BOND
     1   167   166    2
     2   164   165    1
     3   166   165    1
     4   158   157    2
     5    23    22    2
     6    22    21    1
     7   165   168    1
     8   157   156    1
     9    21    20    1
    10    21    24    1
    11   168   169    1
    12   156   155    1
    13   156   159    1
    14   171   169    1
    15   169   170    1
    16    24    25    1
    17   159   160    1
    18   160   161    1
    19   172   173    1
    20     1     2    1
    21    25    27   ar
    22    25    26   ar
    23    27    29   ar
    24   161   163   ar
    25   161   162   ar
    26   173   174    1
    27   173   176    1
    28   177   176    1
    29     6     7    1
    30     6     8    1
    31     6     5    1
    32    26    28   ar
    33    29    30   ar
    34     2     5    1
    35     2     3    1
    36   174   175    2
    37   176   178    1
    38    32    33    1
    39    28    30   ar
    40    30    31    1
    41   151   149   ar
    42   151   153   ar
    43     3     4    2
    44   146   145    2
    45    33    34    1
    46    33    36    1
    47   149   148   ar
    48   145   144    1
    49     9    10    1
    50    16    18   ar
    51    16    14   ar
    52   154   153    1
    53    37    36    1
    54    37    39    1
    55    34    35    2
    56    13    10    1
    57    13    14    1
    58   153   152   ar
    59    18    19   ar
    60    10    11    1
    61    36    38    1
    62    14    15   ar
    63   148   147    1
    64   148   150   ar
    65   144   147    1
    66   144   143    1
    67   152   150   ar
    68    19    17   ar
    69   179   180    1
    70   106   105    1
    71    11    12    2
    72    15    17   ar
    73   104   105    1
    74   104   101    1
    75   103   102    2
    76    71    69   ar
    77    71    72   ar
    78   180   183    1
    79   180   181    1
    80   102   101    1
    81    40    46    1
    82    40    41    1
    83   105   107    1
    84    69    68   ar
    85    46    45    1
    86   101   100    1
    87    74    72   ar
    88    74    76   ar
    89    72    70   ar
    90   181   182    2
    91   181   184   am
    92    41    42    1
    93    41    44    1
    94    42    43    2
    95    68    70   ar
    96    68    67    1
    97    62    60    1
    98    50    49    2
    99    76    75   ar
   100    45    44    1
   101    70    73   ar
   102   184   185    1
   103    67    64    1
   104    59    60    1
   105    59    56    1
   106   108   109    1
   107    49    48    1
   108    55    56    1
   109    75    73   ar
   110   112   109    1
   111   112   114    1
   112   112   113    1
   113    60    61    1
   114   188   185    1
   115   188   189    1
   116   109   110    1
   117    63    64    1
   118    63    57   am
   119   185   186    1
   120   142   141    2
   121   115   113    1
   122    56    57    1
   123   141   140    1
   124    47    48    1
   125    64    65    1
   126    48    51    1
   127    57    58    2
   128   187   186    2
   129   189   190    2
   130   189   191   am
   131   186   192   am
   132    51    52    1
   133   110   111    2
   134    65    66    2
   135   140   139    1
   136   192   193    1
   137    54    53    1
   138    83    82    1
   139    52    53    1
   140   193   194    1
   141   193   196    1
   142   123   121    1
   143    82    81    1
   144    82    84    1
   145   194   195    2
   146    81    78    1
   147   199   197    1
   148   197   196    1
   149   197   198    1
   150   121   120    1
   151   121   122    1
   152    77    78    1
   153   120   117    1
   154   116   117    1
   155    78    79    1
   156   117   118    1
   157   134   133    2
   158    79    80    2
   159    98    97    1
   160   133   132    1
   161    96    95    2
   162    97    99    1
   163    97    94    1
   164   118   119    2
   165   137   135    1
   166    95    94    1
   167   132   135    1
   168   132   131    1
   169   135   136    1
   170    94    93    1
   171    91    90    1
   172    91    92    1
   173    85    86    1
   174    90    89    1
   175   136   138    1
   176    89    86    1
   177    86    87    1
   178    87    88    2
   179   203   202    2
   180   207   206   ar
   181   130   124    1
   182   130   129    1
   183   204   205    1
   184   204   201    1
   185   202   201    1
   186   206   205    1
   187   206   208   ar
   188   124   125    1
   189   129   128    1
   190   200   201    1
   191   127   126    2
   192   125   126    1
   193   125   128    1
