@<TRIPOS>MOLECULE
tmp/5ievA00.pdb
 171 163 0 0 0
SMALL
GASTEIGER

@<TRIPOS>ATOM
      1  N        -14.2120  -19.4690   -7.4870 N.3     8  GLU8       -0.1245
      2  CA       -13.9650  -18.6810   -6.2890 C.3     8  GLU8        0.1567
      3  C        -14.4380  -17.2570   -6.4320 C.2     8  GLU8        0.2260
      4  O        -14.4770  -16.6970   -7.5080 O.2     8  GLU8       -0.2867
      5  CB       -12.4700  -18.6760   -5.9050 C.3     8  GLU8        0.0388
      6  CG       -11.5260  -18.2250   -7.0230 C.3     8  GLU8        0.1160
      7  CD       -10.0490  -18.1600   -6.6030 C.2     8  GLU8        0.3649
      8  OE1       -9.2360  -17.4680   -7.2690 O.co2   8  GLU8       -0.2457
      9  OE2       -9.6810  -18.8050   -5.6000 O.co2   8  GLU8       -0.2457
     10  N        -13.9560  -13.5740   -6.4050 N.3    10  ILE10      -0.1231
     11  CA       -12.8020  -12.6970   -6.7200 C.3    10  ILE10       0.1692
     12  C        -13.1460  -11.2040   -6.4700 C.2    10  ILE10       0.2593
     13  O        -12.3430  -10.2890   -6.7200 O.2    10  ILE10      -0.2718
     14  CB       -12.3260  -12.8330   -8.2140 C.3    10  ILE10       0.0266
     15  CG1      -13.4780  -12.5480   -9.1970 C.3    10  ILE10       0.0019
     16  CG2      -11.6430  -14.1710   -8.4520 C.3    10  ILE10       0.0020
     17  CD1      -13.1230  -12.8010  -10.6860 C.3    10  ILE10       0.0001
     18  N        -14.3510  -10.9120   -6.0110 N.am   11  GLY11      -0.1942
     19  CA       -14.6630   -9.5240   -5.7440 C.3    11  GLY11       0.2014
     20  C        -16.0640   -9.2760   -5.3230 C.2    11  GLY11       0.2638
     21  O        -16.9460  -10.1370   -5.5000 O.2    11  GLY11      -0.2714
     22  N        -16.2810   -8.0810   -4.7790 N.am   12  GLU12      -0.1977
     23  CA       -17.6440   -7.6150   -4.4710 C.3    12  GLU12       0.1602
     24  C        -17.6970   -6.1100   -4.5660 C.2    12  GLU12       0.2287
     25  O        -16.7420   -5.4270   -4.2340 O.2    12  GLU12      -0.2864
     26  CB       -18.1340   -8.0890   -3.0930 C.3    12  GLU12       0.0415
     27  CG       -19.6700   -8.0420   -2.9740 C.3    12  GLU12       0.1163
     28  CD       -20.2260   -8.5550   -1.6320 C.2    12  GLU12       0.3649
     29  OE1      -19.6610   -9.5330   -1.0790 O.co2  12  GLU12      -0.2457
     30  OE2      -21.2530   -7.9960   -1.1540 O.co2  12  GLU12      -0.2457
     31  N        -18.7370  -11.0700   -7.6870 N.3    18  VAL18      -0.1245
     32  CA       -18.0470  -11.6530   -8.8480 C.3    18  VAL18       0.1561
     33  C        -17.2960  -12.9300   -8.4230 C.2    18  VAL18       0.2260
     34  O        -16.5640  -12.9230   -7.4310 O.2    18  VAL18      -0.2867
     35  CB       -17.0940  -10.6400   -9.5130 C.3    18  VAL18       0.0252
     36  CG1      -16.6060  -11.1450  -10.8650 C.3    18  VAL18       0.0019
     37  CG2      -17.7950   -9.3030   -9.6990 C.3    18  VAL18       0.0019
     38  N        -15.5050  -14.6820  -15.7140 N.3    31  ALA31      -0.1245
     39  CA       -15.9150  -13.9820  -14.5090 C.3    31  ALA31       0.1562
     40  C        -17.4530  -13.8150  -14.5540 C.2    31  ALA31       0.2260
     41  O        -18.0120  -13.3410  -15.5330 O.2    31  ALA31      -0.2867
     42  CB       -15.2160  -12.6340  -14.3650 C.3    31  ALA31       0.0290
     43  N        -20.7480  -12.3240  -12.8180 N.3    33  LYS33      -0.1245
     44  CA       -21.2280  -11.2850  -11.9530 C.3    33  LYS33       0.1561
     45  C        -22.7210  -11.4220  -11.6930 C.2    33  LYS33       0.2260
     46  O        -23.5300  -11.3800  -12.6170 O.2    33  LYS33      -0.2867
     47  CB       -20.9470   -9.9640  -12.5940 C.3    33  LYS33       0.0271
     48  CG       -21.2220   -8.8410  -11.6520 C.3    33  LYS33       0.0035
     49  CD       -20.7610   -7.5550  -12.2350 C.3    33  LYS33       0.0206
     50  CE       -20.4530   -6.6460  -11.0730 C.3    33  LYS33       0.1093
     51  NZ       -20.1190   -5.3190  -11.5990 N.3    33  LYS33      -0.1314
     52  N        -13.1170   -4.7960  -20.7330 N.3    59  VAL59      -0.1245
     53  CA       -13.3740   -6.1840  -20.3990 C.3    59  VAL59       0.1561
     54  C        -14.5730   -6.6840  -21.2220 C.2    59  VAL59       0.2260
     55  O        -15.6400   -6.0980  -21.1700 O.2    59  VAL59      -0.2867
     56  CB       -13.6170   -6.4360  -18.8890 C.3    59  VAL59       0.0252
     57  CG1      -14.9330   -5.7870  -18.4380 C.3    59  VAL59       0.0019
     58  CG2      -13.7260   -7.9140  -18.5910 C.3    59  VAL59       0.0019
     59  N        -18.4040  -12.4720  -18.1170 N.3    75  PHE75      -0.1227
     60  CA       -17.3590  -11.6210  -18.6560 C.3    75  PHE75       0.1736
     61  C        -16.1590  -12.5250  -18.9380 C.2    75  PHE75       0.2595
     62  O        -16.0270  -13.6160  -18.3630 O.2    75  PHE75      -0.2718
     63  CB       -16.9310  -10.5460  -17.6210 C.3    75  PHE75       0.0547
     64  CG       -17.8660   -9.3620  -17.4960 C.ar   75  PHE75      -0.0202
     65  CD1      -17.8630   -8.3490  -18.4350 C.ar   75  PHE75      -0.0042
     66  CD2      -18.7260   -9.2460  -16.4180 C.ar   75  PHE75      -0.0042
     67  CE1      -18.6910   -7.2620  -18.3270 C.ar   75  PHE75      -0.0003
     68  CE2      -19.5830   -8.1610  -16.3090 C.ar   75  PHE75      -0.0003
     69  CZ       -19.5330   -7.1420  -17.2320 C.ar   75  PHE75      -0.0000
     70  N        -15.2580  -12.0530  -19.7820 N.am   76  GLU76      -0.1965
     71  CA       -14.0240  -12.7300  -19.9080 C.3    76  GLU76       0.1733
     72  C        -13.3340  -12.6050  -18.5640 C.2    76  GLU76       0.2616
     73  O        -13.4910  -11.6100  -17.9200 O.2    76  GLU76      -0.2715
     74  CB       -13.1290  -12.1590  -20.9700 C.3    76  GLU76       0.0429
     75  CG       -12.7700  -10.7210  -20.7700 C.3    76  GLU76       0.1163
     76  CD       -11.6830  -10.2230  -21.6990 C.2    76  GLU76       0.3649
     77  OE1      -10.6840  -10.8910  -21.9870 O.co2  76  GLU76      -0.2457
     78  OE2      -11.7440   -9.0660  -22.0230 O.co2  76  GLU76      -0.2457
     79  N        -12.5600  -13.5980  -18.2110 N.am   77  PHE77      -0.1960
     80  CA       -11.6880  -13.5360  -17.0210 C.3    77  PHE77       0.1771
     81  C        -10.3360  -12.8830  -17.2860 C.2    77  PHE77       0.2619
     82  O         -9.6330  -13.2960  -18.1730 O.2    77  PHE77      -0.2715
     83  CB       -11.4240  -14.9950  -16.5510 C.3    77  PHE77       0.0574
     84  CG       -10.6310  -15.0880  -15.2850 C.ar   77  PHE77      -0.0200
     85  CD1      -11.1800  -14.6390  -14.0780 C.ar   77  PHE77      -0.0042
     86  CD2       -9.3460  -15.6050  -15.2970 C.ar   77  PHE77      -0.0042
     87  CE1      -10.4390  -14.6450  -12.9370 C.ar   77  PHE77      -0.0003
     88  CE2       -8.5960  -15.6360  -14.1440 C.ar   77  PHE77      -0.0003
     89  CZ        -9.1340  -15.1420  -12.9630 C.ar   77  PHE77      -0.0000
     90  N         -9.9170  -11.9320  -16.4490 N.am   78  LEU78      -0.1963
     91  CA        -8.5520  -11.4330  -16.4770 C.3    78  LEU78       0.1728
     92  C         -7.8770  -11.9260  -15.2140 C.2    78  LEU78       0.2616
     93  O         -8.4920  -12.1260  -14.1990 O.2    78  LEU78      -0.2715
     94  CB        -8.5110   -9.9240  -16.5510 C.3    78  LEU78       0.0311
     95  CG        -8.7360   -9.2020  -17.8850 C.3    78  LEU78       0.0022
     96  CD1       -7.5360   -9.3440  -18.8070 C.3    78  LEU78       0.0001
     97  CD2      -10.0020   -9.5950  -18.5750 C.3    78  LEU78       0.0001
     98  N         -6.5740  -12.1340  -15.2510 N.am   79  HIS79      -0.1959
     99  CA        -5.9230  -12.7880  -14.1010 C.3    79  HIS79       0.1787
    100  C         -5.4960  -11.9580  -12.9040 C.2    79  HIS79       0.2620
    101  O         -5.2260  -12.5450  -11.8740 O.2    79  HIS79      -0.2715
    102  CB        -4.7390  -13.6100  -14.5660 C.3    79  HIS79       0.0785
    103  CG        -5.1300  -14.9410  -15.1150 C.ar   79  HIS79       0.0821
    104  ND1       -4.8690  -16.1250  -14.4610 N.ar   79  HIS79      -0.2267
    105  CD2       -5.7870  -15.2700  -16.2460 C.ar   79  HIS79       0.1154
    106  CE1       -5.3260  -17.1280  -15.1740 C.ar   79  HIS79       0.1986
    107  NE2       -5.8860  -16.6350  -16.2670 N.ar   79  HIS79      -0.2212
    108  N         -5.4490  -10.6170  -13.0140 N.am   80  GLN80      -0.1963
    109  CA        -5.0780   -9.7820  -11.8570 C.3    80  GLN80       0.1733
    110  C         -5.6820   -8.3760  -11.9630 C.2    80  GLN80       0.2616
    111  O         -5.8830   -7.8870  -13.0490 O.2    80  GLN80      -0.2715
    112  CB        -3.5590   -9.6860  -11.6840 C.3    80  GLN80       0.0408
    113  CG        -3.1240   -9.2530  -10.3220 C.3    80  GLN80       0.0908
    114  CD        -1.6730   -9.5650  -10.0600 C.2    80  GLN80       0.2608
    115  OE1       -0.8170   -8.7170  -10.2250 O.2    80  GLN80      -0.2717
    116  NE2       -1.3820  -10.8010   -9.6710 N.am   80  GLN80      -0.0878
    117  N         -5.9930   -7.7480  -10.8300 N.am   81  ASP81      -0.1971
    118  CA        -6.4290   -6.3480  -10.8900 C.3    81  ASP81       0.1709
    119  C         -5.2290   -5.4700  -10.5680 C.2    81  ASP81       0.2293
    120  O         -4.2030   -5.9630  -10.1020 O.2    81  ASP81      -0.2864
    121  CB        -7.6870   -6.0780  -10.0300 C.3    81  ASP81       0.1436
    122  CG        -7.4200   -6.1320   -8.5520 C.2    81  ASP81       0.3671
    123  OD1       -6.2830   -5.9920   -8.1380 O.co2  81  ASP81      -0.2456
    124  OD2       -8.3630   -6.2890   -7.7680 O.co2  81  ASP81      -0.2456
    125  N         -3.9470   -5.1650   -6.9620 N.3    84  LYS84      -0.1245
    126  CA        -3.0370   -6.2040   -6.5000 C.3    84  LYS84       0.1561
    127  C         -1.6510   -6.0600   -7.0990 C.2    84  LYS84       0.2260
    128  O         -0.6530   -6.2600   -6.4190 O.2    84  LYS84      -0.2867
    129  CB        -3.6150   -7.6260   -6.6790 C.3    84  LYS84       0.0271
    130  CG        -2.6410   -8.7010   -6.2070 C.3    84  LYS84       0.0035
    131  CD        -3.3020  -10.0540   -6.2900 C.3    84  LYS84       0.0206
    132  CE        -2.2440  -11.1400   -6.3350 C.3    84  LYS84       0.1093
    133  NZ        -2.8680  -12.4640   -6.1170 N.3    84  LYS84      -0.1314
    134  N         -9.0800   -1.3960   -8.5110 N.3   126  GLN126     -0.1231
    135  CA        -9.8040   -2.6640   -8.4690 C.3   126  GLN126      0.1698
    136  C        -10.6480   -2.9960   -9.6930 C.2   126  GLN126      0.2592
    137  O        -10.9830   -4.1700   -9.8650 O.2   126  GLN126     -0.2718
    138  CB       -10.7660   -2.7070   -7.2880 C.3   126  GLN126      0.0381
    139  CG       -10.1340   -3.3560   -6.0930 C.3   126  GLN126      0.0905
    140  CD       -11.0260   -3.3140   -4.8490 C.2   126  GLN126      0.2608
    141  OE1      -12.1050   -2.6920   -4.8450 O.2   126  GLN126     -0.2717
    142  NE2      -10.5630   -3.9980   -3.7640 N.am  126  GLN126     -0.0878
    143  N        -11.0240   -1.9650  -10.4750 N.am  127  ASN127     -0.1974
    144  CA       -11.8070   -2.0370  -11.7380 C.3   127  ASN127      0.1688
    145  C        -10.9560   -2.0480  -13.0040 C.2   127  ASN127      0.2292
    146  O        -11.5010   -1.9880  -14.1260 O.2   127  ASN127     -0.2864
    147  CB       -12.7240   -0.7950  -11.8290 C.3   127  ASN127      0.1181
    148  CG       -13.9790   -0.8740  -10.9400 C.2   127  ASN127      0.2629
    149  OD1      -14.4600   -1.9480  -10.5740 O.2   127  ASN127     -0.2716
    150  ND2      -14.5700    0.2740  -10.6980 N.am  127  ASN127     -0.0877
    151  N         -8.0310   -4.1340  -15.0600 N.3   129  LEU129     -0.1245
    152  CA        -7.6540   -5.5620  -15.0450 C.3   129  LEU129      0.1561
    153  C         -6.5340   -5.8330  -16.0110 C.2   129  LEU129      0.2260
    154  O         -6.6010   -5.3440  -17.1010 O.2   129  LEU129     -0.2867
    155  CB        -8.8810   -6.4370  -15.3710 C.3   129  LEU129      0.0270
    156  CG       -10.0850   -6.3140  -14.4000 C.3   129  LEU129      0.0019
    157  CD1      -11.1330   -7.2470  -14.8850 C.3   129  LEU129      0.0001
    158  CD2       -9.7270   -6.5910  -12.9110 C.3   129  LEU129      0.0001
    159  N        -13.1050   -2.4520  -16.4060 N.3   139  ALA139     -0.1231
    160  CA       -14.1770   -3.3470  -16.0640 C.3   139  ALA139      0.1694
    161  C        -15.2530   -2.6120  -15.2690 C.2   139  ALA139      0.2592
    162  O        -15.0050   -1.5650  -14.7010 O.2   139  ALA139     -0.2718
    163  CB       -13.6190   -4.4940  -15.2700 C.3   139  ALA139      0.0304
    164  N        -16.4650   -3.1490  -15.2650 N.am  140  ASP140     -0.1974
    165  CA       -17.4790   -2.8550  -14.1940 C.3   140  ASP140      0.1709
    166  C        -17.9690   -1.4250  -14.3040 C.2   140  ASP140      0.2293
    167  O        -17.8700   -0.6460  -13.3520 O.2   140  ASP140     -0.2864
    168  CB       -16.8960   -3.1790  -12.8000 C.3   140  ASP140      0.1436
    169  CG       -17.8060   -2.8030  -11.6060 C.2   140  ASP140      0.3671
    170  OD1      -19.0260   -2.5470  -11.7280 O.co2 140  ASP140     -0.2456
    171  OD2      -17.2270   -2.7350  -10.4960 O.co2 140  ASP140     -0.2456
@<TRIPOS>BOND
     1    78    76   ar
     2    77    76   ar
     3    76    75    1
     4    54    55    2
     5    54    53    1
     6    74    75    1
     7    74    71    1
     8    52    53    1
     9    53    56    1
    10    71    70    1
    11    71    72    1
    12    70    61   am
    13    61    60    1
    14    61    62    2
    15    56    58    1
    16    56    57    1
    17    96    95    1
    18    60    59    1
    19    60    63    1
    20    97    95    1
    21    72    79   am
    22    72    73    2
    23    65    67   ar
    24    65    64   ar
    25    67    69   ar
    26    79    80    1
    27    82    81    2
    28    95    94    1
    29    63    64    1
    30    64    66   ar
    31    81    80    1
    32    81    90   am
    33    69    68   ar
    34   154   153    2
    35    80    83    1
    36    94    91    1
    37    83    84    1
    38    91    90    1
    39    91    92    1
    40    66    68   ar
    41   159   160    1
    42   107   105   ar
    43   107   106   ar
    44   105   103   ar
    45   160   163    1
    46   160   161    1
    47   153   152    1
    48    38    39    1
    49    41    40    2
    50   155   152    1
    51   155   156    1
    52    86    84   ar
    53    86    88   ar
    54    84    85   ar
    55   161   164   am
    56   161   162    2
    57   164   165    1
    58    98    92   am
    59    98    99    1
    60    92    93    2
    61   106   104   ar
    62   103   102    1
    63   103   104   ar
    64   151   152    1
    65   157   156    1
    66   102    99    1
    67    40    39    1
    68    39    42    1
    69   156   158    1
    70   166   165    1
    71   166   167    2
    72   165   168    1
    73    88    89   ar
    74   146   145    2
    75    99   100    1
    76    85    87   ar
    77   111   110    2
    78   108   100   am
    79   108   109    1
    80   145   144    1
    81    89    87   ar
    82   100   101    2
    83    43    44    1
    84   168   169    1
    85    46    45    2
    86    47    44    1
    87    47    48    1
    88    49    48    1
    89    49    50    1
    90   110   109    1
    91   110   117   am
    92    44    45    1
    93   109   112    1
    94   147   144    1
    95   147   148    1
    96   144   143    1
    97   170   169   ar
    98   112   113    1
    99   169   171   ar
   100    51    50    1
   101   148   150   am
   102   148   149    2
   103   118   117    1
   104   118   119    1
   105   118   121    1
   106    36    35    1
   107    17    15    1
   108   119   120    2
   109   143   136   am
   110   113   114    1
   111   115   114    2
   112   114   116   am
   113   121   122    1
   114   137   136    2
   115    37    35    1
   116   136   135    1
   117    35    32    1
   118    15    14    1
   119    32    33    1
   120    32    31    1
   121   122   123   ar
   122   122   124   ar
   123   134   135    1
   124   135   138    1
   125    16    14    1
   126    33    34    2
   127    14    11    1
   128     4     3    2
   129     1     2    1
   130   138   139    1
   131     8     7   ar
   132   127   126    1
   133   127   128    2
   134     6     7    1
   135     6     5    1
   136   125   126    1
   137    11    12    1
   138    11    10    1
   139    13    12    2
   140   129   126    1
   141   129   130    1
   142     7     9   ar
   143    12    18   am
   144     3     2    1
   145   132   131    1
   146   132   133    1
   147   131   130    1
   148     2     5    1
   149   139   140    1
   150    18    19    1
   151    19    20    1
   152    21    20    2
   153    20    22   am
   154   140   141    2
   155   140   142   am
   156    22    23    1
   157    24    23    1
   158    24    25    2
   159    23    26    1
   160    26    27    1
   161    27    28    1
   162    28    30   ar
   163    28    29   ar
