@<TRIPOS>MOLECULE
tmp/5iexA00.pdb
 162 155 0 0 0
SMALL
GASTEIGER

@<TRIPOS>ATOM
      1  N        -14.3460  -16.4320   -5.2470 N.3     9  LYS9       -0.1231
      2  CA       -14.8890  -15.1110   -5.1640 C.3     9  LYS9        0.1693
      3  C        -13.7140  -14.1750   -5.3740 C.2     9  LYS9        0.2592
      4  O        -12.7170  -14.3060   -4.6990 O.2     9  LYS9       -0.2718
      5  CB       -15.5080  -14.9000   -3.7840 C.3     9  LYS9        0.0285
      6  CG       -16.3150  -13.6070   -3.6510 C.3     9  LYS9        0.0035
      7  CD       -16.5460  -13.2250   -2.1950 C.3     9  LYS9        0.0206
      8  CE       -16.8660  -11.7300   -2.0650 C.3     9  LYS9        0.1093
      9  NZ       -17.2460  -11.3240   -0.6780 N.3     9  LYS9       -0.1314
     10  N        -13.8050  -13.2630   -6.3330 N.am   10  ILE10      -0.1966
     11  CA       -12.6710  -12.3940   -6.6760 C.3    10  ILE10       0.1727
     12  C        -12.9540  -10.9170   -6.3960 C.2    10  ILE10       0.2616
     13  O        -12.0760  -10.0650   -6.5650 O.2    10  ILE10      -0.2715
     14  CB       -12.2160  -12.5610   -8.1700 C.3    10  ILE10       0.0290
     15  CG1      -13.3730  -12.3680   -9.1720 C.3    10  ILE10       0.0022
     16  CG2      -11.5530  -13.9080   -8.3750 C.3    10  ILE10       0.0023
     17  CD1      -12.9590  -12.3670  -10.6650 C.3    10  ILE10       0.0001
     18  N        -14.1690  -10.6120   -5.9620 N.am   11  GLY11      -0.1955
     19  CA       -14.5580   -9.2370   -5.7130 C.3    11  GLY11       0.1869
     20  C        -15.9370   -9.1080   -5.1090 C.2    11  GLY11       0.2309
     21  O        -16.7330  -10.0450   -5.1470 O.2    11  GLY11      -0.2863
     22  N        -18.6100  -10.9200   -7.3170 N.3    18  VAL18      -0.1245
     23  CA       -17.9850  -11.3670   -8.5520 C.3    18  VAL18       0.1561
     24  C        -17.1820  -12.6270   -8.3020 C.2    18  VAL18       0.2260
     25  O        -16.3560  -12.6560   -7.3930 O.2    18  VAL18      -0.2867
     26  CB       -17.0650  -10.3020   -9.1670 C.3    18  VAL18       0.0252
     27  CG1      -16.6280  -10.7740  -10.5380 C.3    18  VAL18       0.0019
     28  CG2      -17.7810   -8.9740   -9.2580 C.3    18  VAL18       0.0019
     29  N        -15.3580  -14.3650  -15.6200 N.3    31  ALA31      -0.1245
     30  CA       -15.7570  -13.6430  -14.4510 C.3    31  ALA31       0.1562
     31  C        -17.2600  -13.4620  -14.4790 C.2    31  ALA31       0.2260
     32  O        -17.8330  -12.8800  -15.4160 O.2    31  ALA31      -0.2867
     33  CB       -15.0700  -12.2920  -14.3950 C.3    31  ALA31       0.0290
     34  N        -20.7000  -12.0180  -12.7010 N.3    33  LYS33      -0.1245
     35  CA       -21.1690  -10.9900  -11.7990 C.3    33  LYS33       0.1561
     36  C        -22.6530  -11.1560  -11.5900 C.2    33  LYS33       0.2260
     37  O        -23.4130  -11.0900  -12.5450 O.2    33  LYS33      -0.2867
     38  CB       -20.8510   -9.6260  -12.3930 C.3    33  LYS33       0.0271
     39  CG       -21.1870   -8.4620  -11.5020 C.3    33  LYS33       0.0035
     40  CD       -21.0290   -7.1540  -12.2540 C.3    33  LYS33       0.0206
     41  CE       -20.0850   -6.2070  -11.5300 C.3    33  LYS33       0.1093
     42  NZ       -18.6800   -6.4540  -11.9530 N.3    33  LYS33      -0.1314
     43  N        -12.9310   -4.5140  -20.7840 N.3    59  VAL59      -0.1245
     44  CA       -13.2190   -5.9100  -20.4530 C.3    59  VAL59       0.1561
     45  C        -14.4310   -6.3480  -21.2440 C.2    59  VAL59       0.2260
     46  O        -15.5030   -5.7160  -21.1780 O.2    59  VAL59      -0.2867
     47  CB       -13.4950   -6.1130  -18.9610 C.3    59  VAL59       0.0252
     48  CG1      -13.8710   -7.5590  -18.6120 C.3    59  VAL59       0.0019
     49  CG2      -12.2600   -5.7120  -18.1960 C.3    59  VAL59       0.0019
     50  N        -18.2870  -11.8670  -17.9510 N.3    75  PHE75      -0.1227
     51  CA       -17.1880  -11.0590  -18.5010 C.3    75  PHE75       0.1736
     52  C        -16.0220  -11.9690  -18.8300 C.2    75  PHE75       0.2595
     53  O        -15.9030  -13.0590  -18.2650 O.2    75  PHE75      -0.2718
     54  CB       -16.7410  -10.0000  -17.4580 C.3    75  PHE75       0.0547
     55  CG       -17.6800   -8.8270  -17.3270 C.ar   75  PHE75      -0.0202
     56  CD1      -17.6430   -7.7840  -18.2390 C.ar   75  PHE75      -0.0042
     57  CD2      -18.5830   -8.7460  -16.2680 C.ar   75  PHE75      -0.0042
     58  CE1      -18.4950   -6.6960  -18.1130 C.ar   75  PHE75      -0.0003
     59  CE2      -19.4410   -7.6600  -16.1360 C.ar   75  PHE75      -0.0003
     60  CZ       -19.3970   -6.6370  -17.0620 C.ar   75  PHE75      -0.0000
     61  N        -15.1490  -11.5240  -19.7330 N.am   76  GLU76      -0.1965
     62  CA       -13.8280  -12.1480  -19.8970 C.3    76  GLU76       0.1733
     63  C        -13.0550  -12.0150  -18.6010 C.2    76  GLU76       0.2616
     64  O        -13.2100  -11.0390  -17.8710 O.2    76  GLU76      -0.2715
     65  CB       -13.0180  -11.5450  -21.0480 C.3    76  GLU76       0.0429
     66  CG       -12.5220  -10.1300  -20.8130 C.3    76  GLU76       0.1163
     67  CD       -11.4840   -9.6790  -21.8250 C.2    76  GLU76       0.3649
     68  OE1      -10.5230  -10.4430  -22.0840 O.co2  76  GLU76      -0.2457
     69  OE2      -11.6020   -8.5380  -22.3300 O.co2  76  GLU76      -0.2457
     70  N        -12.3020  -13.0560  -18.2850 N.am   77  PHE77      -0.1960
     71  CA       -11.4760  -13.1040  -17.0900 C.3    77  PHE77       0.1771
     72  C        -10.0500  -12.6290  -17.3840 C.2    77  PHE77       0.2619
     73  O         -9.4280  -13.1250  -18.3100 O.2    77  PHE77      -0.2715
     74  CB       -11.4620  -14.5570  -16.5420 C.3    77  PHE77       0.0574
     75  CG       -10.6400  -14.7280  -15.2970 C.ar   77  PHE77      -0.0200
     76  CD1      -11.1450  -14.3130  -14.0520 C.ar   77  PHE77      -0.0042
     77  CD2       -9.3530  -15.2250  -15.3670 C.ar   77  PHE77      -0.0042
     78  CE1      -10.3930  -14.4450  -12.9120 C.ar   77  PHE77      -0.0003
     79  CE2       -8.5950  -15.3680  -14.2110 C.ar   77  PHE77      -0.0003
     80  CZ        -9.1150  -14.9710  -12.9810 C.ar   77  PHE77      -0.0000
     81  N         -9.5600  -11.6560  -16.6070 N.am   78  LEU78      -0.1963
     82  CA        -8.1540  -11.2540  -16.5750 C.3    78  LEU78       0.1728
     83  C         -7.5950  -11.7260  -15.2350 C.2    78  LEU78       0.2616
     84  O         -8.3580  -11.9820  -14.3060 O.2    78  LEU78      -0.2715
     85  CB        -7.9900   -9.7430  -16.7660 C.3    78  LEU78       0.0311
     86  CG        -8.0830   -9.3770  -18.2910 C.3    78  LEU78       0.0022
     87  CD1       -9.5200   -9.1650  -18.7160 C.3    78  LEU78       0.0001
     88  CD2       -7.2190   -8.1900  -18.6660 C.3    78  LEU78       0.0001
     89  N         -6.2770  -11.9030  -15.1270 N.am   79  HIS79      -0.1959
     90  CA        -5.7340  -12.6340  -13.9600 C.3    79  HIS79       0.1787
     91  C         -5.3210  -11.8290  -12.7660 C.2    79  HIS79       0.2620
     92  O         -5.1760  -12.3960  -11.6570 O.2    79  HIS79      -0.2715
     93  CB        -4.5800  -13.5410  -14.3440 C.3    79  HIS79       0.0785
     94  CG        -5.0160  -14.8490  -14.9050 C.ar   79  HIS79       0.0821
     95  ND1       -4.8230  -16.0420  -14.2490 N.ar   79  HIS79      -0.2267
     96  CD2       -5.6540  -15.1480  -16.0550 C.ar   79  HIS79       0.1154
     97  CE1       -5.3130  -17.0210  -14.9770 C.ar   79  HIS79       0.1986
     98  NE2       -5.8100  -16.5070  -16.0840 N.ar   79  HIS79      -0.2212
     99  N         -5.1500  -10.5220  -12.9420 N.am   80  GLN80      -0.1963
    100  CA        -4.8370   -9.6830  -11.7780 C.3    80  GLN80       0.1733
    101  C         -5.4370   -8.2690  -11.9460 C.2    80  GLN80       0.2616
    102  O         -5.6400   -7.8190  -13.0870 O.2    80  GLN80      -0.2715
    103  CB        -3.3330   -9.6090  -11.5810 C.3    80  GLN80       0.0408
    104  CG        -2.8930   -9.1110  -10.2090 C.3    80  GLN80       0.0908
    105  CD        -1.4470   -9.3990   -9.9440 C.2    80  GLN80       0.2608
    106  OE1       -0.6100   -8.5140  -10.0620 O.2    80  GLN80      -0.2717
    107  NE2       -1.1330  -10.6480   -9.6000 N.am   80  GLN80      -0.0878
    108  N         -5.7380   -7.6080  -10.8260 N.am   81  ASP81      -0.1971
    109  CA        -6.1690   -6.1810  -10.8820 C.3    81  ASP81       0.1709
    110  C         -5.0070   -5.2500  -10.5940 C.2    81  ASP81       0.2293
    111  O         -3.9830   -5.6760  -10.0940 O.2    81  ASP81      -0.2864
    112  CB        -7.4200   -5.9130  -10.0280 C.3    81  ASP81       0.1436
    113  CG        -7.1780   -5.9610   -8.5010 C.2    81  ASP81       0.3671
    114  OD1       -6.0720   -5.7190   -8.0210 O.co2  81  ASP81      -0.2456
    115  OD2       -8.1510   -6.1520   -7.7720 O.co2  81  ASP81      -0.2456
    116  N         -3.7650   -5.1350   -6.5980 N.3    84  LYS84      -0.1245
    117  CA        -2.8130   -6.2040   -6.2460 C.3    84  LYS84       0.1561
    118  C         -1.4340   -6.0110   -6.8980 C.2    84  LYS84       0.2260
    119  O         -0.4030   -6.2080   -6.2700 O.2    84  LYS84      -0.2867
    120  CB        -3.3500   -7.5920   -6.5970 C.3    84  LYS84       0.0271
    121  CG        -2.3770   -8.7000   -6.2070 C.3    84  LYS84       0.0035
    122  CD        -3.0690  -10.0410   -6.2020 C.3    84  LYS84       0.0206
    123  CE        -2.1120  -11.2060   -5.9440 C.3    84  LYS84       0.1093
    124  NZ        -2.9580  -12.4270   -5.9450 N.3    84  LYS84      -0.1314
    125  N         -9.0570   -1.3000   -8.4990 N.3   126  GLN126     -0.1231
    126  CA        -9.7400   -2.6190   -8.5250 C.3   126  GLN126      0.1698
    127  C        -10.5890   -2.8340   -9.7730 C.2   126  GLN126      0.2592
    128  O        -10.9780   -3.9810  -10.0450 O.2   126  GLN126     -0.2718
    129  CB       -10.6030   -2.8600   -7.2760 C.3   126  GLN126      0.0381
    130  CG        -9.8430   -3.4700   -6.1120 C.3   126  GLN126      0.0905
    131  CD       -10.3100   -2.9240   -4.7760 C.2   126  GLN126      0.2608
    132  OE1      -10.7660   -1.7710   -4.6780 O.2   126  GLN126     -0.2717
    133  NE2      -10.2000   -3.7420   -3.7420 N.am  126  GLN126     -0.0878
    134  N        -10.8740   -1.7600  -10.5290 N.am  127  ASN127     -0.1974
    135  CA       -11.5900   -1.8330  -11.8180 C.3   127  ASN127      0.1688
    136  C        -10.6660   -1.8900  -13.0370 C.2   127  ASN127      0.2292
    137  O        -11.1490   -1.8320  -14.1400 O.2   127  ASN127     -0.2864
    138  CB       -12.5130   -0.5850  -12.0010 C.3   127  ASN127      0.1181
    139  CG       -13.7460   -0.6470  -11.1250 C.2   127  ASN127      0.2629
    140  OD1      -14.0440   -1.6840  -10.5210 O.2   127  ASN127     -0.2716
    141  ND2      -14.4670    0.4390  -11.0440 N.am  127  ASN127     -0.0877
    142  N         -7.7370   -3.9390  -14.9770 N.3   129  LEU129     -0.1245
    143  CA        -7.3180   -5.3620  -15.0110 C.3   129  LEU129      0.1561
    144  C         -6.2010   -5.6060  -15.9980 C.2   129  LEU129      0.2260
    145  O         -6.2710   -5.1670  -17.1280 O.2   129  LEU129     -0.2867
    146  CB        -8.4970   -6.2790  -15.3740 C.3   129  LEU129      0.0270
    147  CG        -9.7360   -6.0770  -14.5320 C.3   129  LEU129      0.0019
    148  CD1      -10.8310   -7.0840  -14.8850 C.3   129  LEU129      0.0001
    149  CD2       -9.3650   -6.2030  -13.0340 C.3   129  LEU129      0.0001
    150  N        -12.7810   -2.3850  -16.4210 N.3   139  ALA139     -0.1231
    151  CA       -13.9840   -3.1870  -16.0640 C.3   139  ALA139      0.1694
    152  C        -15.1010   -2.2930  -15.4960 C.2   139  ALA139      0.2592
    153  O        -14.7750   -1.2960  -14.8360 O.2   139  ALA139     -0.2718
    154  CB       -13.6010   -4.2260  -15.0190 C.3   139  ALA139      0.0304
    155  N        -16.3770   -2.6830  -15.7110 N.am  140  ASP140     -0.1974
    156  CA       -17.6180   -1.9530  -15.2560 C.3   140  ASP140      0.1709
    157  C        -17.9940   -0.6430  -15.9450 C.2   140  ASP140      0.2293
    158  O        -18.7570    0.1490  -15.3870 O.2   140  ASP140     -0.2864
    159  CB       -17.6140   -1.7240  -13.7400 C.3   140  ASP140      0.1436
    160  CG       -17.4390   -3.0150  -12.9790 C.2   140  ASP140      0.3671
    161  OD1      -17.3510   -4.0390  -13.6980 O.co2 140  ASP140     -0.2456
    162  OD2      -17.4310   -3.0260  -11.7120 O.co2 140  ASP140     -0.2456
@<TRIPOS>BOND
     1    69    67   ar
     2    68    67   ar
     3    67    66    1
     4    45    46    2
     5    45    44    1
     6    65    66    1
     7    65    62    1
     8    43    44    1
     9    44    47    1
    10    62    61    1
    11    62    63    1
    12    61    52   am
    13    47    48    1
    14    47    49    1
    15    52    51    1
    16    52    53    2
    17    87    86    1
    18    88    86    1
    19    63    70   am
    20    63    64    2
    21    51    50    1
    22    51    54    1
    23    73    72    2
    24    86    85    1
    25    70    71    1
    26    56    58   ar
    27    56    55   ar
    28    58    60   ar
    29    54    55    1
    30    72    71    1
    31    72    81   am
    32    55    57   ar
    33   145   144    2
    34    71    74    1
    35    60    59   ar
    36    85    82    1
    37    81    82    1
    38    82    83    1
    39    74    75    1
    40   150   151    1
    41    57    59   ar
    42    98    96   ar
    43    98    97   ar
    44   151   152    1
    45   151   154    1
    46    96    94   ar
    47   144   143    1
    48   157   158    2
    49   157   156    1
    50   155   152   am
    51   155   156    1
    52    29    30    1
    53   152   153    2
    54    32    31    2
    55   146   143    1
    56   146   147    1
    57    77    75   ar
    58    77    79   ar
    59    75    76   ar
    60   156   159    1
    61    83    89   am
    62    83    84    2
    63    89    90    1
    64   143   142    1
    65    97    95   ar
    66    94    93    1
    67    94    95   ar
    68   148   147    1
    69   147   149    1
    70    31    30    1
    71    30    33    1
    72    93    90    1
    73    79    80   ar
    74   137   136    2
    75    76    78   ar
    76    90    91    1
    77   159   160    1
    78   161   160   ar
    79   102   101    2
    80   136   135    1
    81    80    78   ar
    82   160   162   ar
    83    99    91   am
    84    99   100    1
    85    91    92    2
    86    34    35    1
    87    37    36    2
    88    38    35    1
    89    38    39    1
    90    40    41    1
    91    40    39    1
    92   138   135    1
    93   138   139    1
    94    42    41    1
    95   101   100    1
    96   101   108   am
    97   135   134    1
    98    35    36    1
    99   100   103    1
   100   103   104    1
   101   139   141   am
   102   139   140    2
   103   109   108    1
   104   109   110    1
   105   109   112    1
   106    17    15    1
   107   110   111    2
   108    27    26    1
   109   134   127   am
   110   104   105    1
   111   106   105    2
   112   128   127    2
   113   112   113    1
   114   105   107   am
   115   127   126    1
   116    28    26    1
   117    15    14    1
   118    26    23    1
   119    23    24    1
   120    23    22    1
   121   126   125    1
   122   126   129    1
   123   113   114   ar
   124   113   115   ar
   125    16    14    1
   126    24    25    2
   127    14    11    1
   128   129   130    1
   129   118   119    2
   130   118   117    1
   131    11    12    1
   132    11    10    1
   133   116   117    1
   134   120   117    1
   135   120   121    1
   136    13    12    2
   137    12    18   am
   138    10     3   am
   139   121   122    1
   140   122   123    1
   141   130   131    1
   142    18    19    1
   143   124   123    1
   144    19    20    1
   145     3     2    1
   146     3     4    2
   147     1     2    1
   148     2     5    1
   149    21    20    2
   150   131   132    2
   151   131   133   am
   152     5     6    1
   153     6     7    1
   154     7     8    1
   155     8     9    1
