@<TRIPOS>MOLECULE
tmp/5iezA00.pdb
 166 155 0 0 0
SMALL
GASTEIGER

@<TRIPOS>ATOM
      1  N          0.6390  -11.5020   23.0800 N.3    54  HIS54      -0.1241
      2  CA         1.5240  -12.5230   23.6260 C.3    54  HIS54       0.1621
      3  C          1.0830  -13.1120   24.9680 C.2    54  HIS54       0.2264
      4  O          1.9390  -13.6100   25.7060 O.2    54  HIS54      -0.2867
      5  CB         2.9230  -11.9360   23.7920 C.3    54  HIS54       0.0745
      6  CG         3.6430  -11.7020   22.5040 C.ar   54  HIS54       0.0817
      7  ND1        3.0210  -11.2030   21.3780 N.ar   54  HIS54      -0.2268
      8  CD2        4.9400  -11.8960   22.1670 C.ar   54  HIS54       0.1154
      9  CE1        3.9050  -11.1030   20.4010 C.ar   54  HIS54       0.1986
     10  NE2        5.0740  -11.5200   20.8560 N.ar   54  HIS54      -0.2212
     11  N          2.3990  -16.8310   26.1040 N.3    57  ALA57      -0.1231
     12  CA         3.8240  -16.8710   26.4290 C.3    57  ALA57       0.1694
     13  C          4.1250  -16.1130   27.7190 C.2    57  ALA57       0.2592
     14  O          4.9940  -16.5230   28.4980 O.2    57  ALA57      -0.2718
     15  CB         4.6450  -16.3160   25.2710 C.3    57  ALA57       0.0304
     16  N          3.4350  -14.9910   27.9510 N.am   58  PHE58      -0.1976
     17  CA         3.6670  -14.2090   29.1660 C.3    58  PHE58       0.1639
     18  C          3.1730  -14.9690   30.3890 C.2    58  PHE58       0.2290
     19  O          3.8010  -14.9430   31.4500 O.2    58  PHE58      -0.2864
     20  CB         2.9520  -12.8540   29.0760 C.3    58  PHE58       0.0560
     21  CG         3.6130  -11.8610   28.1600 C.ar   58  PHE58      -0.0200
     22  CD1        4.8030  -12.1540   27.5200 C.ar   58  PHE58      -0.0042
     23  CD2        3.0350  -10.6160   27.9390 C.ar   58  PHE58      -0.0042
     24  CE1        5.4090  -11.2260   26.6660 C.ar   58  PHE58      -0.0003
     25  CE2        3.6390   -9.6750   27.0840 C.ar   58  PHE58      -0.0003
     26  CZ         4.8250   -9.9860   26.4490 C.ar   58  PHE58      -0.0000
     27  N          5.7410  -17.7710   31.0310 N.3    61  MET61      -0.1245
     28  CA         6.9910  -17.3270   31.6320 C.3    61  MET61       0.1570
     29  C          6.7490  -16.7850   33.0360 C.2    61  MET61       0.2261
     30  O          7.4830  -17.1130   33.9740 O.2    61  MET61      -0.2867
     31  CB         7.6470  -16.2870   30.7250 C.3    61  MET61       0.0387
     32  CG         8.7680  -15.4880   31.3500 C.3    61  MET61       0.0595
     33  SD        10.1830  -16.5230   31.8050 S.3    61  MET61      -0.1393
     34  CE        11.1630  -16.4710   30.3110 C.3    61  MET61       0.0692
     35  N          8.2190  -18.3280   36.5710 N.3    65  LEU65      -0.1245
     36  CA         9.1190  -17.5410   37.4050 C.3    65  LEU65       0.1561
     37  C          8.8230  -17.7030   38.8940 C.2    65  LEU65       0.2260
     38  O          9.7590  -17.6390   39.6950 O.2    65  LEU65      -0.2867
     39  CB         9.1020  -16.0640   37.0020 C.3    65  LEU65       0.0270
     40  CG         9.6860  -15.7890   35.6070 C.3    65  LEU65       0.0019
     41  CD1        9.4460  -14.3680   35.1170 C.3    65  LEU65       0.0001
     42  CD2       11.1480  -16.1650   35.5290 C.3    65  LEU65       0.0001
     43  N         15.2640  -12.7770   39.0450 N.3    76  LEU76      -0.1245
     44  CA        14.4870  -12.6750   37.8160 C.3    76  LEU76       0.1561
     45  C         15.3140  -12.0230   36.7380 C.2    76  LEU76       0.2260
     46  O         15.1760  -12.3410   35.5500 O.2    76  LEU76      -0.2867
     47  CB        13.2330  -11.8420   38.0430 C.3    76  LEU76       0.0270
     48  CG        12.0110  -12.4790   38.6640 C.3    76  LEU76       0.0019
     49  CD1       10.9450  -11.3920   38.8660 C.3    76  LEU76       0.0001
     50  CD2       11.5450  -13.5740   37.7440 C.3    76  LEU76       0.0001
     51  N         16.9910  -14.1950   34.1160 N.3    79  VAL79      -0.1231
     52  CA        16.2920  -14.7470   32.9620 C.3    79  VAL79       0.1692
     53  C         15.9870  -13.6490   31.9390 C.2    79  VAL79       0.2591
     54  O         16.1680  -13.8570   30.7310 O.2    79  VAL79      -0.2718
     55  CB        15.0640  -15.5940   33.4000 C.3    79  VAL79       0.0266
     56  CG1       14.1340  -14.8500   34.2950 C.3    79  VAL79       0.0020
     57  CG2       14.3130  -16.1920   32.1810 C.3    79  VAL79       0.0020
     58  N         15.6420  -12.4340   32.3900 N.am   80  MET80      -0.1979
     59  CA        15.3690  -11.3640   31.4300 C.3    80  MET80       0.1605
     60  C         16.6290  -10.9120   30.6920 C.2    80  MET80       0.2287
     61  O         16.5760  -10.6560   29.4870 O.2    80  MET80      -0.2864
     62  CB        14.6420  -10.1750   32.0660 C.3    80  MET80       0.0413
     63  CG        15.3080   -9.2250   33.0770 C.3    80  MET80       0.0598
     64  SD        14.5980   -7.5220   32.8720 S.3    80  MET80      -0.1393
     65  CE        15.4050   -6.5530   34.1330 C.3    80  MET80       0.0692
     66  N         17.2240  -13.4460   28.0580 N.3    83  VAL83      -0.1231
     67  CA        16.2800  -13.3830   26.9400 C.3    83  VAL83       0.1692
     68  C         16.3930  -12.1140   26.1020 C.2    83  VAL83       0.2592
     69  O         16.0940  -12.1480   24.8960 O.2    83  VAL83      -0.2718
     70  CB        14.8390  -13.5180   27.4630 C.3    83  VAL83       0.0266
     71  CG1       13.8090  -13.3490   26.3290 C.3    83  VAL83       0.0020
     72  CG2       14.6670  -14.8800   28.1550 C.3    83  VAL83       0.0020
     73  N         16.9050  -11.0180   26.6650 N.am   84  PHE84      -0.1976
     74  CA        16.8050   -9.7430   25.9740 C.3    84  PHE84       0.1639
     75  C         18.0870   -9.2600   25.3220 C.2    84  PHE84       0.2290
     76  O         18.0080   -8.6310   24.2680 O.2    84  PHE84      -0.2864
     77  CB        16.3260   -8.6520   26.9470 C.3    84  PHE84       0.0560
     78  CG        16.4090   -7.2400   26.3840 C.ar   84  PHE84      -0.0200
     79  CD1       17.4310   -6.3800   26.7610 C.ar   84  PHE84      -0.0042
     80  CD2       15.4770   -6.7950   25.4710 C.ar   84  PHE84      -0.0042
     81  CE1       17.5160   -5.0860   26.2440 C.ar   84  PHE84      -0.0003
     82  CE2       15.5480   -5.5130   24.9530 C.ar   84  PHE84      -0.0003
     83  CZ        16.5690   -4.6520   25.3440 C.ar   84  PHE84      -0.0000
     84  N         20.4310  -10.9050   21.1920 N.3    87  GLY87      -0.1210
     85  CA        20.0410  -10.7630   19.7950 C.3    87  GLY87       0.1956
     86  C         20.0820   -9.3710   19.1600 C.2    87  GLY87       0.2611
     87  O         21.0060   -8.5710   19.3480 O.2    87  GLY87      -0.2717
     88  N         19.0730   -9.1110   18.3460 N.am   88  VAL88      -0.1979
     89  CA        18.9480   -7.8720   17.5990 C.3    88  VAL88       0.1595
     90  C         18.3900   -6.7830   18.5130 C.2    88  VAL88       0.2287
     91  O         17.4840   -7.0270   19.3140 O.2    88  VAL88      -0.2864
     92  CB        18.0290   -8.1140   16.3900 C.3    88  VAL88       0.0276
     93  CG1       17.3460   -6.8240   15.9280 C.3    88  VAL88       0.0022
     94  CG2       18.7920   -8.7550   15.2860 C.3    88  VAL88       0.0022
     95  N         16.2710   -3.3600   18.5910 N.3    90  ASN90      -0.1240
     96  CA        15.3360   -2.5130   17.8540 C.3    90  ASN90       0.1653
     97  C         14.2400   -2.0580   18.8140 C.2    90  ASN90       0.2266
     98  O         14.1690   -2.5190   19.9580 O.2    90  ASN90      -0.2867
     99  CB        14.7990   -3.2450   16.6190 C.3    90  ASN90       0.1155
    100  CG        14.0410   -4.5220   16.9610 C.2    90  ASN90       0.2627
    101  OD1       13.3590   -4.6100   17.9750 O.2    90  ASN90      -0.2716
    102  ND2       14.1710   -5.5280   16.0980 N.am   90  ASN90      -0.0877
    103  N         11.6380   -4.7940   20.2470 N.3    93  ARG93      -0.1245
    104  CA        12.1010   -5.7090   21.2840 C.3    93  ARG93       0.1563
    105  C         12.1520   -5.0230   22.6470 C.2    93  ARG93       0.2260
    106  O         11.7860   -5.6290   23.6670 O.2    93  ARG93      -0.2867
    107  CB        13.4550   -6.2760   20.8570 C.3    93  ARG93       0.0307
    108  CG        14.1820   -7.1750   21.8100 C.3    93  ARG93       0.0489
    109  CD        14.6140   -8.3890   20.9290 C.3    93  ARG93       0.2205
    110  NE        15.3190   -9.4490   21.6100 N.pl3  93  ARG93      -0.0865
    111  CZ        16.6010   -9.7110   21.4340 C.cat  93  ARG93       0.5346
    112  NH1       17.3130   -8.9790   20.6040 N.pl3  93  ARG93       0.1354
    113  NH2       17.1860  -10.7080   22.0870 N.pl3  93  ARG93       0.1354
    114  N          8.6670   -4.8410   23.8920 N.3    96  THR96      -0.1203
    115  CA         8.2670   -6.1290   24.4470 C.3    96  THR96       0.1994
    116  C          8.8480   -6.3050   25.8440 C.2    96  THR96       0.2617
    117  O          8.1760   -6.8160   26.7450 O.2    96  THR96      -0.2717
    118  CB         8.7070   -7.2740   23.5280 C.3    96  THR96       0.1784
    119  OG1        8.0490   -7.1570   22.2660 O.3    96  THR96      -0.2211
    120  CG2        8.2940   -8.6100   24.1210 C.3    96  THR96       0.0376
    121  N         10.0880   -5.8610   26.0450 N.am   97  LEU97      -0.1979
    122  CA        10.6890   -5.8550   27.3740 C.3    97  LEU97       0.1596
    123  C          9.7920   -5.1170   28.3700 C.2    97  LEU97       0.2287
    124  O          9.3520   -5.6700   29.3890 O.2    97  LEU97      -0.2864
    125  CB        12.0680   -5.1960   27.2760 C.3    97  LEU97       0.0297
    126  CG        12.9930   -5.0010   28.4700 C.3    97  LEU97       0.0022
    127  CD1       13.6870   -6.2750   28.8030 C.3    97  LEU97       0.0001
    128  CD2       14.0250   -3.9280   28.2050 C.3    97  LEU97       0.0001
    129  N          6.2810   -6.8750   29.0330 N.3   100  PHE100     -0.1227
    130  CA         6.2820   -7.9790   29.9850 C.3   100  PHE100      0.1736
    131  C          6.5290   -7.4780   31.3980 C.2   100  PHE100      0.2596
    132  O          5.9950   -8.0520   32.3530 O.2   100  PHE100     -0.2718
    133  CB         7.3030   -9.0560   29.6260 C.3   100  PHE100      0.0547
    134  CG         7.1580  -10.3010   30.4630 C.ar  100  PHE100     -0.0202
    135  CD1        5.9580  -11.0000   30.4830 C.ar  100  PHE100     -0.0042
    136  CD2        8.1930  -10.7440   31.2500 C.ar  100  PHE100     -0.0042
    137  CE1        5.8070  -12.1410   31.2470 C.ar  100  PHE100     -0.0003
    138  CE2        8.0600  -11.8860   32.0270 C.ar  100  PHE100     -0.0003
    139  CZ         6.8570  -12.5840   32.0290 C.ar  100  PHE100     -0.0000
    140  N          7.3480   -6.4300   31.5530 N.am  101  GLY101     -0.1957
    141  CA         7.4250   -5.7580   32.8440 C.3   101  GLY101      0.1869
    142  C          6.0580   -5.3670   33.3780 C.2   101  GLY101      0.2309
    143  O          5.7540   -5.5740   34.5560 O.2   101  GLY101     -0.2863
    144  N          4.2270   -8.7430   34.5610 N.3   104  VAL104     -0.1245
    145  CA         4.6860   -9.1930   35.8740 C.3   104  VAL104      0.1561
    146  C          4.2590   -8.2200   36.9710 C.2   104  VAL104      0.2260
    147  O          3.9380   -8.6450   38.0900 O.2   104  VAL104     -0.2867
    148  CB         6.2140   -9.3940   35.8840 C.3   104  VAL104      0.0252
    149  CG1        6.7070   -9.7080   37.2820 C.3   104  VAL104      0.0019
    150  CG2        6.6440  -10.4610   34.8840 C.3   104  VAL104      0.0019
    151  N         11.4460   -3.9350   40.3620 N.3   120  LEU120     -0.1245
    152  CA        11.3370   -4.4890   39.0280 C.3   120  LEU120      0.1561
    153  C         11.6610   -3.4290   37.9790 C.2   120  LEU120      0.2260
    154  O         12.6260   -3.5670   37.2160 O.2   120  LEU120     -0.2867
    155  CB         9.9290   -5.0610   38.8480 C.3   120  LEU120      0.0270
    156  CG         9.4800   -5.4430   37.4520 C.3   120  LEU120      0.0019
    157  CD1       10.2510   -6.6940   37.0890 C.3   120  LEU120      0.0001
    158  CD2        7.9890   -5.7470   37.3990 C.3   120  LEU120      0.0001
    159  N         14.5640   -3.3330   35.2190 N.3   124  ILE124     -0.1245
    160  CA        14.3210   -3.2210   33.7820 C.3   124  ILE124      0.1561
    161  C         15.0460   -2.0030   33.2270 C.2   124  ILE124      0.2260
    162  O         15.8280   -2.1150   32.2690 O.2   124  ILE124     -0.2867
    163  CB        12.8160   -3.1730   33.4500 C.3   124  ILE124      0.0252
    164  CG1       12.1090   -4.5050   33.7500 C.3   124  ILE124      0.0019
    165  CG2       12.6140   -2.7390   31.9950 C.3   124  ILE124      0.0019
    166  CD1       10.5790   -4.4040   33.7700 C.3   124  ILE124      0.0001
@<TRIPOS>BOND
     1    94    92    1
     2    93    92    1
     3   102   100   am
     4    92    89    1
     5    99   100    1
     6    99    96    1
     7   100   101    2
     8    89    88    1
     9    89    90    1
    10    96    95    1
    11    96    97    1
    12    88    86   am
    13    90    91    2
    14    97    98    2
    15    86    87    2
    16    86    85    1
    17    85    84    1
    18   103   104    1
    19     9    10   ar
    20     9     7   ar
    21   112   111    1
    22    10     8   ar
    23   107   104    1
    24   107   108    1
    25   109   110    1
    26   109   108    1
    27   104   105    1
    28     7     6   ar
    29   111   110    2
    30   111   113    1
    31     8     6   ar
    32   119   118    1
    33     6     5    1
    34   105   106    2
    35     1     2    1
    36   118   120    1
    37   118   115    1
    38     2     5    1
    39     2     3    1
    40   114   115    1
    41    76    75    2
    42   115   116    1
    43    69    68    2
    44    82    83   ar
    45    82    80   ar
    46     3     4    2
    47    15    12    1
    48    75    74    1
    49    83    81   ar
    50    80    78   ar
    51   116   121   am
    52   116   117    2
    53    74    73    1
    54    74    77    1
    55   121   122    1
    56    68    73   am
    57    68    67    1
    58    11    12    1
    59    81    79   ar
    60    71    70    1
    61    78    79   ar
    62    78    77    1
    63    12    13    1
    64    26    24   ar
    65    26    25   ar
    66    24    22   ar
    67    67    70    1
    68    67    66    1
    69    25    23   ar
    70   125   122    1
    71   125   126    1
    72   122   123    1
    73    70    72    1
    74    22    21   ar
    75    13    16   am
    76    13    14    2
    77    23    21   ar
    78    16    17    1
    79    21    20    1
    80   128   126    1
    81   123   124    2
    82   126   127    1
    83   129   130    1
    84    20    17    1
    85    17    18    1
    86    61    60    2
    87   133   130    1
    88   133   134    1
    89   130   131    1
    90    34    33    1
    91    18    19    2
    92   134   135   ar
    93   134   136   ar
    94   135   137   ar
    95    60    59    1
    96    31    32    1
    97    31    28    1
    98    54    53    2
    99    27    28    1
   100   137   139   ar
   101   136   138   ar
   102    32    33    1
   103   131   140   am
   104   131   132    2
   105    59    62    1
   106    59    58    1
   107   140   141    1
   108    28    29    1
   109    53    58   am
   110    53    52    1
   111   165   163    1
   112   138   139   ar
   113    62    63    1
   114    57    55    1
   115   162   161    2
   116   141   142    1
   117    64    63    1
   118    64    65    1
   119    52    55    1
   120    52    51    1
   121    29    30    2
   122   161   160    1
   123   142   143    2
   124    55    56    1
   125   163   164    1
   126   163   160    1
   127   164   166    1
   128   160   159    1
   129   144   145    1
   130   150   148    1
   131    41    40    1
   132    42    40    1
   133    46    45    2
   134    40    39    1
   135   145   148    1
   136   145   146    1
   137   148   149    1
   138    35    36    1
   139    45    44    1
   140   146   147    2
   141    39    36    1
   142   157   156    1
   143   154   153    2
   144   158   156    1
   145    36    37    1
   146   156   155    1
   147    50    48    1
   148    44    47    1
   149    44    43    1
   150   153   152    1
   151    47    48    1
   152    48    49    1
   153   155   152    1
   154    37    38    2
   155   152   151    1
