@<TRIPOS>MOLECULE
tmp/5if2A00.pdb
 100 95 0 0 0
SMALL
GASTEIGER

@<TRIPOS>ATOM
      1  N        -31.6980  -35.3620   61.7400 N.3    44  ILE44      -0.1245
      2  CA       -32.3770  -36.6340   61.9640 C.3    44  ILE44       0.1561
      3  C        -33.3770  -36.9070   60.8430 C.2    44  ILE44       0.2260
      4  O        -33.4570  -38.0280   60.3250 O.2    44  ILE44      -0.2867
      5  CB       -33.0310  -36.6360   63.3590 C.3    44  ILE44       0.0252
      6  CG1      -31.9380  -36.6460   64.4320 C.3    44  ILE44       0.0019
      7  CG2      -33.9830  -37.8210   63.5370 C.3    44  ILE44       0.0019
      8  CD1      -32.3920  -36.1690   65.7870 C.3    44  ILE44       0.0001
      9  N        -31.4520  -38.0840   58.0130 N.3    47  MET47      -0.1230
     10  CA       -31.0150  -39.4590   58.2330 C.3    47  MET47       0.1702
     11  C        -32.1440  -40.4470   57.9560 C.2    47  MET47       0.2592
     12  O        -31.9120  -41.5150   57.3820 O.2    47  MET47      -0.2718
     13  CB       -30.4990  -39.6260   59.6670 C.3    47  MET47       0.0401
     14  CG       -29.2140  -38.8860   59.9720 C.3    47  MET47       0.0596
     15  SD       -27.7910  -39.6910   59.2190 S.3    47  MET47      -0.1393
     16  CE       -27.5790  -41.0810   60.3420 C.3    47  MET47       0.0692
     17  N        -33.3790  -40.0980   58.3390 N.am   48  ARG48      -0.1980
     18  CA       -34.4910  -41.0360   58.1960 C.3    48  ARG48       0.1597
     19  C        -34.8270  -41.3210   56.7410 C.2    48  ARG48       0.2287
     20  O        -35.3920  -42.3780   56.4440 O.2    48  ARG48      -0.2864
     21  CB       -35.7450  -40.5160   58.8970 C.3    48  ARG48       0.0334
     22  CG       -35.6370  -40.3070   60.3830 C.3    48  ARG48       0.0492
     23  CD       -36.7200  -39.3060   60.7940 C.3    48  ARG48       0.2205
     24  NE       -36.8730  -39.1440   62.2380 N.pl3  48  ARG48      -0.0865
     25  CZ       -37.6550  -38.2270   62.8030 C.cat  48  ARG48       0.5346
     26  NH1      -38.3540  -37.3880   62.0460 N.pl3  48  ARG48       0.1354
     27  NH2      -37.7380  -38.1450   64.1260 N.pl3  48  ARG48       0.1354
     28  N        -32.9450  -42.2610   54.5180 N.3    50  PHE50      -0.1241
     29  CA       -32.0410  -43.2630   53.9720 C.3    50  PHE50       0.1605
     30  C        -32.2460  -44.5710   54.7150 C.2    50  PHE50       0.2264
     31  O        -32.2250  -44.6010   55.9510 O.2    50  PHE50      -0.2867
     32  CB       -30.5820  -42.8140   54.0760 C.3    50  PHE50       0.0534
     33  CG       -29.6060  -43.7820   53.4670 C.ar   50  PHE50      -0.0203
     34  CD1      -29.7220  -44.1620   52.1400 C.ar   50  PHE50      -0.0042
     35  CD2      -28.5550  -44.2900   54.2100 C.ar   50  PHE50      -0.0042
     36  CE1      -28.8160  -45.0460   51.5770 C.ar   50  PHE50      -0.0003
     37  CE2      -27.6410  -45.1660   53.6480 C.ar   50  PHE50      -0.0003
     38  CZ       -27.7700  -45.5420   52.3360 C.ar   50  PHE50      -0.0000
     39  N        -28.4410  -48.2060   55.2930 N.3    53  TRP53      -0.1241
     40  CA       -27.3500  -48.3940   56.2380 C.3    53  TRP53       0.1605
     41  C        -27.0310  -49.8720   56.3980 C.2    53  TRP53       0.2264
     42  O        -27.8820  -50.7410   56.2070 O.2    53  TRP53      -0.2867
     43  CB       -27.7010  -47.8230   57.6160 C.3    53  TRP53       0.0550
     44  CG       -28.0720  -46.3710   57.6450 C.ar   53  TRP53       0.0003
     45  CD1      -29.2910  -45.8510   57.9470 C.ar   53  TRP53       0.0946
     46  CD2      -27.2110  -45.2510   57.3790 C.ar   53  TRP53       0.0152
     47  NE1      -29.2520  -44.4830   57.8760 N.ar   53  TRP53      -0.2442
     48  CE2      -27.9860  -44.0880   57.5330 C.ar   53  TRP53       0.0810
     49  CE3      -25.8620  -45.1230   57.0190 C.ar   53  TRP53       0.0012
     50  CZ2      -27.4630  -42.8080   57.3370 C.ar   53  TRP53       0.0191
     51  CZ3      -25.3400  -43.8520   56.8240 C.ar   53  TRP53       0.0001
     52  CH2      -26.1390  -42.7100   56.9930 C.ar   53  TRP53       0.0015
     53  N        -20.1760  -45.5670   64.9380 N.3    75  LYS75      -0.1245
     54  CA       -21.2170  -46.3540   65.5750 C.3    75  LYS75       0.1561
     55  C        -21.8090  -45.6160   66.7720 C.2    75  LYS75       0.2260
     56  O        -23.0180  -45.6950   67.0040 O.2    75  LYS75      -0.2867
     57  CB       -20.6580  -47.7220   65.9760 C.3    75  LYS75       0.0271
     58  CG       -20.2160  -48.5760   64.7810 C.3    75  LYS75       0.0035
     59  CD       -19.5070  -49.8550   65.2140 C.3    75  LYS75       0.0206
     60  CE       -20.4260  -50.7870   65.9770 C.3    75  LYS75       0.1093
     61  NZ       -21.5360  -51.3270   65.1360 N.3    75  LYS75      -0.1314
     62  N        -24.4300  -43.0950   65.3710 N.3    78  LEU78      -0.1231
     63  CA       -25.6950  -43.7470   65.0290 C.3    78  LEU78       0.1693
     64  C        -26.4850  -44.1150   66.2800 C.2    78  LEU78       0.2591
     65  O        -27.7020  -43.9140   66.3370 O.2    78  LEU78      -0.2718
     66  CB       -25.4360  -44.9920   64.1820 C.3    78  LEU78       0.0284
     67  CG       -24.8910  -44.7610   62.7690 C.3    78  LEU78       0.0019
     68  CD1      -24.6850  -46.0890   62.1020 C.3    78  LEU78       0.0001
     69  CD2      -25.8690  -43.9290   61.9720 C.3    78  LEU78       0.0001
     70  N        -25.8000  -44.6250   67.3030 N.am   79  ALA79      -0.1980
     71  CA       -26.4820  -45.0680   68.5070 C.3    79  ALA79       0.1597
     72  C        -27.0490  -43.8940   69.2960 C.2    79  ALA79       0.2287
     73  O        -28.1450  -43.9980   69.8570 O.2    79  ALA79      -0.2864
     74  CB       -25.5240  -45.8830   69.3750 C.3    79  ALA79       0.0319
     75  N        -27.9450  -40.9570   68.0260 N.3    81  LEU81      -0.1231
     76  CA       -29.1100  -40.4900   67.2880 C.3    81  LEU81       0.1693
     77  C        -30.2810  -41.4450   67.4830 C.2    81  LEU81       0.2591
     78  O        -31.4410  -41.0170   67.4890 O.2    81  LEU81      -0.2718
     79  CB       -28.7870  -40.3320   65.7970 C.3    81  LEU81       0.0284
     80  CG       -27.6720  -39.3430   65.4300 C.3    81  LEU81       0.0019
     81  CD1      -27.3090  -39.4320   63.9560 C.3    81  LEU81       0.0001
     82  CD2      -28.0640  -37.9250   65.7810 C.3    81  LEU81       0.0001
     83  N        -29.9930  -42.7390   67.6410 N.am   82  GLN82      -0.1979
     84  CA       -31.0370  -43.6990   67.9660 C.3    82  GLN82       0.1601
     85  C        -31.5830  -43.4700   69.3760 C.2    82  GLN82       0.2287
     86  O        -32.7730  -43.7110   69.6200 O.2    82  GLN82      -0.2864
     87  CB       -30.5060  -45.1260   67.8090 C.3    82  GLN82       0.0394
     88  CG       -31.5660  -46.2150   67.9750 C.3    82  GLN82       0.0908
     89  CD       -32.6370  -46.1480   66.8990 C.2    82  GLN82       0.2608
     90  OE1      -32.3420  -46.2310   65.7010 O.2    82  GLN82      -0.2717
     91  NE2      -33.8860  -45.9830   67.3180 N.am   82  GLN82      -0.0878
     92  N        -34.0690  -40.8080   69.1460 N.3    85  GLU85      -0.1245
     93  CA       -35.3160  -41.2850   68.5570 C.3    85  GLU85       0.1567
     94  C        -36.3010  -41.7580   69.6190 C.2    85  GLU85       0.2260
     95  O        -37.5160  -41.7090   69.4020 O.2    85  GLU85      -0.2867
     96  CB       -35.0320  -42.4090   67.5580 C.3    85  GLU85       0.0388
     97  CG       -34.2130  -41.9880   66.3400 C.3    85  GLU85       0.1160
     98  CD       -35.0210  -41.2230   65.3020 C.2    85  GLU85       0.3649
     99  OE1      -34.9080  -41.5590   64.1040 O.co2  85  GLU85      -0.2457
    100  OE2      -35.7670  -40.2900   65.6720 O.co2  85  GLU85      -0.2457
@<TRIPOS>BOND
     1    36    34   ar
     2    36    38   ar
     3    34    33   ar
     4    38    37   ar
     5    33    32    1
     6    33    35   ar
     7    37    35   ar
     8    29    32    1
     9    29    28    1
    10    29    30    1
    11    30    31    2
    12    39    40    1
    13    42    41    2
    14    40    41    1
    15    40    43    1
    16    20    19    2
    17    19    18    1
    18    51    52   ar
    19    51    49   ar
    20    52    50   ar
    21    49    46   ar
    22    50    48   ar
    23    46    48   ar
    24    46    44   ar
    25    12    11    2
    26    48    47   ar
    27    43    44    1
    28    44    45   ar
    29    47    45   ar
    30    11    10    1
    31    11    17   am
    32     9    10    1
    33    18    17    1
    34    18    21    1
    35    10    13    1
    36    21    22    1
    37    15    14    1
    38    15    16    1
    39    13    14    1
    40     4     3    2
    41    22    23    1
    42    23    24    1
    43     3     2    1
    44     1     2    1
    45     2     5    1
    46    69    67    1
    47    26    25    1
    48    68    67    1
    49    24    25    2
    50    67    66    1
    51    25    27    1
    52     5     7    1
    53     5     6    1
    54    81    80    1
    55    99    98   ar
    56    66    63    1
    57     6     8    1
    58    58    59    1
    59    58    57    1
    60    53    54    1
    61    63    62    1
    62    63    64    1
    63    61    60    1
    64    59    60    1
    65    98   100   ar
    66    98    97    1
    67    80    82    1
    68    80    79    1
    69    54    57    1
    70    54    55    1
    71    90    89    2
    72    79    76    1
    73    64    65    2
    74    64    70   am
    75    97    96    1
    76    55    56    2
    77    89    91   am
    78    89    88    1
    79    76    77    1
    80    76    75    1
    81    70    71    1
    82    77    78    2
    83    77    83   am
    84    96    93    1
    85    83    84    1
    86    87    84    1
    87    87    88    1
    88    84    85    1
    89    71    72    1
    90    71    74    1
    91    93    92    1
    92    93    94    1
    93    72    73    2
    94    85    86    2
    95    95    94    2
