@<TRIPOS>MOLECULE
tmp/5if4A00.pdb
 178 167 0 0 0
SMALL
GASTEIGER

@<TRIPOS>ATOM
      1  N          7.6330   -8.0680   20.7190 N.3    53  HIS53      -0.1241
      2  CA         6.7060   -9.1870   20.6240 C.3    53  HIS53       0.1621
      3  C          7.2190  -10.2770   19.6910 C.2    53  HIS53       0.2264
      4  O          6.4460  -11.1370   19.2510 O.2    53  HIS53      -0.2867
      5  CB         5.3310   -8.6810   20.1790 C.3    53  HIS53       0.0745
      6  CG         4.6450   -7.8320   21.2120 C.ar   53  HIS53       0.0817
      7  ND1        4.3380   -8.2970   22.4740 N.ar   53  HIS53      -0.2268
      8  CD2        4.2040   -6.5520   21.1670 C.ar   53  HIS53       0.1154
      9  CE1        3.7470   -7.3380   23.1640 C.ar   53  HIS53       0.1986
     10  NE2        3.6500   -6.2700   22.3930 N.ar   53  HIS53      -0.2212
     11  N          5.8050  -13.8130   20.1030 N.3    56  ALA56      -0.1231
     12  CA         4.3970  -13.9160   19.7270 C.3    56  ALA56       0.1694
     13  C          4.2050  -13.6680   18.2370 C.2    56  ALA56       0.2592
     14  O          3.3950  -14.3390   17.5830 O.2    56  ALA56      -0.2718
     15  CB         3.5530  -12.9380   20.5460 C.3    56  ALA56       0.0304
     16  N          4.9350  -12.6990   17.6820 N.am   57  PHE57      -0.1976
     17  CA         4.8060  -12.4340   16.2550 C.3    57  PHE57       0.1639
     18  C          5.2240  -13.6520   15.4400 C.2    57  PHE57       0.2290
     19  O          4.5060  -14.0780   14.5280 O.2    57  PHE57      -0.2864
     20  CB         5.6120  -11.1940   15.8630 C.3    57  PHE57       0.0560
     21  CG         4.9200   -9.9010   16.1940 C.ar   57  PHE57      -0.0200
     22  CD1        5.4410   -8.6780   15.7580 C.ar   57  PHE57      -0.0042
     23  CD2        3.7450   -9.9000   16.9450 C.ar   57  PHE57      -0.0042
     24  CE1        4.8080   -7.4720   16.0650 C.ar   57  PHE57      -0.0003
     25  CE2        3.1050   -8.7020   17.2560 C.ar   57  PHE57      -0.0003
     26  CZ         3.6360   -7.4800   16.8040 C.ar   57  PHE57      -0.0000
     27  N          2.5770  -16.4100   15.6750 N.3    60  MET60      -0.1245
     28  CA         1.3620  -16.1430   14.9220 C.3    60  MET60       0.1570
     29  C          1.6130  -16.2480   13.4190 C.2    60  MET60       0.2261
     30  O          0.8150  -16.8460   12.6880 O.2    60  MET60      -0.2867
     31  CB         0.8470  -14.7550   15.2780 C.3    60  MET60       0.0387
     32  CG        -0.1930  -14.2360   14.3230 C.3    60  MET60       0.0595
     33  SD        -1.7870  -15.0110   14.5840 S.3    60  MET60      -0.1393
     34  CE        -2.1500  -14.4970   16.2780 C.3    60  MET60       0.0692
     35  N         -0.3490  -18.8110   10.8510 N.3    64  LEU64      -0.1245
     36  CA        -1.1830  -18.3390    9.7490 C.3    64  LEU64       0.1561
     37  C         -0.7790  -18.9410    8.4070 C.2    64  LEU64       0.2260
     38  O         -1.6100  -18.9720    7.4930 O.2    64  LEU64      -0.2867
     39  CB        -1.1470  -16.8070    9.6180 C.3    64  LEU64       0.0270
     40  CG        -1.4040  -15.9440   10.8370 C.3    64  LEU64       0.0019
     41  CD1       -0.7950  -14.5680   10.6690 C.3    64  LEU64       0.0001
     42  CD2       -2.8830  -15.8430   11.0480 C.3    64  LEU64       0.0001
     43  N         -6.8560  -13.4950    5.7230 N.3    75  LEU75      -0.1245
     44  CA        -6.3110  -13.0980    7.0150 C.3    75  LEU75       0.1561
     45  C         -7.1940  -12.1270    7.7750 C.2    75  LEU75       0.2260
     46  O         -6.9900  -11.9570    8.9790 O.2    75  LEU75      -0.2867
     47  CB        -4.9370  -12.4450    6.8630 C.3    75  LEU75       0.0270
     48  CG        -3.7570  -13.2950    6.4350 C.3    75  LEU75       0.0019
     49  CD1       -2.5760  -12.3630    6.2280 C.3    75  LEU75       0.0001
     50  CD2       -3.4490  -14.3820    7.4490 C.3    75  LEU75       0.0001
     51  N         -9.0040  -13.4390   11.3210 N.3    78  VAL78      -0.1231
     52  CA        -8.1950  -13.5040   12.5320 C.3    78  VAL78       0.1692
     53  C         -7.7810  -12.1040   12.9650 C.2    78  VAL78       0.2591
     54  O         -7.8130  -11.7740   14.1560 O.2    78  VAL78      -0.2718
     55  CB        -6.9980  -14.4530   12.3240 C.3    78  VAL78       0.0266
     56  CG1       -6.2970  -14.1500   11.0260 C.3    78  VAL78       0.0020
     57  CG2       -6.0270  -14.3660   13.4950 C.3    78  VAL78       0.0020
     58  N         -7.3770  -11.2680   12.0050 N.am   79  MET79      -0.1979
     59  CA        -7.0670   -9.8700   12.2860 C.3    79  MET79       0.1605
     60  C         -8.2100   -9.1950   13.0440 C.2    79  MET79       0.2287
     61  O         -8.0160   -8.6200   14.1210 O.2    79  MET79      -0.2864
     62  CB        -6.8050   -9.1580   10.9650 C.3    79  MET79       0.0413
     63  CG        -5.7760   -8.0820   11.0180 C.3    79  MET79       0.0598
     64  SD        -5.6470   -7.3000    9.3990 S.3    79  MET79      -0.1393
     65  CE        -6.1270   -5.6970    9.9300 C.3    79  MET79       0.0692
     66  N         -8.6020  -10.5850   16.6840 N.3    82  VAL82      -0.1231
     67  CA        -7.5740  -10.1060   17.6140 C.3    82  VAL82       0.1692
     68  C         -7.6730   -8.5990   17.8680 C.2    82  VAL82       0.2592
     69  O         -7.2420   -8.1160   18.9170 O.2    82  VAL82      -0.2718
     70  CB        -6.1710  -10.4900   17.0860 C.3    82  VAL82       0.0266
     71  CG1       -5.0580   -9.9940   18.0210 C.3    82  VAL82       0.0020
     72  CG2       -6.0610  -11.9990   16.8990 C.3    82  VAL82       0.0020
     73  N         -8.2290   -7.8290   16.9370 N.am   83  PHE83      -0.1976
     74  CA        -8.1710   -6.3770   17.0490 C.3    83  PHE83       0.1639
     75  C         -9.4660   -5.7280   17.5310 C.2    83  PHE83       0.2290
     76  O         -9.4100   -4.6860   18.1800 O.2    83  PHE83      -0.2864
     77  CB        -7.8220   -5.7760   15.6780 C.3    83  PHE83       0.0560
     78  CG        -7.6240   -4.2700   15.6820 C.ar   83  PHE83      -0.0200
     79  CD1       -8.4370   -3.4550   14.8910 C.ar   83  PHE83      -0.0042
     80  CD2       -6.6490   -3.6760   16.4790 C.ar   83  PHE83      -0.0042
     81  CE1       -8.2720   -2.0740   14.8760 C.ar   83  PHE83      -0.0003
     82  CE2       -6.4620   -2.2940   16.4650 C.ar   83  PHE83      -0.0003
     83  CZ        -7.2910   -1.4890   15.6640 C.ar   83  PHE83      -0.0000
     84  N        -12.4650   -6.3670   19.5460 N.3    85  ASP85      -0.1225
     85  CA       -13.1220   -6.2390   20.8390 C.3    85  ASP85       0.1805
     86  C        -12.1910   -5.6490   21.8930 C.2    85  ASP85       0.2598
     87  O        -10.9730   -5.8350   21.8710 O.2    85  ASP85      -0.2718
     88  CB       -13.6440   -7.5960   21.3140 C.3    85  ASP85       0.1424
     89  CG       -12.5870   -8.6610   21.3650 C.2    85  ASP85       0.3668
     90  OD1      -11.5270   -8.5140   20.7640 O.co2  85  ASP85      -0.2456
     91  OD2      -12.9000   -9.6530   22.0920 O.co2  85  ASP85      -0.2456
     92  N        -12.7850   -4.9310   22.8260 N.am   86  GLY86      -0.1942
     93  CA       -12.0660   -4.4060   23.9590 C.3    86  GLY86       0.2014
     94  C        -11.7240   -2.9340   23.8270 C.2    86  GLY86       0.2638
     95  O        -12.3120   -2.1720   23.0540 O.2    86  GLY86      -0.2714
     96  N        -10.7210   -2.5540   24.5920 N.am   87  VAL87      -0.1977
     97  CA       -10.2880   -1.1660   24.6310 C.3    87  VAL87       0.1596
     98  C         -9.5110   -0.8540   23.3640 C.2    87  VAL87       0.2287
     99  O         -8.7450   -1.6850   22.8600 O.2    87  VAL87      -0.2864
    100  CB        -9.4380   -0.9130   25.8890 C.3    87  VAL87       0.0276
    101  CG1       -9.0860    0.5650   26.0270 C.3    87  VAL87       0.0022
    102  CG2      -10.1730   -1.4130   27.1190 C.3    87  VAL87       0.0022
    103  N         -6.7390    1.8970   21.9840 N.3    89  ASN89      -0.1240
    104  CA        -5.8360    3.0090   22.2270 C.3    89  ASN89       0.1653
    105  C         -4.8360    3.0310   21.0860 C.2    89  ASN89       0.2266
    106  O         -4.7940    2.1110   20.2640 O.2    89  ASN89      -0.2867
    107  CB        -5.1660    2.9230   23.6170 C.3    89  ASN89       0.1155
    108  CG        -4.2710    1.7010   23.7940 C.2    89  ASN89       0.2627
    109  OD1       -3.8170    1.0890   22.8300 O.2    89  ASN89      -0.2716
    110  ND2       -4.0420    1.3240   25.0520 N.am   89  ASN89      -0.0877
    111  N         -1.6060    2.6560   21.0260 N.3    91  GLY91      -0.1210
    112  CA        -0.6590    1.5530   21.0550 C.3    91  GLY91       0.1956
    113  C         -1.1970    0.2900   20.4020 C.2    91  GLY91       0.2611
    114  O         -0.4700   -0.4190   19.7050 O.2    91  GLY91      -0.2717
    115  N         -2.4750   -0.0200   20.6420 N.am   92  ARG92      -0.1979
    116  CA        -3.0930   -1.1510   19.9570 C.3    92  ARG92       0.1597
    117  C         -3.0130   -0.9710   18.4470 C.2    92  ARG92       0.2287
    118  O         -2.7290   -1.9240   17.7080 O.2    92  ARG92      -0.2864
    119  CB        -4.5530   -1.2930   20.3890 C.3    92  ARG92       0.0334
    120  CG        -5.3010   -2.5180   19.8040 C.3    92  ARG92       0.0492
    121  CD        -6.1800   -3.1750   20.8490 C.3    92  ARG92       0.2205
    122  NE        -6.5420   -4.5580   20.5890 N.pl3  92  ARG92      -0.0865
    123  CZ        -7.7050   -5.0870   20.9670 C.cat  92  ARG92       0.5346
    124  NH1       -8.5870   -4.3270   21.6000 N.pl3  92  ARG92       0.1354
    125  NH2       -7.9860   -6.3720   20.7520 N.pl3  92  ARG92       0.1354
    126  N          0.2850   -1.6210   17.1580 N.3    95  THR95      -0.1203
    127  CA         0.5980   -3.0450   17.1680 C.3    95  THR95       0.1994
    128  C          0.0150   -3.7360   15.9450 C.2    95  THR95       0.2617
    129  O          0.7010   -4.5290   15.2910 O.2    95  THR95      -0.2717
    130  CB         0.0750   -3.6770   18.4560 C.3    95  THR95       0.1784
    131  OG1        0.5030   -2.8710   19.5410 O.3    95  THR95      -0.2211
    132  CG2        0.6330   -5.0850   18.6530 C.3    95  THR95       0.0376
    133  N         -1.2400   -3.4160   15.6100 N.am   96  LEU96      -0.1979
    134  CA        -1.8320   -3.8140   14.3360 C.3    96  LEU96       0.1596
    135  C         -0.8850   -3.5460   13.1660 C.2    96  LEU96       0.2287
    136  O         -0.5520   -4.4500   12.3780 O.2    96  LEU96      -0.2864
    137  CB        -3.1400   -3.0460   14.1250 C.3    96  LEU96       0.0297
    138  CG        -3.8770   -3.3190   12.8180 C.3    96  LEU96       0.0022
    139  CD1       -4.5610   -4.6230   12.9150 C.3    96  LEU96       0.0001
    140  CD2       -4.8490   -2.1990   12.4860 C.3    96  LEU96       0.0001
    141  N          2.6080   -5.6120   13.3740 N.3    99  PHE99      -0.1227
    142  CA         2.5390   -6.9750   12.8870 C.3    99  PHE99       0.1736
    143  C          2.3160   -6.9930   11.3870 C.2    99  PHE99       0.2596
    144  O          2.8380   -7.8760   10.6980 O.2    99  PHE99      -0.2718
    145  CB         1.4600   -7.7700   13.6160 C.3    99  PHE99       0.0547
    146  CG         1.4910   -9.2160   13.2890 C.ar   99  PHE99      -0.0202
    147  CD1        2.6180   -9.9690   13.5760 C.ar   99  PHE99      -0.0042
    148  CD2        0.4310   -9.8150   12.6320 C.ar   99  PHE99      -0.0042
    149  CE1        2.6760  -11.3060   13.2420 C.ar   99  PHE99      -0.0003
    150  CE2        0.4780  -11.1610   12.2980 C.ar   99  PHE99      -0.0003
    151  CZ         1.6050  -11.9050   12.6050 C.ar   99  PHE99      -0.0000
    152  N          1.5490   -6.0310   10.8670 N.am  100  GLY100     -0.1957
    153  CA         1.5020   -5.8540    9.4190 C.3   100  GLY100      0.1869
    154  C          2.8840   -5.7920    8.7790 C.2   100  GLY100      0.2309
    155  O          3.1530   -6.4710    7.7860 O.2   100  GLY100     -0.2863
    156  N          4.7220   -9.1440    8.8870 N.3   103  VAL103     -0.1245
    157  CA         4.2100  -10.0230    7.8430 C.3   103  VAL103      0.1561
    158  C          4.6960   -9.5780    6.4670 C.2   103  VAL103      0.2260
    159  O          5.0540  -10.4130    5.6230 O.2   103  VAL103     -0.2867
    160  CB         2.6780  -10.0800    7.9270 C.3   103  VAL103      0.0252
    161  CG1        2.1190  -10.8270    6.7300 C.3   103  VAL103      0.0019
    162  CG2        2.2400  -10.7080    9.2780 C.3   103  VAL103      0.0019
    163  N         -2.2720   -6.9150    1.5560 N.3   119  LEU119     -0.1245
    164  CA        -2.0730   -6.8470    3.0050 C.3   119  LEU119      0.1561
    165  C         -2.4190   -5.4580    3.5520 C.2   119  LEU119      0.2260
    166  O         -3.2910   -5.3110    4.4210 O.2   119  LEU119     -0.2867
    167  CB        -0.6310   -7.2170    3.3730 C.3   119  LEU119      0.0270
    168  CG        -0.3340   -7.2650    4.8790 C.3   119  LEU119      0.0019
    169  CD1       -1.3260   -8.1740    5.5880 C.3   119  LEU119      0.0001
    170  CD2        1.0840   -7.7470    5.1380 C.3   119  LEU119      0.0001
    171  N         -5.4290   -4.3680    6.0670 N.3   123  ILE123     -0.1245
    172  CA        -5.1950   -3.7620    7.3710 C.3   123  ILE123      0.1561
    173  C         -5.9680   -2.4600    7.4820 C.2   123  ILE123      0.2260
    174  O         -6.7490   -2.2540    8.4290 O.2   123  ILE123     -0.2867
    175  CB        -3.6980   -3.5450    7.6230 C.3   123  ILE123      0.0252
    176  CG1       -2.9800   -4.8930    7.7570 C.3   123  ILE123      0.0019
    177  CG2       -3.5090   -2.6690    8.8680 C.3   123  ILE123      0.0019
    178  CD1       -1.4710   -4.7680    7.7400 C.3   123  ILE123      0.0001
@<TRIPOS>BOND
     1   163   164    1
     2   164   167    1
     3   164   165    1
     4   167   168    1
     5   165   166    2
     6   168   170    1
     7   168   169    1
     8   159   158    2
     9    43    44    1
    10   171   172    1
    11    49    48    1
    12    48    47    1
    13    48    50    1
    14   158   157    1
    15   161   160    1
    16    47    44    1
    17    44    45    1
    18   172   173    1
    19   172   175    1
    20   173   174    2
    21    38    37    2
    22   175   176    1
    23   175   177    1
    24   178   176    1
    25    45    46    2
    26   155   154    2
    27   157   160    1
    28   157   156    1
    29   160   162    1
    30    37    36    1
    31   154   153    1
    32    64    65    1
    33    64    63    1
    34   153   152    1
    35    39    36    1
    36    39    40    1
    37    36    35    1
    38    41    40    1
    39   144   143    2
    40    40    42    1
    41   152   143   am
    42    62    63    1
    43    62    59    1
    44    56    55    1
    45    51    52    1
    46   143   142    1
    47    58    59    1
    48    58    53   am
    49    59    60    1
    50   150   151   ar
    51   150   148   ar
    52    55    52    1
    53    55    57    1
    54   136   135    2
    55   140   138    1
    56    52    53    1
    57   151   149   ar
    58   148   146   ar
    59    30    29    2
    60   138   139    1
    61   138   137    1
    62   142   141    1
    63   142   145    1
    64    53    54    2
    65    60    61    2
    66   135   134    1
    67   149   147   ar
    68   146   147   ar
    69   146   145    1
    70    29    28    1
    71   137   134    1
    72    32    33    1
    73    32    31    1
    74   134   133    1
    75    19    18    2
    76    33    34    1
    77    81    79   ar
    78    81    83   ar
    79    79    78   ar
    80    28    31    1
    81    28    27    1
    82   129   128    2
    83    18    17    1
    84   133   128   am
    85    83    82   ar
    86    77    78    1
    87    77    74    1
    88    78    80   ar
    89    22    24   ar
    90    22    21   ar
    91    20    21    1
    92    20    17    1
    93   128   127    1
    94    24    26   ar
    95    21    23   ar
    96    17    16    1
    97    82    80   ar
    98    66    67    1
    99    26    25   ar
   100    72    70    1
   101    73    74    1
   102    73    68   am
   103    23    25   ar
   104    74    75    1
   105    70    67    1
   106    70    71    1
   107   126   127    1
   108   127   130    1
   109    75    76    2
   110    14    13    2
   111    67    68    1
   112    16    13   am
   113   118   117    2
   114    68    69    2
   115    13    12    1
   116   117   116    1
   117   130   132    1
   118   130   131    1
   119     4     3    2
   120    84    85    1
   121     3     2    1
   122   114   113    2
   123    12    11    1
   124    12    15    1
   125   120   119    1
   126   120   121    1
   127   116   119    1
   128   116   115    1
   129     5     2    1
   130     5     6    1
   131   106   105    2
   132   113   115   am
   133   113   112    1
   134   122   121    1
   135   122   123    2
   136     2     1    1
   137   125   123    1
   138    90    89   ar
   139    85    88    1
   140    85    86    1
   141   123   124    1
   142   111   112    1
   143   105   104    1
   144     8     6   ar
   145     8    10   ar
   146     6     7   ar
   147    88    89    1
   148    89    91   ar
   149    87    86    2
   150    86    92   am
   151   103   104    1
   152   104   107    1
   153    10     9   ar
   154     7     9   ar
   155    92    93    1
   156   109   108    2
   157    99    98    2
   158    95    94    2
   159    98    97    1
   160   107   108    1
   161   108   110   am
   162    94    93    1
   163    94    96   am
   164    96    97    1
   165    97   100    1
   166   100   101    1
   167   100   102    1
