@<TRIPOS>MOLECULE
tmp/5if6A00.pdb
 205 190 0 0 0
SMALL
GASTEIGER

@<TRIPOS>ATOM
      1  N         -3.9810   34.2870   27.8680 N.3     9  SER9       -0.1217
      2  CA        -2.6350   33.8890   27.4690 C.3     9  SER9        0.1889
      3  C         -1.5770   34.4620   28.4040 C.2     9  SER9        0.2288
      4  O         -0.6490   33.7590   28.8040 O.2     9  SER9       -0.2866
      5  CB        -2.3510   34.3330   26.0320 C.3     9  SER9        0.2089
      6  OG        -2.2850   35.7440   25.9350 O.3     9  SER9       -0.2183
      7  N         -1.7010   32.8000   31.8170 N.3    12  LEU12      -0.1231
      8  CA        -1.1200   31.4670   31.7640 C.3    12  LEU12       0.1693
      9  C          0.3910   31.5430   31.9660 C.2    12  LEU12       0.2592
     10  O          0.9750   30.7100   32.6560 O.2    12  LEU12      -0.2718
     11  CB        -1.4470   30.7930   30.4300 C.3    12  LEU12       0.0284
     12  CG        -1.2750   29.2740   30.3590 C.3    12  LEU12       0.0019
     13  CD1       -2.2750   28.5690   31.2610 C.3    12  LEU12       0.0001
     14  CD2       -1.4160   28.7880   28.9250 C.3    12  LEU12       0.0001
     15  N          1.0150   32.5550   31.3720 N.am   13  GLY13      -0.1957
     16  CA         2.4500   32.7450   31.4960 C.3    13  GLY13       0.1869
     17  C          2.8830   33.1480   32.8940 C.2    13  GLY13       0.2309
     18  O          3.9180   32.6950   33.3830 O.2    13  GLY13      -0.2863
     19  N          2.8180   30.2380   35.0880 N.3    16  THR16      -0.1218
     20  CA         3.9080   29.3340   34.7470 C.3    16  THR16       0.1862
     21  C          5.2090   29.7920   35.3930 C.2    16  THR16       0.2287
     22  O          5.9530   28.9850   35.9480 O.2    16  THR16      -0.2866
     23  CB         4.1080   29.2470   33.2220 C.3    16  THR16       0.1770
     24  OG1        2.8640   28.9240   32.5920 O.3    16  THR16      -0.2211
     25  CG2        5.1440   28.1840   32.8700 C.3    16  THR16       0.0375
     26  N         -2.8340   27.8540   37.3850 N.3    24  TRP24      -0.1241
     27  CA        -2.5840   27.5080   35.9890 C.3    24  TRP24       0.1605
     28  C         -3.7500   26.7300   35.3900 C.2    24  TRP24       0.2264
     29  O         -4.2230   27.0440   34.2970 O.2    24  TRP24      -0.2867
     30  CB        -1.2920   26.6930   35.8860 C.3    24  TRP24       0.0550
     31  CG        -0.7560   26.5090   34.4980 C.ar   24  TRP24       0.0003
     32  CD1       -0.1720   27.4570   33.7120 C.ar   24  TRP24       0.0946
     33  CD2       -0.7190   25.2890   33.7480 C.ar   24  TRP24       0.0152
     34  NE1        0.2150   26.9070   32.5130 N.ar   24  TRP24      -0.2442
     35  CE2       -0.1080   25.5760   32.5120 C.ar   24  TRP24       0.0810
     36  CE3       -1.1450   23.9810   34.0030 C.ar   24  TRP24       0.0012
     37  CZ2        0.0840   24.6050   31.5300 C.ar   24  TRP24       0.0191
     38  CZ3       -0.9540   23.0190   33.0270 C.ar   24  TRP24       0.0001
     39  CH2       -0.3440   23.3350   31.8070 C.ar   24  TRP24       0.0015
     40  N         -4.1610   20.7780   24.7400 N.3    34  ILE34      -0.1245
     41  CA        -2.8560   21.4070   24.5780 C.3    34  ILE34       0.1561
     42  C         -2.0240   20.6260   23.5680 C.2    34  ILE34       0.2260
     43  O         -1.7950   19.4290   23.7310 O.2    34  ILE34      -0.2867
     44  CB        -2.1140   21.5000   25.9250 C.3    34  ILE34       0.0252
     45  CG1       -2.9420   22.3480   26.9020 C.3    34  ILE34       0.0019
     46  CG2       -0.7040   22.0670   25.7240 C.3    34  ILE34       0.0019
     47  CD1       -2.2400   22.7370   28.1890 C.3    34  ILE34       0.0001
     48  N          1.5110   21.1630   22.1950 N.3    36  THR36      -0.1218
     49  CA         2.8180   21.8130   22.1810 C.3    36  THR36       0.1862
     50  C          3.9280   20.7830   21.9950 C.2    36  THR36       0.2287
     51  O          4.3850   20.1840   22.9700 O.2    36  THR36      -0.2866
     52  CB         3.0810   22.5970   23.4820 C.3    36  THR36       0.1770
     53  OG1        2.9100   21.7310   24.6110 O.3    36  THR36      -0.2211
     54  CG2        2.1270   23.7730   23.5990 C.3    36  THR36       0.0375
     55  N          6.3690   15.8210   24.2220 N.3    43  THR43      -0.1218
     56  CA         5.3980   16.6830   24.8880 C.3    43  THR43       0.1862
     57  C          4.0170   16.5740   24.2310 C.2    43  THR43       0.2287
     58  O          3.0660   17.2290   24.6570 O.2    43  THR43      -0.2866
     59  CB         5.8660   18.1490   24.8850 C.3    43  THR43       0.1770
     60  OG1        6.2590   18.5320   23.5610 O.3    43  THR43      -0.2211
     61  CG2        7.0450   18.3210   25.8300 C.3    43  THR43       0.0375
     62  N          0.8060   16.6010   32.7380 N.3    59  PHE59      -0.1241
     63  CA         1.7600   17.2620   31.8530 C.3    59  PHE59       0.1605
     64  C          2.5530   18.3270   32.6000 C.2    59  PHE59       0.2264
     65  O          3.7620   18.4540   32.4150 O.2    59  PHE59      -0.2867
     66  CB         1.0350   17.8800   30.6560 C.3    59  PHE59       0.0534
     67  CG         1.9180   18.7080   29.7710 C.ar   59  PHE59      -0.0203
     68  CD1        2.7450   18.1080   28.8400 C.ar   59  PHE59      -0.0042
     69  CD2        1.9110   20.0900   29.8630 C.ar   59  PHE59      -0.0042
     70  CE1        3.5580   18.8700   28.0210 C.ar   59  PHE59      -0.0003
     71  CE2        2.7200   20.8580   29.0470 C.ar   59  PHE59      -0.0003
     72  CZ         3.5440   20.2470   28.1250 C.ar   59  PHE59      -0.0000
     73  N          6.5690   18.0060   32.9980 N.3    63  HIS63      -0.1226
     74  CA         7.3560   18.8530   32.0960 C.3    63  HIS63       0.1752
     75  C          7.5490   20.3110   32.5220 C.2    63  HIS63       0.2595
     76  O          8.3770   21.0070   31.9360 O.2    63  HIS63      -0.2718
     77  CB         6.7150   18.8390   30.7060 C.3    63  HIS63       0.0759
     78  CG         6.8430   17.5280   29.9950 C.ar   63  HIS63       0.0818
     79  ND1        8.0330   17.0910   29.4530 N.ar   63  HIS63      -0.2268
     80  CD2        5.9330   16.5610   29.7350 C.ar   63  HIS63       0.1154
     81  CE1        7.8490   15.9100   28.8900 C.ar   63  HIS63       0.1986
     82  NE2        6.5850   15.5650   29.0480 N.ar   63  HIS63      -0.2212
     83  N          6.7920   20.7820   33.5100 N.am   64  ILE64      -0.1980
     84  CA         6.8470   22.1930   33.9020 C.3    64  ILE64       0.1595
     85  C          7.2970   22.3930   35.3460 C.2    64  ILE64       0.2287
     86  O          8.1860   23.2020   35.6120 O.2    64  ILE64      -0.2864
     87  CB         5.4780   22.8850   33.7130 C.3    64  ILE64       0.0276
     88  CG1        5.0220   22.7420   32.2570 C.3    64  ILE64       0.0022
     89  CG2        5.5680   24.3620   34.1050 C.3    64  ILE64       0.0022
     90  CD1        3.7150   23.4520   31.9210 C.3    64  ILE64       0.0001
     91  N         11.0110   21.8240   36.0530 N.3    67  ASP67      -0.1239
     92  CA        11.8170   22.0840   34.8610 C.3    67  ASP67       0.1674
     93  C         12.0600   23.5750   34.6340 C.2    67  ASP67       0.2266
     94  O         12.5930   23.9680   33.5970 O.2    67  ASP67      -0.2867
     95  CB        11.1550   21.4660   33.6250 C.3    67  ASP67       0.1410
     96  CG        11.2730   19.9500   33.5950 C.2    67  ASP67       0.3668
     97  OD1       11.6340   19.3540   34.6320 O.co2  67  ASP67      -0.2456
     98  OD2       11.0080   19.3540   32.5300 O.co2  67  ASP67      -0.2456
     99  N         10.3130   26.1220   33.7900 N.3    69  VAL69      -0.1245
    100  CA         9.8200   26.6310   32.5170 C.3    69  VAL69       0.1561
    101  C          9.4410   28.1030   32.6270 C.2    69  VAL69       0.2260
    102  O          8.7250   28.5060   33.5430 O.2    69  VAL69      -0.2867
    103  CB         8.6040   25.8260   32.0200 C.3    69  VAL69       0.0252
    104  CG1        8.0890   26.3820   30.6950 C.3    69  VAL69       0.0019
    105  CG2        8.9690   24.3570   31.8740 C.3    69  VAL69       0.0019
    106  N          8.1530   31.3100   29.9150 N.3    71  VAL71      -0.1245
    107  CA         7.7460   31.7230   28.5790 C.3    71  VAL71       0.1561
    108  C          7.8350   33.2400   28.4450 C.2    71  VAL71       0.2260
    109  O          7.4000   33.9760   29.3300 O.2    71  VAL71      -0.2867
    110  CB         6.3140   31.2550   28.2630 C.3    71  VAL71       0.0252
    111  CG1        5.9750   31.5160   26.8120 C.3    71  VAL71       0.0019
    112  CG2        6.1490   29.7720   28.5900 C.3    71  VAL71       0.0019
    113  N          6.4490   33.2260   20.8750 N.3    89  LEU89      -0.1245
    114  CA         6.9710   32.9630   22.2120 C.3    89  LEU89       0.1561
    115  C          8.3540   32.3270   22.1640 C.2    89  LEU89       0.2260
    116  O          8.6900   31.6150   21.2180 O.2    89  LEU89      -0.2867
    117  CB         6.0180   32.0460   22.9830 C.3    89  LEU89       0.0270
    118  CG         4.5780   32.5240   23.1720 C.3    89  LEU89       0.0019
    119  CD1        3.7690   31.4720   23.9020 C.3    89  LEU89       0.0001
    120  CD2        4.5360   33.8370   23.9280 C.3    89  LEU89       0.0001
    121  N         10.3040   29.8340   24.6540 N.3    91  ALA91      -0.1245
    122  CA        10.1810   28.9910   25.8350 C.3    91  ALA91       0.1562
    123  C         11.5470   28.4730   26.2620 C.2    91  ALA91       0.2260
    124  O         12.2690   27.8960   25.4570 O.2    91  ALA91      -0.2867
    125  CB         9.2400   27.8320   25.5570 C.3    91  ALA91       0.0290
    126  N         13.7160   26.1920   29.3580 N.3    93  ALA93      -0.1245
    127  CA        13.5500   25.2030   30.4200 C.3    93  ALA93       0.1562
    128  C         14.9000   24.6910   30.9080 C.2    93  ALA93       0.2260
    129  O         15.8870   24.7290   30.1770 O.2    93  ALA93      -0.2867
    130  CB        12.6970   24.0440   29.9290 C.3    93  ALA93       0.0290
    131  N         16.5700   21.2360   32.9660 N.3    95  PHE95      -0.1241
    132  CA        16.2870   19.8740   33.4180 C.3    95  PHE95       0.1605
    133  C         17.5560   19.0340   33.5500 C.2    95  PHE95       0.2264
    134  O         18.6640   19.5310   33.3530 O.2    95  PHE95      -0.2867
    135  CB        15.3090   19.1980   32.4490 C.3    95  PHE95       0.0534
    136  CG        15.6980   19.3310   31.0020 C.ar   95  PHE95      -0.0203
    137  CD1       16.3390   18.2960   30.3400 C.ar   95  PHE95      -0.0042
    138  CD2       15.4250   20.4970   30.3060 C.ar   95  PHE95      -0.0042
    139  CE1       16.6990   18.4230   29.0090 C.ar   95  PHE95      -0.0003
    140  CE2       15.7830   20.6300   28.9780 C.ar   95  PHE95      -0.0003
    141  CZ        16.4200   19.5920   28.3280 C.ar   95  PHE95      -0.0000
    142  N         16.9920   23.9400   27.4280 N.3   101  SER101     -0.1217
    143  CA        16.3680   23.8740   26.1160 C.3   101  SER101      0.1889
    144  C         15.6750   25.1960   25.8450 C.2   101  SER101      0.2288
    145  O         15.1270   25.8120   26.7590 O.2   101  SER101     -0.2866
    146  CB        15.3690   22.7210   26.0350 C.3   101  SER101      0.2089
    147  OG        14.3080   22.9050   26.9520 O.3   101  SER101     -0.2183
    148  N         13.2930   27.2000   22.5880 N.3   103  VAL103     -0.1245
    149  CA        12.6860   27.1680   21.2640 C.3   103  VAL103      0.1561
    150  C         11.8090   28.3950   21.0540 C.2   103  VAL103      0.2260
    151  O         11.1890   28.9010   21.9920 O.2   103  VAL103     -0.2867
    152  CB        11.8610   25.8790   21.0420 C.3   103  VAL103      0.0252
    153  CG1       10.5890   25.8720   21.8920 C.3   103  VAL103      0.0019
    154  CG2       11.5230   25.7170   19.5660 C.3   103  VAL103      0.0019
    155  N          2.5220   30.4110   18.7500 N.3   107  PHE107     -0.1241
    156  CA         1.5730   29.7740   19.6490 C.3   107  PHE107      0.1605
    157  C          0.2080   30.4380   19.5580 C.2   107  PHE107      0.2264
    158  O          0.0720   31.6420   19.7810 O.2   107  PHE107     -0.2867
    159  CB         2.0960   29.8040   21.0820 C.3   107  PHE107      0.0534
    160  CG         3.2930   28.9300   21.2920 C.ar  107  PHE107     -0.0203
    161  CD1        3.1460   27.6350   21.7540 C.ar  107  PHE107     -0.0042
    162  CD2        4.5650   29.3950   21.0040 C.ar  107  PHE107     -0.0042
    163  CE1        4.2470   26.8230   21.9390 C.ar  107  PHE107     -0.0003
    164  CE2        5.6670   28.5890   21.1880 C.ar  107  PHE107     -0.0003
    165  CZ         5.5070   27.2990   21.6540 C.ar  107  PHE107     -0.0000
    166  N         -3.7980   30.6670   20.7790 N.3   109  TYR109     -0.1241
    167  CA        -4.6440   30.4620   21.9480 C.3   109  TYR109      0.1605
    168  C         -6.1100   30.5560   21.5470 C.2   109  TYR109      0.2264
    169  O         -6.4520   31.2210   20.5660 O.2   109  TYR109     -0.2867
    170  CB        -4.3270   31.4970   23.0290 C.3   109  TYR109      0.0534
    171  CG        -2.9450   31.3880   23.6340 C.ar  109  TYR109     -0.0201
    172  CD1       -2.7780   30.9740   24.9490 C.ar  109  TYR109     -0.0009
    173  CD2       -1.8120   31.7190   22.9040 C.ar  109  TYR109     -0.0009
    174  CE1       -1.5240   30.8800   25.5150 C.ar  109  TYR109      0.0417
    175  CE2       -0.5500   31.6250   23.4630 C.ar  109  TYR109      0.0417
    176  CZ        -0.4130   31.2050   24.7690 C.ar  109  TYR109      0.1957
    177  OH         0.8390   31.1110   25.3360 O.3   109  TYR109     -0.2866
    178  N         -4.5090   25.3900   23.0460 N.3   120  LEU120     -0.1245
    179  CA        -3.1800   25.9840   22.9860 C.3   120  LEU120      0.1561
    180  C         -2.3190   25.1360   22.0580 C.2   120  LEU120      0.2260
    181  O         -2.0380   23.9730   22.3540 O.2   120  LEU120     -0.2867
    182  CB        -2.5500   26.0800   24.3780 C.3   120  LEU120      0.0270
    183  CG        -1.0550   26.4290   24.4310 C.3   120  LEU120      0.0019
    184  CD1       -0.7280   27.6590   23.6010 C.3   120  LEU120      0.0001
    185  CD2       -0.6000   26.6280   25.8680 C.3   120  LEU120      0.0001
    186  N          6.2820   24.4720   16.1520 N.3   124  TYR124     -0.1241
    187  CA         7.7310   24.3390   16.2430 C.3   124  TYR124      0.1605
    188  C          8.1080   22.8650   16.1850 C.2   124  TYR124      0.2264
    189  O          7.2560   21.9970   16.3800 O.2   124  TYR124     -0.2867
    190  CB         8.2570   24.9700   17.5340 C.3   124  TYR124      0.0534
    191  CG         7.8350   24.2360   18.7880 C.ar  124  TYR124     -0.0201
    192  CD1        8.6630   23.2860   19.3730 C.ar  124  TYR124     -0.0009
    193  CD2        6.6070   24.4910   19.3860 C.ar  124  TYR124     -0.0009
    194  CE1        8.2800   22.6110   20.5180 C.ar  124  TYR124      0.0417
    195  CE2        6.2160   23.8230   20.5330 C.ar  124  TYR124      0.0417
    196  CZ         7.0560   22.8840   21.0930 C.ar  124  TYR124      0.1957
    197  OH         6.6720   22.2130   22.2310 O.3   124  TYR124     -0.2866
    198  N         14.7540   23.7440   18.2670 N.3   129  MET129     -0.1245
    199  CA        15.2170   23.7910   19.6530 C.3   129  MET129      0.1570
    200  C         16.7390   23.8920   19.7400 C.2   129  MET129      0.2261
    201  O         17.4590   23.3320   18.9160 O.2   129  MET129     -0.2867
    202  CB        14.7420   22.5650   20.4330 C.3   129  MET129      0.0387
    203  CG        13.2470   22.3160   20.3450 C.3   129  MET129      0.0595
    204  SD        12.5960   21.1470   21.5600 S.3   129  MET129     -0.1393
    205  CE        13.2680   21.7710   23.1040 C.3   129  MET129      0.0692
@<TRIPOS>BOND
     1   186   187    1
     2   188   187    1
     3   188   189    2
     4   187   190    1
     5   190   191    1
     6   198   199    1
     7   155   156    1
     8   191   192   ar
     9   191   193   ar
    10   201   200    2
    11   192   194   ar
    12   193   195   ar
    13   157   156    1
    14   157   158    2
    15   154   152    1
    16   156   159    1
    17   199   200    1
    18   199   202    1
    19   203   202    1
    20   203   204    1
    21   194   196   ar
    22   195   196   ar
    23   169   168    2
    24   166   167    1
    25   113   114    1
    26   162   164   ar
    27   162   160   ar
    28   152   149    1
    29   152   153    1
    30   150   149    1
    31   150   151    2
    32   159   160    1
    33   196   197    1
    34   164   165   ar
    35   116   115    2
    36   149   148    1
    37   160   161   ar
    38   168   167    1
    39   204   205    1
    40   165   163   ar
    41   161   163   ar
    42   167   170    1
    43    50    49    1
    44    50    51    2
    45   180   181    2
    46   180   179    1
    47   115   114    1
    48    49    48    1
    49    49    52    1
    50   114   117    1
    51   173   175   ar
    52   173   171   ar
    53   117   118    1
    54   179   178    1
    55   179   182    1
    56   170   171    1
    57   118   119    1
    58   118   120    1
    59   175   176   ar
    60    52    54    1
    61    52    53    1
    62    60    59    1
    63    42    43    2
    64    42    41    1
    65   184   183    1
    66   171   172   ar
    67    55    56    1
    68    57    58    2
    69    57    56    1
    70   182   183    1
    71   183   185    1
    72    41    40    1
    73    41    44    1
    74   121   122    1
    75   176   177    1
    76   176   174   ar
    77    59    56    1
    78    59    61    1
    79   172   174   ar
    80   124   123    2
    81   125   122    1
    82    46    44    1
    83   122   123    1
    84   144   143    1
    85   144   145    2
    86    44    45    1
    87     6     5    1
    88     5     2    1
    89   146   143    1
    90   146   147    1
    91   143   142    1
    92   111   110    1
    93    45    47    1
    94     2     1    1
    95     2     3    1
    96    70    72   ar
    97    70    68   ar
    98    72    71   ar
    99   110   107    1
   100   110   112    1
   101   141   140   ar
   102   141   139   ar
   103     3     4    2
   104   108   107    1
   105   108   109    2
   106   107   106    1
   107    68    67   ar
   108    81    82   ar
   109    81    79   ar
   110    14    12    1
   111   140   138   ar
   112   139   137   ar
   113    71    69   ar
   114    82    80   ar
   115   126   127    1
   116    79    78   ar
   117    80    78   ar
   118    67    69   ar
   119    67    66    1
   120   130   127    1
   121    78    77    1
   122   129   128    2
   123   138   136   ar
   124   137   136   ar
   125    12    11    1
   126    12    13    1
   127   127   128    1
   128    11     8    1
   129    66    63    1
   130   104   103    1
   131    77    74    1
   132   136   135    1
   133    15    16    1
   134    15     9   am
   135    16    17    1
   136    37    39   ar
   137    37    35   ar
   138     8     7    1
   139     8     9    1
   140    39    38   ar
   141    63    64    1
   142    63    62    1
   143   105   103    1
   144    90    88    1
   145    76    75    2
   146     9    10    2
   147   103   100    1
   148    74    75    1
   149    74    73    1
   150    88    87    1
   151    65    64    2
   152   135   132    1
   153    35    34   ar
   154    35    33   ar
   155    34    32   ar
   156   100   101    1
   157   100    99    1
   158    75    83   am
   159    98    96   ar
   160    24    23    1
   161   101   102    2
   162    25    23    1
   163    17    18    2
   164   131   132    1
   165    38    36   ar
   166    23    20    1
   167   134   133    2
   168   132   133    1
   169    83    84    1
   170    96    95    1
   171    96    97   ar
   172    94    93    2
   173    95    92    1
   174    32    31   ar
   175    87    84    1
   176    87    89    1
   177    33    36   ar
   178    33    31   ar
   179    84    85    1
   180    29    28    2
   181    31    30    1
   182    93    92    1
   183    20    19    1
   184    20    21    1
   185    92    91    1
   186    85    86    2
   187    28    27    1
   188    21    22    2
   189    30    27    1
   190    27    26    1
