@<TRIPOS>MOLECULE
tmp/5if7A00.pdb
 122 120 0 0 0
SMALL
GASTEIGER

@<TRIPOS>ATOM
      1  N        -31.7940  -35.4340   62.0380 N.3    42  ILE42      -0.1245
      2  CA       -32.4680  -36.6980   62.2840 C.3    42  ILE42       0.1561
      3  C        -33.4470  -36.9840   61.1600 C.2    42  ILE42       0.2260
      4  O        -33.4760  -38.0880   60.6040 O.2    42  ILE42      -0.2867
      5  CB       -33.1510  -36.6870   63.6620 C.3    42  ILE42       0.0252
      6  CG1      -32.0840  -36.6800   64.7660 C.3    42  ILE42       0.0019
      7  CG2      -34.1020  -37.8910   63.8010 C.3    42  ILE42       0.0019
      8  CD1      -32.6220  -36.3480   66.1490 C.3    42  ILE42       0.0001
      9  N        -31.5590  -38.1350   58.3720 N.3    45  MET45      -0.1230
     10  CA       -31.1010  -39.4980   58.6140 C.3    45  MET45       0.1702
     11  C        -32.2080  -40.4980   58.3120 C.2    45  MET45       0.2592
     12  O        -32.0060  -41.4610   57.5630 O.2    45  MET45      -0.2718
     13  CB       -30.6320  -39.6450   60.0600 C.3    45  MET45       0.0401
     14  CG       -29.4050  -38.8510   60.4250 C.3    45  MET45       0.0596
     15  SD       -27.9320  -39.6350   59.8020 S.3    45  MET45      -0.1393
     16  CE       -27.7310  -40.9570   60.9880 C.3    45  MET45       0.0692
     17  N        -33.3980  -40.2780   58.8770 N.am   46  ARG46      -0.1980
     18  CA       -34.4650  -41.2510   58.6970 C.3    46  ARG46       0.1597
     19  C        -34.9830  -41.2950   57.2600 C.2    46  ARG46       0.2287
     20  O        -35.7260  -42.2190   56.9180 O.2    46  ARG46      -0.2864
     21  CB       -35.6010  -40.9750   59.6880 C.3    46  ARG46       0.0334
     22  CG       -36.2910  -39.6720   59.4530 C.3    46  ARG46       0.0492
     23  CD       -37.2620  -39.3400   60.5670 C.3    46  ARG46       0.2205
     24  NE       -38.3390  -40.3180   60.6880 N.pl3  46  ARG46      -0.0865
     25  CZ       -38.3790  -41.2550   61.6270 C.cat  46  ARG46       0.5346
     26  NH1      -37.4000  -41.3350   62.5160 N.pl3  46  ARG46       0.1354
     27  NH2      -39.4050  -42.1030   61.6840 N.pl3  46  ARG46       0.1354
     28  N        -33.1210  -42.1800   55.0100 N.3    48  PHE48      -0.1227
     29  CA       -32.2400  -43.1840   54.4370 C.3    48  PHE48       0.1736
     30  C        -32.4230  -44.4880   55.1980 C.2    48  PHE48       0.2595
     31  O        -32.4560  -44.4880   56.4360 O.2    48  PHE48      -0.2718
     32  CB       -30.7850  -42.7020   54.4860 C.3    48  PHE48       0.0547
     33  CG       -29.8010  -43.6610   53.8810 C.ar   48  PHE48      -0.0202
     34  CD1      -29.8550  -43.9720   52.5310 C.ar   48  PHE48      -0.0042
     35  CD2      -28.8130  -44.2480   54.6660 C.ar   48  PHE48      -0.0042
     36  CE1      -28.9500  -44.8650   51.9780 C.ar   48  PHE48      -0.0003
     37  CE2      -27.9010  -45.1270   54.1250 C.ar   48  PHE48      -0.0003
     38  CZ       -27.9660  -45.4400   52.7780 C.ar   48  PHE48      -0.0000
     39  N        -32.5780  -45.5880   54.4580 N.am   49  PHE49      -0.1976
     40  CA       -32.8090  -46.8970   55.0540 C.3    49  PHE49       0.1639
     41  C        -31.7320  -47.9070   54.7190 C.2    49  PHE49       0.2290
     42  O        -31.7250  -48.9970   55.3100 O.2    49  PHE49      -0.2864
     43  CB       -34.1620  -47.4750   54.6120 C.3    49  PHE49       0.0560
     44  CG       -35.3300  -46.6090   54.9560 C.ar   49  PHE49      -0.0200
     45  CD1      -35.8090  -46.5620   56.2530 C.ar   49  PHE49      -0.0042
     46  CD2      -35.9500  -45.8450   53.9800 C.ar   49  PHE49      -0.0042
     47  CE1      -36.8850  -45.7640   56.5750 C.ar   49  PHE49      -0.0003
     48  CE2      -37.0240  -45.0420   54.2880 C.ar   49  PHE49      -0.0003
     49  CZ       -37.4960  -45.0000   55.5880 C.ar   49  PHE49      -0.0000
     50  N        -28.7350  -48.0600   55.5360 N.3    51  TRP51      -0.1227
     51  CA       -27.6640  -48.2270   56.5060 C.3    51  TRP51       0.1737
     52  C        -27.3840  -49.7060   56.6870 C.2    51  TRP51       0.2595
     53  O        -28.2620  -50.5510   56.4790 O.2    51  TRP51      -0.2718
     54  CB       -28.0310  -47.6240   57.8650 C.3    51  TRP51       0.0564
     55  CG       -28.3750  -46.1610   57.8840 C.ar   51  TRP51       0.0003
     56  CD1      -29.6050  -45.6120   58.1040 C.ar   51  TRP51       0.0946
     57  CD2      -27.4740  -45.0660   57.6960 C.ar   51  TRP51       0.0152
     58  NE1      -29.5310  -44.2400   58.0450 N.ar   51  TRP51      -0.2442
     59  CE2      -28.2300  -43.8800   57.8050 C.ar   51  TRP51       0.0810
     60  CE3      -26.1050  -44.9730   57.4360 C.ar   51  TRP51       0.0012
     61  CZ2      -27.6590  -42.6170   57.6640 C.ar   51  TRP51       0.0191
     62  CZ3      -25.5380  -43.7250   57.3020 C.ar   51  TRP51       0.0001
     63  CH2      -26.3160  -42.5610   57.4200 C.ar   51  TRP51       0.0015
     64  N        -26.1490  -50.0120   57.0780 N.am   52  LYS52      -0.1966
     65  CA       -25.7450  -51.3750   57.3920 C.3    52  LYS52       0.1728
     66  C        -24.6110  -51.3120   58.4040 C.2    52  LYS52       0.2616
     67  O        -24.1100  -50.2350   58.7340 O.2    52  LYS52      -0.2715
     68  CB       -25.3230  -52.1490   56.1390 C.3    52  LYS52       0.0311
     69  CG       -24.0080  -51.7050   55.5460 C.3    52  LYS52       0.0038
     70  CD       -23.7900  -52.3230   54.1820 C.3    52  LYS52       0.0206
     71  CE       -22.5500  -51.7540   53.5070 C.3    52  LYS52       0.1093
     72  NZ       -22.4530  -52.1760   52.0720 N.3    52  LYS52      -0.1314
     73  N        -24.2140  -52.4820   58.9000 N.am   53  GLU53      -0.1964
     74  CA       -23.1490  -52.5480   59.8900 C.3    53  GLU53       0.1718
     75  C        -21.8740  -51.9330   59.3240 C.2    53  GLU53       0.2458
     76  O        -21.3730  -52.4010   58.2890 O.2    53  GLU53      -0.2730
     77  CB       -22.8950  -53.9850   60.3210 C.3    53  GLU53       0.0428
     78  CG       -21.8500  -54.1300   61.4190 C.3    53  GLU53       0.1163
     79  CD       -22.2160  -53.3840   62.7070 C.2    53  GLU53       0.3649
     80  OE1      -23.4200  -53.1660   62.9690 O.co2  53  GLU53      -0.2457
     81  OE2      -21.2860  -53.0100   63.4570 O.co2  53  GLU53      -0.2457
     82  N        -21.3230  -50.9050   59.9540 N.am   54  PRO54      -0.2727
     83  CA       -20.1500  -50.2350   59.3920 C.3    54  PRO54       0.1402
     84  C        -18.8720  -51.0250   59.6290 C.2    54  PRO54       0.2269
     85  O        -18.7140  -51.7130   60.6360 O.2    54  PRO54      -0.2865
     86  CB       -20.1150  -48.9170   60.1680 C.3    54  PRO54       0.0296
     87  CG       -20.5850  -49.3620   61.5440 C.3    54  PRO54       0.0237
     88  CD       -21.7130  -50.3290   61.2510 C.3    54  PRO54       0.0939
     89  N        -24.7270  -42.8850   65.8270 N.3    76  LEU76      -0.1245
     90  CA       -26.0010  -43.5640   65.5740 C.3    76  LEU76       0.1561
     91  C        -26.6790  -44.0060   66.8670 C.2    76  LEU76       0.2260
     92  O        -27.9110  -44.0080   66.9530 O.2    76  LEU76      -0.2867
     93  CB       -25.7900  -44.7740   64.6770 C.3    76  LEU76       0.0270
     94  CG       -25.0790  -44.5070   63.3560 C.3    76  LEU76       0.0019
     95  CD1      -24.7480  -45.8430   62.7060 C.3    76  LEU76       0.0001
     96  CD2      -25.9850  -43.6840   62.4760 C.3    76  LEU76       0.0001
     97  N        -27.9740  -40.6530   68.4100 N.3    79  LEU79      -0.1231
     98  CA       -29.0950  -40.2390   67.5750 C.3    79  LEU79       0.1693
     99  C        -30.3150  -41.1170   67.8380 C.2    79  LEU79       0.2591
    100  O        -31.4350  -40.6140   67.9790 O.2    79  LEU79      -0.2718
    101  CB       -28.7130  -40.2720   66.1030 C.3    79  LEU79       0.0284
    102  CG       -27.6940  -39.2190   65.6880 C.3    79  LEU79       0.0019
    103  CD1      -27.3010  -39.3670   64.2110 C.3    79  LEU79       0.0001
    104  CD2      -28.2370  -37.8390   65.9940 C.3    79  LEU79       0.0001
    105  N        -30.1120  -42.4360   67.9240 N.am   80  GLN80      -0.1979
    106  CA       -31.2020  -43.3360   68.2770 C.3    80  GLN80       0.1601
    107  C        -31.6900  -43.0930   69.7020 C.2    80  GLN80       0.2287
    108  O        -32.8590  -43.3580   70.0100 O.2    80  GLN80      -0.2864
    109  CB       -30.7560  -44.7870   68.0940 C.3    80  GLN80       0.0394
    110  CG       -31.8620  -45.8250   68.2750 C.3    80  GLN80       0.0908
    111  CD       -33.0010  -45.6490   67.2830 C.2    80  GLN80       0.2608
    112  OE1      -32.7710  -45.4250   66.0920 O.2    80  GLN80      -0.2717
    113  NE2      -34.2370  -45.7400   67.7730 N.am   80  GLN80      -0.0878
    114  N        -34.2440  -40.4080   69.3490 N.3    83  GLU83      -0.1245
    115  CA       -35.4690  -40.9990   68.8090 C.3    83  GLU83       0.1567
    116  C        -36.4030  -41.4770   69.9160 C.2    83  GLU83       0.2260
    117  O        -37.6280  -41.3490   69.8050 O.2    83  GLU83      -0.2867
    118  CB       -35.1310  -42.1740   67.8800 C.3    83  GLU83       0.0388
    119  CG       -34.4390  -41.8080   66.5730 C.3    83  GLU83       0.1160
    120  CD       -35.4120  -41.3940   65.4840 C.2    83  GLU83       0.3649
    121  OE1      -36.2950  -40.5560   65.7550 O.co2  83  GLU83      -0.2457
    122  OE2      -35.2930  -41.9110   64.3530 O.co2  83  GLU83      -0.2457
@<TRIPOS>BOND
     1    36    34   ar
     2    36    38   ar
     3    72    71    1
     4    34    33   ar
     5    38    37   ar
     6    71    70    1
     7    33    32    1
     8    33    35   ar
     9    46    48   ar
    10    46    44   ar
    11    37    35   ar
    12    70    69    1
    13    48    49   ar
    14    29    32    1
    15    29    28    1
    16    29    30    1
    17    39    40    1
    18    39    30   am
    19    43    44    1
    20    43    40    1
    21    41    40    1
    22    41    42    2
    23    44    45   ar
    24    30    31    2
    25    50    51    1
    26    69    68    1
    27    49    47   ar
    28    68    65    1
    29    45    47   ar
    30    53    52    2
    31    51    52    1
    32    51    54    1
    33    52    64   am
    34    20    19    2
    35    64    65    1
    36    19    18    1
    37    62    63   ar
    38    62    60   ar
    39    65    66    1
    40    63    61   ar
    41    60    57   ar
    42    12    11    2
    43    61    59   ar
    44    57    59   ar
    45    57    55   ar
    46    59    58   ar
    47    54    55    1
    48    55    56   ar
    49    58    56   ar
    50    76    75    2
    51    11    10    1
    52    11    17   am
    53     9    10    1
    54    66    67    2
    55    66    73   am
    56    10    13    1
    57    18    17    1
    58    18    21    1
    59    73    74    1
    60    75    74    1
    61    75    82   am
    62    83    84    1
    63    83    82    1
    64    83    86    1
    65    22    21    1
    66    22    23    1
    67    84    85    2
    68    15    14    1
    69    15    16    1
    70    74    77    1
    71    82    88    1
    72    13    14    1
    73    86    87    1
    74    77    78    1
    75    23    24    1
    76     4     3    2
    77    24    25    2
    78     3     2    1
    79    88    87    1
    80    78    79    1
    81    25    27    1
    82    25    26    1
    83     1     2    1
    84     2     5    1
    85    96    94    1
    86    95    94    1
    87    79    80   ar
    88    79    81   ar
    89    94    93    1
    90     5     7    1
    91     5     6    1
    92   103   102    1
    93   122   120   ar
    94    93    90    1
    95     6     8    1
    96   120   121   ar
    97   120   119    1
    98    90    89    1
    99    90    91    1
   100   102   104    1
   101   102   101    1
   102   112   111    2
   103   101    98    1
   104   119   118    1
   105    91    92    2
   106   111   113   am
   107   111   110    1
   108    98    99    1
   109    98    97    1
   110    99   105   am
   111    99   100    2
   112   118   115    1
   113   105   106    1
   114   109   110    1
   115   109   106    1
   116   106   107    1
   117   115   114    1
   118   115   116    1
   119   107   108    2
   120   117   116    2
