@<TRIPOS>MOLECULE
tmp/5if8A00.pdb
 111 108 0 0 0
SMALL
GASTEIGER

@<TRIPOS>ATOM
      1  N        -31.7360  -35.2490   61.4440 N.3    38  ILE38      -0.1245
      2  CA       -32.3890  -36.5250   61.6970 C.3    38  ILE38       0.1561
      3  C        -33.3710  -36.8420   60.5830 C.2    38  ILE38       0.2260
      4  O        -33.4130  -37.9720   60.0780 O.2    38  ILE38      -0.2867
      5  CB       -33.0550  -36.5060   63.0850 C.3    38  ILE38       0.0252
      6  CG1      -31.9790  -36.2960   64.1480 C.3    38  ILE38       0.0019
      7  CG2      -33.8290  -37.8000   63.3450 C.3    38  ILE38       0.0019
      8  CD1      -32.4350  -36.5380   65.5350 C.3    38  ILE38       0.0001
      9  N        -31.4140  -38.0790   57.8110 N.3    41  MET41      -0.1230
     10  CA       -30.9720  -39.4430   58.0780 C.3    41  MET41       0.1702
     11  C        -32.0920  -40.4530   57.8310 C.2    41  MET41       0.2592
     12  O        -31.8550  -41.5240   57.2590 O.2    41  MET41      -0.2718
     13  CB       -30.4720  -39.5530   59.5190 C.3    41  MET41       0.0401
     14  CG       -29.2170  -38.7760   59.8130 C.3    41  MET41       0.0596
     15  SD       -27.8080  -39.6200   59.1040 S.3    41  MET41      -0.1393
     16  CE       -27.7410  -41.0220   60.2090 C.3    41  MET41       0.0692
     17  N        -33.3220  -40.1250   58.2380 N.am   42  ARG42      -0.1980
     18  CA       -34.3700  -41.1260   58.0880 C.3    42  ARG42       0.1597
     19  C        -34.8830  -41.2710   56.6610 C.2    42  ARG42       0.2287
     20  O        -35.6800  -42.1830   56.4150 O.2    42  ARG42      -0.2864
     21  CB       -35.5280  -40.8340   59.0400 C.3    42  ARG42       0.0334
     22  CG       -35.2740  -41.4060   60.4170 C.3    42  ARG42       0.0492
     23  CD       -34.8150  -42.8570   60.3110 C.3    42  ARG42       0.2205
     24  NE       -34.2960  -43.3640   61.5750 N.pl3  42  ARG42      -0.0865
     25  CZ       -33.9540  -44.6310   61.7830 C.cat  42  ARG42       0.5346
     26  NH1      -34.0740  -45.5130   60.7970 N.pl3  42  ARG42       0.1354
     27  NH2      -33.4830  -45.0130   62.9670 N.pl3  42  ARG42       0.1354
     28  N        -32.9190  -42.2780   54.3020 N.3    44  PHE44      -0.1241
     29  CA       -32.0440  -43.2880   53.7260 C.3    44  PHE44       0.1605
     30  C        -32.2450  -44.5930   54.4720 C.2    44  PHE44       0.2264
     31  O        -32.2200  -44.6130   55.7080 O.2    44  PHE44      -0.2867
     32  CB       -30.5880  -42.8400   53.8140 C.3    44  PHE44       0.0534
     33  CG       -29.6190  -43.7880   53.1910 C.ar   44  PHE44      -0.0203
     34  CD1      -29.5650  -43.9430   51.8170 C.ar   44  PHE44      -0.0042
     35  CD2      -28.7180  -44.4860   53.9750 C.ar   44  PHE44      -0.0042
     36  CE1      -28.6490  -44.8040   51.2400 C.ar   44  PHE44      -0.0003
     37  CE2      -27.7940  -45.3400   53.4000 C.ar   44  PHE44      -0.0003
     38  CZ       -27.7600  -45.5000   52.0380 C.ar   44  PHE44      -0.0000
     39  N        -28.6300  -48.2620   55.1110 N.3    47  TRP47      -0.1227
     40  CA       -27.5720  -48.4310   56.1060 C.3    47  TRP47       0.1737
     41  C        -27.2800  -49.9090   56.3270 C.2    47  TRP47       0.2595
     42  O        -28.1670  -50.7620   56.2310 O.2    47  TRP47      -0.2718
     43  CB       -27.9510  -47.7980   57.4530 C.3    47  TRP47       0.0564
     44  CG       -28.2390  -46.3040   57.4540 C.ar   47  TRP47       0.0003
     45  CD1      -29.4450  -45.7090   57.6700 C.ar   47  TRP47       0.0946
     46  CD2      -27.3000  -45.2330   57.2450 C.ar   47  TRP47       0.0152
     47  NE1      -29.3250  -44.3410   57.6040 N.ar   47  TRP47      -0.2442
     48  CE2      -28.0190  -44.0230   57.3430 C.ar   47  TRP47       0.0810
     49  CE3      -25.9290  -45.1810   56.9760 C.ar   47  TRP47       0.0012
     50  CZ2      -27.4100  -42.7730   57.1770 C.ar   47  TRP47       0.0191
     51  CZ3      -25.3280  -43.9340   56.8030 C.ar   47  TRP47       0.0001
     52  CH2      -26.0660  -42.7550   56.9100 C.ar   47  TRP47       0.0015
     53  N        -26.0260  -50.2150   56.6510 N.am   48  LYS48      -0.1966
     54  CA       -25.6530  -51.5820   56.9870 C.3    48  LYS48       0.1728
     55  C        -24.5080  -51.5360   57.9890 C.2    48  LYS48       0.2616
     56  O        -23.9700  -50.4680   58.2920 O.2    48  LYS48      -0.2715
     57  CB       -25.2690  -52.3810   55.7400 C.3    48  LYS48       0.0311
     58  CG       -23.9050  -52.0020   55.1590 C.3    48  LYS48       0.0038
     59  CD       -23.7910  -52.4340   53.6990 C.3    48  LYS48       0.0206
     60  CE       -22.4260  -52.1120   53.1280 C.3    48  LYS48       0.1093
     61  NZ       -22.4360  -52.1540   51.6500 N.3    48  LYS48      -0.1314
     62  N        -24.1290  -52.7160   58.4940 N.am   49  GLU49      -0.1964
     63  CA       -23.0320  -52.8280   59.4510 C.3    49  GLU49       0.1718
     64  C        -21.7650  -52.2230   58.8540 C.2    49  GLU49       0.2458
     65  O        -21.2670  -52.7270   57.8380 O.2    49  GLU49      -0.2730
     66  CB       -22.7810  -54.2860   59.8420 C.3    49  GLU49       0.0428
     67  CG       -21.6780  -54.4560   60.8760 C.3    49  GLU49       0.1163
     68  CD       -22.0090  -53.7750   62.1960 C.2    49  GLU49       0.3649
     69  OE1      -23.1970  -53.8010   62.5870 O.co2  49  GLU49      -0.2457
     70  OE2      -21.0880  -53.2100   62.8330 O.co2  49  GLU49      -0.2457
     71  N        -21.2150  -51.1680   59.4430 N.am   50  PRO50      -0.2727
     72  CA       -20.0890  -50.4700   58.8250 C.3    50  PRO50       0.1402
     73  C        -18.7680  -51.1790   59.0650 C.2    50  PRO50       0.2269
     74  O        -18.5760  -51.8700   60.0680 O.2    50  PRO50      -0.2865
     75  CB       -20.1110  -49.1010   59.5200 C.3    50  PRO50       0.0296
     76  CG       -20.6090  -49.4140   60.8870 C.3    50  PRO50       0.0237
     77  CD       -21.6060  -50.5540   60.7230 C.3    50  PRO50       0.0939
     78  N        -24.4280  -43.0430   65.2610 N.3    72  LEU72      -0.1245
     79  CA       -25.7150  -43.6400   64.9220 C.3    72  LEU72       0.1561
     80  C        -26.4630  -44.0610   66.1730 C.2    72  LEU72       0.2260
     81  O        -27.6950  -43.9770   66.2330 O.2    72  LEU72      -0.2867
     82  CB       -25.5250  -44.8530   64.0220 C.3    72  LEU72       0.0270
     83  CG       -25.0600  -44.6530   62.5930 C.3    72  LEU72       0.0019
     84  CD1      -24.9260  -46.0310   61.9780 C.3    72  LEU72       0.0001
     85  CD2      -26.0680  -43.7770   61.8400 C.3    72  LEU72       0.0001
     86  N        -27.8480  -40.8960   67.9040 N.3    75  LEU75      -0.1231
     87  CA       -28.9700  -40.3790   67.1370 C.3    75  LEU75       0.1693
     88  C        -30.1950  -41.2600   67.3450 C.2    75  LEU75       0.2591
     89  O        -31.3280  -40.7640   67.4220 O.2    75  LEU75      -0.2718
     90  CB       -28.6020  -40.2830   65.6530 C.3    75  LEU75       0.0284
     91  CG       -27.5400  -39.2540   65.2190 C.3    75  LEU75       0.0019
     92  CD1      -27.2780  -39.3500   63.7300 C.3    75  LEU75       0.0001
     93  CD2      -27.9320  -37.8170   65.5600 C.3    75  LEU75       0.0001
     94  N        -29.9800  -42.5740   67.4520 N.am   76  GLN76      -0.1979
     95  CA       -31.0690  -43.4770   67.8010 C.3    76  GLN76       0.1601
     96  C        -31.6750  -43.1120   69.1560 C.2    76  GLN76       0.2287
     97  O        -32.8980  -43.1880   69.3340 O.2    76  GLN76      -0.2864
     98  CB       -30.5600  -44.9180   67.7990 C.3    76  GLN76       0.0394
     99  CG       -31.6560  -45.9590   67.8980 C.3    76  GLN76       0.0908
    100  CD       -32.5460  -45.9590   66.6730 C.2    76  GLN76       0.2608
    101  OE1      -32.0620  -45.9400   65.5360 O.2    76  GLN76      -0.2717
    102  NE2      -33.8510  -45.9690   66.8940 N.am   76  GLN76      -0.0878
    103  N        -33.9070  -39.9950   68.9090 N.3    79  GLU79      -0.1245
    104  CA       -35.1990  -40.2490   68.2880 C.3    79  GLU79       0.1567
    105  C        -36.2460  -40.7080   69.3010 C.2    79  GLU79       0.2260
    106  O        -37.4330  -40.4070   69.1330 O.2    79  GLU79      -0.2867
    107  CB       -35.0380  -41.2620   67.1520 C.3    79  GLU79       0.0388
    108  CG       -35.3700  -40.6550   65.7890 C.3    79  GLU79       0.1160
    109  CD       -35.0640  -41.5730   64.6300 C.2    79  GLU79       0.3649
    110  OE1      -34.1780  -42.4470   64.7760 O.co2  79  GLU79      -0.2457
    111  OE2      -35.7080  -41.4140   63.5680 O.co2  79  GLU79      -0.2457
@<TRIPOS>BOND
     1    36    34   ar
     2    36    38   ar
     3    61    60    1
     4    34    33   ar
     5    38    37   ar
     6    60    59    1
     7    33    32    1
     8    33    35   ar
     9    37    35   ar
    10    59    58    1
    11    29    32    1
    12    29    28    1
    13    29    30    1
    14    30    31    2
    15    39    40    1
    16    58    57    1
    17    57    54    1
    18    40    41    1
    19    40    43    1
    20    42    41    2
    21    41    53   am
    22    20    19    2
    23    53    54    1
    24    19    18    1
    25    51    52   ar
    26    51    49   ar
    27    52    50   ar
    28    49    46   ar
    29    54    55    1
    30    50    48   ar
    31    46    48   ar
    32    46    44   ar
    33    12    11    2
    34    48    47   ar
    35    43    44    1
    36    44    45   ar
    37    47    45   ar
    38     9    10    1
    39    11    10    1
    40    11    17   am
    41    65    64    2
    42    55    56    2
    43    55    62   am
    44    10    13    1
    45    18    17    1
    46    18    21    1
    47    62    63    1
    48    72    73    1
    49    72    71    1
    50    72    75    1
    51    64    71   am
    52    64    63    1
    53    21    22    1
    54    73    74    2
    55    15    14    1
    56    15    16    1
    57    71    77    1
    58    63    66    1
    59    13    14    1
    60    75    76    1
    61    66    67    1
    62     4     3    2
    63    23    22    1
    64    23    24    1
    65     3     2    1
    66    77    76    1
    67    26    25    1
    68    67    68    1
    69     1     2    1
    70    24    25    2
    71     2     5    1
    72    25    27    1
    73    85    83    1
    74    84    83    1
    75    68    69   ar
    76    68    70   ar
    77    83    82    1
    78     5     7    1
    79     5     6    1
    80   111   109   ar
    81    92    91    1
    82    82    79    1
    83     6     8    1
    84   109   110   ar
    85   109   108    1
    86    79    78    1
    87    79    80    1
    88    91    93    1
    89    91    90    1
    90   101   100    2
    91    90    87    1
    92   108   107    1
    93    80    81    2
    94   100   102   am
    95   100    99    1
    96    87    88    1
    97    87    86    1
    98   107   104    1
    99    88    89    2
   100    88    94   am
   101    94    95    1
   102    98    95    1
   103    98    99    1
   104    95    96    1
   105   104   103    1
   106   104   105    1
   107   106   105    2
   108    96    97    2
