@<TRIPOS>MOLECULE
tmp/5if9A00.pdb
 140 133 0 0 0
SMALL
GASTEIGER

@<TRIPOS>ATOM
      1  N         14.1490    7.5570   -5.4740 N.3    12  GLY12      -0.1210
      2  CA        13.4220    7.0870   -4.3110 C.3    12  GLY12       0.1956
      3  C         12.7950    5.7230   -4.5300 C.2    12  GLY12       0.2612
      4  O         12.3850    5.3590   -5.6290 O.2    12  GLY12      -0.2717
      5  N         12.7200    4.9550   -3.4490 N.am   13  GLY13      -0.1942
      6  CA        11.9030    3.7590   -3.4740 C.3    13  GLY13       0.2014
      7  C         12.5790    2.5600   -4.0880 C.2    13  GLY13       0.2639
      8  O         11.8920    1.6600   -4.5640 O.2    13  GLY13      -0.2714
      9  N         13.9100    2.5130   -4.0610 N.am   14  VAL14      -0.1963
     10  CA        14.6770    1.4700   -4.7340 C.3    14  VAL14       0.1727
     11  C         15.2660    0.4710   -3.7460 C.2    14  VAL14       0.2616
     12  O         16.1590   -0.3010   -4.1120 O.2    14  VAL14      -0.2715
     13  CB        15.7760    2.0720   -5.6250 C.3    14  VAL14       0.0290
     14  CG1       15.1530    2.9410   -6.7090 C.3    14  VAL14       0.0023
     15  CG2       16.7770    2.8900   -4.7890 C.3    14  VAL14       0.0023
     16  N         14.7910    0.4820   -2.4970 N.am   15  ALA15      -0.1963
     17  CA        15.1510   -0.4580   -1.4330 C.3    15  ALA15       0.1728
     18  C         16.5070   -0.1670   -0.7910 C.2    15  ALA15       0.2616
     19  O         17.1790   -1.0900   -0.3190 O.2    15  ALA15      -0.2715
     20  CB        15.1000   -1.9080   -1.9440 C.3    15  ALA15       0.0334
     21  N         16.9050    1.1050   -0.7230 N.am   16  LYS16      -0.1963
     22  CA        18.0850    1.4590    0.0570 C.3    16  LYS16       0.1728
     23  C         17.9220    1.0270    1.5090 C.2    16  LYS16       0.2617
     24  O         18.7800    0.3280    2.0590 O.2    16  LYS16      -0.2715
     25  CB        18.3510    2.9690   -0.0060 C.3    16  LYS16       0.0311
     26  CG        18.7920    3.4950   -1.3840 C.3    16  LYS16       0.0038
     27  CD        19.1230    4.9930   -1.3380 C.3    16  LYS16       0.0206
     28  CE        17.8990    5.8700   -1.0900 C.3    16  LYS16       0.1093
     29  NZ        16.8500    5.7700   -2.1860 N.3    16  LYS16      -0.1314
     30  N         16.8260    1.4450    2.1460 N.am   17  THR17      -0.1937
     31  CA        16.6720    1.2290    3.5860 C.3    17  THR17       0.2028
     32  C         16.5090   -0.2470    3.9090 C.2    17  THR17       0.2642
     33  O         17.1020   -0.7470    4.8760 O.2    17  THR17      -0.2714
     34  CB        15.4740    2.0290    4.1050 C.3    17  THR17       0.1808
     35  OG1       15.7400    3.4250    3.9330 O.3    17  THR17      -0.2208
     36  CG2       15.2300    1.7310    5.5930 C.3    17  THR17       0.0379
     37  N         15.7020   -0.9540    3.1160 N.am   18  THR18      -0.1950
     38  CA        15.5760   -2.4000    3.2720 C.3    18  THR18       0.1897
     39  C         16.9310   -3.0750    3.1190 C.2    18  THR18       0.2313
     40  O         17.2380   -4.0500    3.8160 O.2    18  THR18      -0.2863
     41  CB        14.5850   -2.9510    2.2410 C.3    18  THR18       0.1794
     42  OG1       13.3170   -2.2850    2.3670 O.3    18  THR18      -0.2208
     43  CG2       14.3790   -4.4520    2.4250 C.3    18  THR18       0.0378
     44  N         18.3730    9.6650    6.6620 N.3    40  ASP40      -0.1239
     45  CA        17.1400   10.1990    6.0750 C.3    40  ASP40       0.1674
     46  C         16.3370   10.8980    7.1620 C.2    40  ASP40       0.2266
     47  O         15.9280   10.2390    8.1360 O.2    40  ASP40      -0.2867
     48  CB        16.3180    9.0750    5.4400 C.3    40  ASP40       0.1410
     49  CG        15.2130    9.5950    4.5230 C.2    40  ASP40       0.3668
     50  OD1       14.8400   10.7740    4.6440 O.co2  40  ASP40      -0.2456
     51  OD2       14.7170    8.8160    3.6830 O.co2  40  ASP40      -0.2456
     52  N         13.0550    6.3650    7.9730 N.3    44  CYS44      -0.1235
     53  CA        12.4970    5.0670    7.6000 C.3    44  CYS44       0.1677
     54  C         13.2440    3.9220    8.2720 C.2    44  CYS44       0.2270
     55  O         12.6210    2.9760    8.7740 O.2    44  CYS44      -0.2867
     56  CB        12.5240    4.9000    6.0800 C.3    44  CYS44       0.0956
     57  SG        11.7650    6.3130    5.2260 S.3    44  CYS44      -0.0801
     58  N         21.5220    6.3090    3.0250 N.3   125  CYS125     -0.1235
     59  CA        21.4370    7.6820    2.5290 C.3   125  CYS125      0.1677
     60  C         20.0220    8.0000    2.0430 C.2   125  CYS125      0.2270
     61  O         19.3000    7.1090    1.5780 O.2   125  CYS125     -0.2867
     62  CB        22.4260    7.8990    1.3870 C.3   125  CYS125      0.0956
     63  SG        24.1700    7.7910    1.9160 S.3   125  CYS125     -0.0801
     64  N         16.9890    9.8180   -0.4550 N.3   127  PRO127     -0.2116
     65  CA        16.8620    9.9650   -1.9190 C.3   127  PRO127      0.1372
     66  C         17.1860   11.3970   -2.3290 C.2   127  PRO127      0.2244
     67  O         16.3100   12.2200   -2.6440 O.2   127  PRO127     -0.2868
     68  CB        15.3900    9.6090   -2.1710 C.3   127  PRO127      0.0268
     69  CG        14.6920   10.0340   -0.9090 C.3   127  PRO127      0.0207
     70  CD        15.6740    9.6810    0.2070 C.3   127  PRO127      0.0892
     71  N         14.2130   -5.4130   -6.4270 N.3   184  LEU184     -0.1245
     72  CA        12.8730   -5.5670   -6.9940 C.3   184  LEU184      0.1561
     73  C         12.9110   -6.3990   -8.2760 C.2   184  LEU184      0.2260
     74  O         12.1240   -6.1830   -9.2070 O.2   184  LEU184     -0.2867
     75  CB        12.2090   -4.2040   -7.2250 C.3   184  LEU184      0.0270
     76  CG        12.2410   -3.3160   -5.9700 C.3   184  LEU184      0.0019
     77  CD1       11.7100   -1.9060   -6.2430 C.3   184  LEU184      0.0001
     78  CD2       11.4530   -3.9740   -4.8590 C.3   184  LEU184      0.0001
     79  N         18.2830   -9.0050   -5.6710 N.3   212  ILE212     -0.1231
     80  CA        17.3120   -9.1840   -4.5950 C.3   212  ILE212      0.1678
     81  C         15.9340   -9.2780   -5.2370 C.2   212  ILE212      0.2434
     82  O         15.4860   -8.2960   -5.8480 O.2   212  ILE212     -0.2733
     83  CB        17.3450   -8.0450   -3.5710 C.3   212  ILE212      0.0265
     84  CG1       18.7850   -7.7080   -3.1750 C.3   212  ILE212      0.0019
     85  CG2       16.5120   -8.4440   -2.3570 C.3   212  ILE212      0.0020
     86  CD1       19.5650   -8.9110   -2.6160 C.3   212  ILE212      0.0001
     87  N         15.2430  -10.4060   -5.1320 N.am  213  PRO213     -0.2718
     88  CA        13.9420  -10.5180   -5.7930 C.3   213  PRO213      0.1535
     89  C         12.9000   -9.6790   -5.0780 C.2   213  PRO213      0.2598
     90  O         13.0040   -9.4050   -3.8790 O.2   213  PRO213     -0.2715
     91  CB        13.6220  -12.0100   -5.6900 C.3   213  PRO213      0.0310
     92  CG        14.3340  -12.4390   -4.4340 C.3   213  PRO213      0.0237
     93  CD        15.6240  -11.6560   -4.4470 C.3   213  PRO213      0.0939
     94  N         11.8980   -9.2440   -5.8360 N.am  214  ARG214     -0.1964
     95  CA        10.7160   -8.6690   -5.2140 C.3   214  ARG214      0.1729
     96  C          9.9330   -9.7780   -4.5200 C.2   214  ARG214      0.2616
     97  O          9.7400  -10.8600   -5.0830 O.2   214  ARG214     -0.2715
     98  CB         9.8450   -7.9600   -6.2510 C.3   214  ARG214      0.0348
     99  CG         8.4560   -7.6120   -5.7300 C.3   214  ARG214      0.0492
    100  CD         7.5870   -6.9370   -6.7880 C.3   214  ARG214      0.2205
    101  NE         7.9630   -5.5400   -6.9980 N.pl3 214  ARG214     -0.0865
    102  CZ         7.6170   -4.5460   -6.1870 C.cat 214  ARG214      0.5346
    103  NH1        6.8930   -4.7930   -5.1040 N.pl3 214  ARG214      0.1354
    104  NH2        7.9990   -3.3050   -6.4530 N.pl3 214  ARG214      0.1354
    105  N          9.5000   -9.5210   -3.2930 N.am  215  THR215     -0.1951
    106  CA         8.7380  -10.5090   -2.5290 C.3   215  THR215      0.1897
    107  C          7.3010  -10.0490   -2.2940 C.2   215  THR215      0.2313
    108  O          6.7270   -9.3220   -3.1040 O.2   215  THR215     -0.2863
    109  CB         9.3920  -10.7970   -1.1630 C.3   215  THR215      0.1794
    110  OG1        9.2940   -9.6330   -0.3340 O.3   215  THR215     -0.2208
    111  CG2       10.8610  -11.1690   -1.3350 C.3   215  THR215      0.0378
    112  N          9.6100    0.7430    5.0450 N.3   216  SER216     -0.1202
    113  CA        10.6840   -0.1260    4.5690 C.3   216  SER216      0.2020
    114  C         10.6500   -1.4850    5.2730 C.2   216  SER216      0.2618
    115  O          9.8450   -1.6930    6.1840 O.2   216  SER216     -0.2717
    116  CB        12.0350    0.5470    4.7780 C.3   216  SER216      0.2103
    117  OG        12.2200    0.8630    6.1450 O.3   216  SER216     -0.2182
    118  N         11.5320   -2.4050    4.8670 N.am  217  VAL217     -0.1979
    119  CA        11.4510   -3.8020    5.2800 C.3   217  VAL217      0.1595
    120  C         12.7840   -4.2670    5.8650 C.2   217  VAL217      0.2287
    121  O         13.7970   -3.5690    5.8190 O.2   217  VAL217     -0.2864
    122  CB        11.0310   -4.7250    4.1150 C.3   217  VAL217      0.0276
    123  CG1       10.5670   -6.0440    4.7360 C.3   217  VAL217      0.0022
    124  CG2        9.8650   -4.0580    3.3850 C.3   217  VAL217      0.0022
    125  N         14.1720  -13.4450   -0.7080 N.3   225  GLY225     -0.1225
    126  CA        14.8080  -12.1510   -0.5050 C.3   225  GLY225      0.1811
    127  C         15.8660  -12.1990    0.5810 C.2   225  GLY225      0.2280
    128  O         16.9790  -11.6910    0.4060 O.2   225  GLY225     -0.2866
    129  N         19.9600  -11.5800    0.2420 N.3   229  TYR229     -0.1241
    130  CA        20.7080  -10.6320    1.0600 C.3   229  TYR229      0.1605
    131  C         21.8320  -11.3170    1.8240 C.2   229  TYR229      0.2264
    132  O         22.9230  -10.7560    1.9660 O.2   229  TYR229     -0.2867
    133  CB        19.7690   -9.9260    2.0350 C.3   229  TYR229      0.0534
    134  CG        19.1060   -8.6850    1.4640 C.ar  229  TYR229     -0.0201
    135  CD1       19.8600   -7.6630    0.9030 C.ar  229  TYR229     -0.0009
    136  CD2       17.7260   -8.5510    1.4810 C.ar  229  TYR229     -0.0009
    137  CE1       19.2520   -6.5310    0.3700 C.ar  229  TYR229      0.0417
    138  CE2       17.1110   -7.4260    0.9600 C.ar  229  TYR229      0.0417
    139  CZ        17.8730   -6.4270    0.4030 C.ar  229  TYR229      0.1957
    140  OH        17.2450   -5.3080   -0.1050 O.3   229  TYR229     -0.2866
@<TRIPOS>BOND
     1    74    73    2
     2    73    72    1
     3    75    72    1
     4    75    76    1
     5   101   100    1
     6   101   102    2
     7    72    71    1
     8   100    99    1
     9    14    13    1
    10   104   102    1
    11    98    99    1
    12    98    95    1
    13    77    76    1
    14   102   103    1
    15    76    78    1
    16    82    81    2
    17    94    95    1
    18    94    89   am
    19    88    91    1
    20    88    87    1
    21    88    89    1
    22    91    92    1
    23    79    80    1
    24     4     3    2
    25    13    15    1
    26    13    10    1
    27     1     2    1
    28    81    87   am
    29    81    80    1
    30    95    96    1
    31    87    93    1
    32    97    96    2
    33    89    90    2
    34    10     9    1
    35    10    11    1
    36    80    83    1
    37     8     7    2
    38     3     2    1
    39     3     5   am
    40    96   105   am
    41    93    92    1
    42    12    11    2
    43     7     9   am
    44     7     6    1
    45    11    16   am
    46    83    84    1
    47    83    85    1
    48     6     5    1
    49   105   106    1
    50    84    86    1
    51   108   107    2
    52    67    66    2
    53   106   107    1
    54   106   109    1
    55    16    17    1
    56    66    65    1
    57    29    28    1
    58    68    65    1
    59    68    69    1
    60    20    17    1
    61    65    64    1
    62    17    18    1
    63    26    27    1
    64    26    25    1
    65    27    28    1
    66   111   109    1
    67   109   110    1
    68    69    70    1
    69    18    21   am
    70    18    19    2
    71    21    22    1
    72   125   126    1
    73   126   127    1
    74    64    70    1
    75   140   139    1
    76    25    22    1
    77    22    23    1
    78   129   130    1
    79   137   139   ar
    80   137   135   ar
    81   139   138   ar
    82   128   127    2
    83   135   134   ar
    84   138   136   ar
    85   130   131    1
    86   130   133    1
    87    62    63    1
    88    62    59    1
    89   134   136   ar
    90   134   133    1
    91    23    24    2
    92    23    30   am
    93    61    60    2
    94   131   132    2
    95    60    59    1
    96    30    31    1
    97    41    42    1
    98    41    43    1
    99    41    38    1
   100    59    58    1
   101    37    38    1
   102    37    32   am
   103    39    38    1
   104    39    40    2
   105   124   122    1
   106    31    32    1
   107    31    34    1
   108    51    49   ar
   109    32    33    2
   110    35    34    1
   111    34    36    1
   112   122   123    1
   113   122   119    1
   114    49    50   ar
   115    49    48    1
   116   113   116    1
   117   113   112    1
   118   113   114    1
   119   116   117    1
   120   118   114   am
   121   118   119    1
   122    57    56    1
   123   114   115    2
   124   119   120    1
   125    48    45    1
   126   121   120    2
   127    45    44    1
   128    45    46    1
   129    56    53    1
   130    46    47    2
   131    53    52    1
   132    53    54    1
   133    54    55    2
