@<TRIPOS>MOLECULE
tmp/5ifbA00.pdb
 89 85 0 0 0
SMALL
GASTEIGER

@<TRIPOS>ATOM
      1  N        -31.9110  -35.2970   61.7120 N.3    39  ILE39      -0.1245
      2  CA       -32.5600  -36.5710   61.9740 C.3    39  ILE39       0.1561
      3  C        -33.5570  -36.8870   60.8710 C.2    39  ILE39       0.2260
      4  O        -33.5840  -38.0070   60.3470 O.2    39  ILE39      -0.2867
      5  CB       -33.2070  -36.5490   63.3690 C.3    39  ILE39       0.0252
      6  CG1      -32.1050  -36.4910   64.4350 C.3    39  ILE39       0.0019
      7  CG2      -34.1260  -37.7550   63.5590 C.3    39  ILE39       0.0019
      8  CD1      -32.5800  -36.0920   65.8070 C.3    39  ILE39       0.0001
      9  N        -31.5210  -38.0630   58.0220 N.3    42  MET42      -0.1230
     10  CA       -31.0840  -39.4430   58.2320 C.3    42  MET42       0.1702
     11  C        -32.2200  -40.4310   57.9980 C.2    42  MET42       0.2592
     12  O        -32.0100  -41.5010   57.4150 O.2    42  MET42      -0.2718
     13  CB       -30.5330  -39.6200   59.6500 C.3    42  MET42       0.0401
     14  CG       -29.3010  -38.7840   59.9730 C.3    42  MET42       0.0596
     15  SD       -27.8260  -39.5090   59.2770 S.3    42  MET42      -0.1393
     16  CE       -27.6380  -40.9870   60.2780 C.3    42  MET42       0.0692
     17  N        -33.4330  -40.0900   58.4330 N.am   43  ARG43      -0.1980
     18  CA       -34.5400  -41.0260   58.2750 C.3    43  ARG43       0.1597
     19  C        -35.0820  -41.1030   56.8530 C.2    43  ARG43       0.2287
     20  O        -36.0180  -41.8760   56.6270 O.2    43  ARG43      -0.2864
     21  CB       -35.6720  -40.6750   59.2350 C.3    43  ARG43       0.0334
     22  CG       -35.4000  -41.1520   60.6450 C.3    43  ARG43       0.0492
     23  CD       -35.2280  -42.6720   60.6700 C.3    43  ARG43       0.2205
     24  NE       -34.7620  -43.1720   61.9660 N.pl3  43  ARG43      -0.0865
     25  CZ       -34.1940  -44.3630   62.1460 C.cat  43  ARG43       0.5346
     26  NH1      -34.0240  -45.1770   61.1100 N.pl3  43  ARG43       0.1354
     27  NH2      -33.7790  -44.7370   63.3540 N.pl3  43  ARG43       0.1354
     28  N        -28.6990  -47.9670   55.1420 N.3    48  TRP48      -0.1227
     29  CA       -27.7040  -48.1380   56.1920 C.3    48  TRP48       0.1737
     30  C        -27.4010  -49.6130   56.3830 C.2    48  TRP48       0.2595
     31  O        -28.2400  -50.4740   56.1260 O.2    48  TRP48      -0.2718
     32  CB       -28.1910  -47.5470   57.5250 C.3    48  TRP48       0.0564
     33  CG       -28.5380  -46.0770   57.4760 C.ar   48  TRP48       0.0003
     34  CD1      -29.7930  -45.5230   57.5540 C.ar   48  TRP48       0.0946
     35  CD2      -27.6240  -44.9790   57.3140 C.ar   48  TRP48       0.0152
     36  NE1      -29.7100  -44.1560   57.4570 N.ar   48  TRP48      -0.2442
     37  CE2      -28.3930  -43.7940   57.3090 C.ar   48  TRP48       0.0810
     38  CE3      -26.2360  -44.8850   57.1750 C.ar   48  TRP48       0.0012
     39  CZ2      -27.8140  -42.5200   57.1610 C.ar   48  TRP48       0.0191
     40  CZ3      -25.6570  -43.6260   57.0250 C.ar   48  TRP48       0.0001
     41  CH2      -26.4500  -42.4590   57.0270 C.ar   48  TRP48       0.0015
     42  N        -26.1800  -49.9000   56.8110 N.am   49  LYS49      -0.1980
     43  CA       -25.7780  -51.2620   57.1150 C.3    49  LYS49       0.1596
     44  C        -24.6050  -51.1820   58.0760 C.2    49  LYS49       0.2287
     45  O        -24.0580  -50.1040   58.3190 O.2    49  LYS49      -0.2864
     46  CB       -25.4070  -52.0420   55.8510 C.3    49  LYS49       0.0298
     47  CG       -24.0690  -51.6620   55.2870 C.3    49  LYS49       0.0038
     48  CD       -23.9480  -52.1170   53.8390 C.3    49  LYS49       0.0206
     49  CE       -22.6050  -51.7220   53.2450 C.3    49  LYS49       0.1093
     50  NZ       -22.4820  -52.2040   51.8440 N.3    49  LYS49      -0.1314
     51  N        -24.5270  -42.7330   65.4950 N.3    73  LEU73      -0.1231
     52  CA       -25.7960  -43.3880   65.1770 C.3    73  LEU73       0.1693
     53  C        -26.5530  -43.7830   66.4370 C.2    73  LEU73       0.2591
     54  O        -27.7770  -43.6300   66.5080 O.2    73  LEU73      -0.2718
     55  CB       -25.5600  -44.6300   64.3200 C.3    73  LEU73       0.0284
     56  CG       -25.0290  -44.4280   62.9050 C.3    73  LEU73       0.0019
     57  CD1      -24.6740  -45.7850   62.2810 C.3    73  LEU73       0.0001
     58  CD2      -26.0860  -43.7010   62.1030 C.3    73  LEU73       0.0001
     59  N        -25.8460  -44.3300   67.4270 N.am   74  ALA74      -0.1980
     60  CA       -26.5090  -44.7460   68.6480 C.3    74  ALA74       0.1597
     61  C        -27.0840  -43.5530   69.4030 C.2    74  ALA74       0.2287
     62  O        -28.1830  -43.6380   69.9560 O.2    74  ALA74      -0.2864
     63  CB       -25.5290  -45.5230   69.5140 C.3    74  ALA74       0.0319
     64  N        -27.9340  -40.5440   68.0960 N.3    76  LEU76      -0.1231
     65  CA       -29.0820  -40.0500   67.3400 C.3    76  LEU76       0.1693
     66  C        -30.2980  -40.9320   67.5780 C.2    76  LEU76       0.2591
     67  O        -31.4350  -40.4450   67.6240 O.2    76  LEU76      -0.2718
     68  CB       -28.7610  -39.9930   65.8430 C.3    76  LEU76       0.0284
     69  CG       -27.6610  -39.0160   65.4180 C.3    76  LEU76       0.0019
     70  CD1      -27.3660  -39.1210   63.9270 C.3    76  LEU76       0.0001
     71  CD2      -28.0730  -37.6080   65.7860 C.3    76  LEU76       0.0001
     72  N        -30.0760  -42.2380   67.7130 N.am   77  GLN77      -0.1979
     73  CA       -31.1710  -43.1350   68.0380 C.3    77  GLN77       0.1601
     74  C        -31.7550  -42.8260   69.4150 C.2    77  GLN77       0.2287
     75  O        -32.9700  -42.9410   69.6080 O.2    77  GLN77      -0.2864
     76  CB       -30.6850  -44.5750   67.9530 C.3    77  GLN77       0.0394
     77  CG       -31.7820  -45.5990   68.0870 C.3    77  GLN77       0.0908
     78  CD       -32.2010  -46.1450   66.7500 C.2    77  GLN77       0.2608
     79  OE1      -31.3600  -46.5640   65.9380 O.2    77  GLN77      -0.2717
     80  NE2      -33.5090  -46.1430   66.4990 N.am   77  GLN77      -0.0878
     81  N        -34.1220  -39.8500   69.2690 N.3    80  GLU80      -0.1245
     82  CA       -35.4110  -40.2430   68.7130 C.3    80  GLU80       0.1567
     83  C        -36.3660  -40.8250   69.7510 C.2    80  GLU80       0.2260
     84  O        -37.5170  -41.1140   69.4040 O.2    80  GLU80      -0.2867
     85  CB       -35.2050  -41.2440   67.5800 C.3    80  GLU80       0.0388
     86  CG       -34.7870  -40.5900   66.2740 C.3    80  GLU80       0.1160
     87  CD       -34.7590  -41.5600   65.1150 C.2    80  GLU80       0.3649
     88  OE1      -33.9210  -42.4870   65.1360 O.co2  80  GLU80      -0.2457
     89  OE2      -35.5840  -41.4030   64.1870 O.co2  80  GLU80      -0.2457
@<TRIPOS>BOND
     1    50    49    1
     2    49    48    1
     3    48    47    1
     4    28    29    1
     5    47    46    1
     6    46    43    1
     7    31    30    2
     8    29    30    1
     9    29    32    1
    10    30    42   am
    11    20    19    2
    12    42    43    1
    13    19    18    1
    14    40    41   ar
    15    40    38   ar
    16    41    39   ar
    17    43    44    1
    18    39    37   ar
    19    38    35   ar
    20    37    35   ar
    21    37    36   ar
    22    35    33   ar
    23    12    11    2
    24    36    34   ar
    25    33    32    1
    26    33    34   ar
    27    11    10    1
    28    11    17   am
    29     9    10    1
    30    44    45    2
    31    10    13    1
    32    18    17    1
    33    18    21    1
    34    21    22    1
    35    15    14    1
    36    15    16    1
    37    13    14    1
    38     4     3    2
    39    22    23    1
    40    23    24    1
    41     3     2    1
    42    26    25    1
    43     1     2    1
    44    24    25    2
    45     2     5    1
    46    58    56    1
    47    25    27    1
    48    57    56    1
    49    56    55    1
    50     5     7    1
    51     5     6    1
    52    70    69    1
    53    89    87   ar
    54    55    52    1
    55     6     8    1
    56    87    88   ar
    57    87    86    1
    58    52    51    1
    59    52    53    1
    60    69    71    1
    61    69    68    1
    62    68    65    1
    63    79    78    2
    64    86    85    1
    65    53    54    2
    66    53    59   am
    67    80    78   am
    68    78    77    1
    69    65    66    1
    70    65    64    1
    71    59    60    1
    72    66    67    2
    73    66    72   am
    74    85    82    1
    75    72    73    1
    76    76    73    1
    77    76    77    1
    78    73    74    1
    79    60    61    1
    80    60    63    1
    81    82    81    1
    82    82    83    1
    83    61    62    2
    84    84    83    2
    85    74    75    2
