@<TRIPOS>MOLECULE
tmp/5ifkA00.pdb
 93 86 0 0 0
SMALL
GASTEIGER

@<TRIPOS>ATOM
      1  N         22.7580  -50.4130  -19.7800 N.3   118  ALA118     -0.1231
      2  CA        21.3710  -50.6400  -19.4170 C.3   118  ALA118      0.1694
      3  C         20.5800  -49.3810  -19.7550 C.2   118  ALA118      0.2592
      4  O         21.1140  -48.2730  -19.6880 O.2   118  ALA118     -0.2718
      5  CB        21.2480  -50.9900  -17.9480 C.3   118  ALA118      0.0304
      6  N         19.3220  -49.5410  -20.1440 N.am  119  ALA119     -0.1966
      7  CA        18.4900  -48.3770  -20.4210 C.3   119  ALA119      0.1728
      8  C         17.0450  -48.6090  -20.0110 C.2   119  ALA119      0.2616
      9  O         16.5670  -49.7250  -20.0300 O.2   119  ALA119     -0.2715
     10  CB        18.5580  -48.0070  -21.9000 C.3   119  ALA119      0.0334
     11  N         16.3510  -47.5350  -19.6530 N.am  120  GLY120     -0.1955
     12  CA        14.9340  -47.6200  -19.3850 C.3   120  GLY120      0.1869
     13  C         14.2180  -47.5070  -20.7070 C.2   120  GLY120      0.2309
     14  O         14.5920  -46.6950  -21.5630 O.2   120  GLY120     -0.2863
     15  N         20.9520  -38.9620  -20.1530 N.3   197  VAL197     -0.1245
     16  CA        20.6430  -38.0160  -19.0850 C.3   197  VAL197      0.1561
     17  C         21.6570  -38.2700  -17.9800 C.2   197  VAL197      0.2260
     18  O         22.2550  -39.3470  -17.9260 O.2   197  VAL197     -0.2867
     19  CB        19.2000  -38.1690  -18.5430 C.3   197  VAL197      0.0252
     20  CG1       18.1810  -37.9950  -19.6640 C.3   197  VAL197      0.0019
     21  CG2       19.0100  -39.5320  -17.8750 C.3   197  VAL197      0.0019
     22  N         16.2570  -42.0550  -11.2560 N.3   202  PHE202     -0.1227
     23  CA        15.4100  -42.5430  -12.3440 C.3   202  PHE202      0.1736
     24  C         14.3810  -41.4620  -12.6690 C.2   202  PHE202      0.2595
     25  O         13.9960  -40.6860  -11.7900 O.2   202  PHE202     -0.2718
     26  CB        14.6870  -43.8420  -11.9600 C.3   202  PHE202      0.0547
     27  CG        15.5990  -45.0060  -11.7100 C.ar  202  PHE202     -0.0202
     28  CD1       16.3920  -45.5170  -12.7250 C.ar  202  PHE202     -0.0042
     29  CD2       15.6230  -45.6280  -10.4620 C.ar  202  PHE202     -0.0042
     30  CE1       17.2180  -46.6240  -12.4930 C.ar  202  PHE202     -0.0003
     31  CE2       16.4350  -46.7220  -10.2280 C.ar  202  PHE202     -0.0003
     32  CZ        17.2330  -47.2230  -11.2430 C.ar  202  PHE202     -0.0000
     33  N         13.9160  -41.4290  -13.9140 N.am  203  GLU203     -0.1979
     34  CA        13.0630  -40.3450  -14.3910 C.3   203  GLU203      0.1602
     35  C         11.7080  -40.3230  -13.7090 C.2   203  GLU203      0.2287
     36  O         11.1000  -41.3740  -13.4730 O.2   203  GLU203     -0.2864
     37  CB        12.8520  -40.4530  -15.9090 C.3   203  GLU203      0.0415
     38  CG        14.1200  -40.3000  -16.7260 C.3   203  GLU203      0.1163
     39  CD        15.0500  -41.4990  -16.5870 C.2   203  GLU203      0.3649
     40  OE1       16.2790  -41.2980  -16.6690 O.co2 203  GLU203     -0.2457
     41  OE2       14.5600  -42.6360  -16.3750 O.co2 203  GLU203     -0.2457
     42  N         16.3900  -44.5810  -22.4610 N.3   219  VAL219     -0.1231
     43  CA        17.1550  -43.5670  -21.7310 C.3   219  VAL219      0.1692
     44  C         18.1810  -44.2190  -20.8220 C.2   219  VAL219      0.2593
     45  O         17.9010  -45.2200  -20.1810 O.2   219  VAL219     -0.2718
     46  CB        16.2350  -42.6460  -20.8940 C.3   219  VAL219      0.0266
     47  CG1       15.3420  -43.4780  -19.9600 C.3   219  VAL219      0.0020
     48  CG2       17.0650  -41.6350  -20.0940 C.3   219  VAL219      0.0020
     49  N         19.3830  -43.6640  -20.7740 N.am  220  GLY220     -0.1942
     50  CA        20.3810  -44.1650  -19.8390 C.3   220  GLY220      0.2014
     51  C         21.2980  -43.0690  -19.3340 C.2   220  GLY220      0.2638
     52  O         21.2340  -41.9200  -19.7970 O.2   220  GLY220     -0.2714
     53  N         22.1630  -43.4280  -18.3880 N.am  221  MET221     -0.1976
     54  CA        23.0110  -42.4630  -17.7170 C.3   221  MET221      0.1605
     55  C         24.4590  -42.5520  -18.1790 C.2   221  MET221      0.2287
     56  O         25.3460  -42.1050  -17.4700 O.2   221  MET221     -0.2864
     57  CB        22.9530  -42.6810  -16.2020 C.3   221  MET221      0.0413
     58  CG        21.5610  -42.7060  -15.6220 C.3   221  MET221      0.0598
     59  SD        21.5660  -43.1500  -13.8710 S.3   221  MET221     -0.1393
     60  CE        19.8110  -43.1110  -13.5130 C.3   221  MET221      0.0692
     61  N         16.1950  -52.6270  -19.4550 N.3   244  THR244     -0.1203
     62  CA        16.1630  -53.3090  -18.1510 C.3   244  THR244      0.1994
     63  C         14.8640  -53.0910  -17.3990 C.2   244  THR244      0.2617
     64  O         14.5800  -53.7830  -16.4250 O.2   244  THR244     -0.2717
     65  CB        17.3080  -52.8490  -17.2410 C.3   244  THR244      0.1784
     66  OG1       17.3080  -51.4140  -17.1640 O.3   244  THR244     -0.2211
     67  CG2       18.6280  -53.3320  -17.7970 C.3   244  THR244      0.0376
     68  N         14.0870  -52.1200  -17.8550 N.am  245  ASN245     -0.1974
     69  CA        12.8630  -51.7300  -17.1840 C.3   245  ASN245      0.1688
     70  C         12.0410  -50.8410  -18.1070 C.2   245  ASN245      0.2292
     71  O         12.5740  -50.2330  -19.0410 O.2   245  ASN245     -0.2864
     72  CB        13.1790  -51.0050  -15.8680 C.3   245  ASN245      0.1181
     73  CG        14.0430  -49.7750  -16.0680 C.2   245  ASN245      0.2629
     74  OD1       15.2440  -49.8820  -16.3410 O.2   245  ASN245     -0.2716
     75  ND2       13.4360  -48.5900  -15.9380 N.am  245  ASN245     -0.0877
     76  N          9.9770  -47.5100  -18.3790 N.3   247  CYS247     -0.1235
     77  CA         9.7650  -46.2780  -17.6420 C.3   247  CYS247      0.1677
     78  C          8.2810  -46.0290  -17.4200 C.2   247  CYS247      0.2270
     79  O          7.4420  -46.2550  -18.3080 O.2   247  CYS247     -0.2867
     80  CB        10.4100  -45.1060  -18.3740 C.3   247  CYS247      0.0956
     81  SG        12.1810  -45.3890  -18.6510 S.3   247  CYS247     -0.0801
     82  N         10.9980  -47.8760  -10.8410 N.3   268  ALA268     -0.1245
     83  CA        12.3070  -48.4190  -11.1970 C.3   268  ALA268      0.1562
     84  C         13.1470  -48.6390   -9.9440 C.2   268  ALA268      0.2260
     85  O         13.0960  -47.8380   -9.0010 O.2   268  ALA268     -0.2867
     86  CB        13.0350  -47.4980  -12.1680 C.3   268  ALA268      0.0290
     87  N         17.2090  -53.5390  -12.4430 N.3   273  VAL273     -0.1245
     88  CA        18.2050  -53.2830  -13.4730 C.3   273  VAL273      0.1561
     89  C         19.2580  -54.3950  -13.4690 C.2   273  VAL273      0.2260
     90  O         19.5800  -54.9590  -14.5150 O.2   273  VAL273     -0.2867
     91  CB        18.8860  -51.9110  -13.2820 C.3   273  VAL273      0.0252
     92  CG1       20.0320  -51.7350  -14.2720 C.3   273  VAL273      0.0019
     93  CG2       17.8650  -50.7890  -13.4450 C.3   273  VAL273      0.0019
@<TRIPOS>BOND
     1    42    43    1
     2    10     7    1
     3    43    46    1
     4    43    44    1
     5    14    13    2
     6    46    48    1
     7    46    47    1
     8    44    49   am
     9    44    45    2
    10    49    50    1
    11    13    12    1
    12     7     6    1
    13     7     8    1
    14    15    16    1
    15     6     3   am
    16     9     8    2
    17     8    11   am
    18    50    51    1
    19    52    51    2
    20     1     2    1
    21     3     4    2
    22     3     2    1
    23    20    19    1
    24    11    12    1
    25    61    62    1
    26     2     5    1
    27    51    53   am
    28    16    19    1
    29    16    17    1
    30    71    70    2
    31    81    80    1
    32    19    21    1
    33    53    54    1
    34    76    77    1
    35    80    77    1
    36    79    78    2
    37    55    54    1
    38    55    56    2
    39    62    63    1
    40    62    65    1
    41    70    69    1
    42    17    18    2
    43    68    63   am
    44    68    69    1
    45    67    65    1
    46    54    57    1
    47    77    78    1
    48    63    64    2
    49    65    66    1
    50    69    72    1
    51    38    39    1
    52    38    37    1
    53    40    39   ar
    54    39    41   ar
    55    74    73    2
    56    57    58    1
    57    73    75   am
    58    73    72    1
    59    37    34    1
    60    58    59    1
    61    90    89    2
    62    34    33    1
    63    34    35    1
    64    92    91    1
    65    33    24   am
    66    59    60    1
    67    35    36    2
    68    88    89    1
    69    88    91    1
    70    88    87    1
    71    93    91    1
    72    28    30   ar
    73    28    27   ar
    74    24    23    1
    75    24    25    2
    76    30    32   ar
    77    23    26    1
    78    23    22    1
    79    86    83    1
    80    26    27    1
    81    27    29   ar
    82    32    31   ar
    83    83    82    1
    84    83    84    1
    85    29    31   ar
    86    84    85    2
