@<TRIPOS>MOLECULE
tmp/5iflH00.pdb
 157 149 0 0 0
SMALL
GASTEIGER

@<TRIPOS>ATOM
      1  N         -7.6760   49.2950   58.3860 N.3    90  SER90      -0.1202
      2  CA        -6.8020   48.1480   58.1840 C.3    90  SER90       0.2020
      3  C         -7.5860   46.8870   58.5030 C.2    90  SER90       0.2619
      4  O         -7.2460   46.1320   59.4130 O.2    90  SER90      -0.2717
      5  CB        -5.5440   48.2500   59.0540 C.3    90  SER90       0.2103
      6  OG        -4.5220   47.3950   58.5720 O.3    90  SER90      -0.2182
      7  N         -8.6450   46.6750   57.7310 N.am   91  ILE91      -0.1965
      8  CA        -9.6100   45.6220   57.9980 C.3    91  ILE91       0.1727
      9  C         -9.8650   44.8020   56.7440 C.2    91  ILE91       0.2617
     10  O         -9.9700   45.3460   55.6450 O.2    91  ILE91      -0.2715
     11  CB       -10.9470   46.2000   58.5030 C.3    91  ILE91       0.0290
     12  CG1      -10.7770   46.7980   59.8990 C.3    91  ILE91       0.0022
     13  CG2      -12.0300   45.1340   58.4970 C.3    91  ILE91       0.0023
     14  CD1      -12.0080   47.5100   60.3970 C.3    91  ILE91       0.0001
     15  N         -9.9560   43.4900   56.9080 N.am   92  GLY92      -0.1940
     16  CA       -10.2490   42.6170   55.7900 C.3    92  GLY92       0.2014
     17  C        -10.7300   41.2590   56.2490 C.2    92  GLY92       0.2639
     18  O        -10.2890   40.7490   57.2790 O.2    92  GLY92      -0.2714
     19  N        -11.6480   40.6740   55.4880 N.am   93  PHE93      -0.1959
     20  CA       -12.1050   39.3250   55.7790 C.3    93  PHE93       0.1771
     21  C        -12.8700   38.6900   54.6280 C.2    93  PHE93       0.2619
     22  O        -13.6320   39.3480   53.9180 O.2    93  PHE93      -0.2715
     23  CB       -12.9830   39.3100   57.0320 C.3    93  PHE93       0.0574
     24  CG       -13.5410   37.9520   57.3560 C.ar   93  PHE93      -0.0200
     25  CD1      -12.7680   37.0110   58.0150 C.ar   93  PHE93      -0.0042
     26  CD2      -14.8330   37.6120   56.9910 C.ar   93  PHE93      -0.0042
     27  CE1      -13.2750   35.7590   58.3100 C.ar   93  PHE93      -0.0003
     28  CE2      -15.3450   36.3620   57.2830 C.ar   93  PHE93      -0.0003
     29  CZ       -14.5650   35.4340   57.9430 C.ar   93  PHE93      -0.0000
     30  N        -12.6480   37.3950   54.4610 N.am   94  ALA94      -0.1977
     31  CA       -13.4310   36.5710   53.5590 C.3    94  ALA94       0.1597
     32  C        -13.4330   35.1580   54.1190 C.2    94  ALA94       0.2287
     33  O        -12.4580   34.7460   54.7490 O.2    94  ALA94      -0.2864
     34  CB       -12.8580   36.6080   52.1530 C.3    94  ALA94       0.0319
     35  N        -12.7550   31.3760   54.4490 N.3    96  ARG96      -0.1245
     36  CA       -11.4500   30.8440   54.0690 C.3    96  ARG96       0.1563
     37  C        -11.4510   30.0480   52.7640 C.2    96  ARG96       0.2260
     38  O        -10.4380   30.0090   52.0660 O.2    96  ARG96      -0.2867
     39  CB       -10.8850   29.9760   55.1940 C.3    96  ARG96       0.0307
     40  CG        -9.3640   29.9490   55.2080 C.3    96  ARG96       0.0489
     41  CD        -8.8110   29.8580   56.6200 C.3    96  ARG96       0.2205
     42  NE        -9.4230   28.7730   57.3790 N.pl3  96  ARG96      -0.0865
     43  CZ        -9.0620   27.4980   57.2800 C.cat  96  ARG96       0.5346
     44  NH1       -9.6720   26.5760   58.0120 N.pl3  96  ARG96       0.1354
     45  NH2       -8.0920   27.1460   56.4490 N.pl3  96  ARG96       0.1354
     46  N        -10.7650   32.0820   49.5740 N.3    99  ILE99      -0.1245
     47  CA        -9.4030   32.4900   49.2560 C.3    99  ILE99       0.1561
     48  C         -8.4810   31.2770   49.2460 C.2    99  ILE99       0.2260
     49  O         -7.3070   31.3670   49.6050 O.2    99  ILE99      -0.2867
     50  CB        -8.8700   33.5380   50.2480 C.3    99  ILE99       0.0252
     51  CG1       -8.8560   32.9720   51.6680 C.3    99  ILE99       0.0019
     52  CG2       -9.7060   34.8080   50.1810 C.3    99  ILE99       0.0019
     53  CD1       -8.2530   33.9090   52.6890 C.3    99  ILE99       0.0001
     54  N         -4.2760   45.5640   48.0550 N.3   145  TYR145     -0.1241
     55  CA        -3.2820   44.6020   47.6000 C.3   145  TYR145      0.1605
     56  C         -3.3040   44.4680   46.0800 C.2   145  TYR145      0.2264
     57  O         -4.3330   44.6950   45.4410 O.2   145  TYR145     -0.2867
     58  CB        -3.5210   43.2380   48.2550 C.3   145  TYR145      0.0534
     59  CG        -2.5220   42.1790   47.8500 C.ar  145  TYR145     -0.0201
     60  CD1       -1.1580   42.3850   48.0140 C.ar  145  TYR145     -0.0009
     61  CD2       -2.9410   40.9750   47.2990 C.ar  145  TYR145     -0.0009
     62  CE1       -0.2400   41.4200   47.6430 C.ar  145  TYR145      0.0417
     63  CE2       -2.0300   40.0050   46.9250 C.ar  145  TYR145      0.0417
     64  CZ        -0.6810   40.2330   47.0990 C.ar  145  TYR145      0.1957
     65  OH         0.2310   39.2710   46.7280 O.3   145  TYR145     -0.2866
     66  N         -5.9720   34.4300   45.9410 N.3   155  TYR155     -0.1241
     67  CA        -6.5460   35.6630   46.4680 C.3   155  TYR155      0.1605
     68  C         -8.0330   35.7400   46.1170 C.2   155  TYR155      0.2264
     69  O         -8.8380   36.2290   46.9110 O.2   155  TYR155     -0.2867
     70  CB        -5.7960   36.8910   45.9470 C.3   155  TYR155      0.0534
     71  CG        -5.9300   38.1000   46.8520 C.ar  155  TYR155     -0.0201
     72  CD1       -5.4840   38.0550   48.1660 C.ar  155  TYR155     -0.0009
     73  CD2       -6.4860   39.2870   46.3920 C.ar  155  TYR155     -0.0009
     74  CE1       -5.5990   39.1490   49.0000 C.ar  155  TYR155      0.0417
     75  CE2       -6.6030   40.3870   47.2190 C.ar  155  TYR155      0.0417
     76  CZ        -6.1590   40.3130   48.5210 C.ar  155  TYR155      0.1957
     77  OH        -6.2760   41.4080   49.3460 O.3   155  TYR155     -0.2866
     78  N        -11.2480   37.8730   47.3980 N.3   158  MET158     -0.1245
     79  CA       -10.6670   39.0300   48.0720 C.3   158  MET158      0.1570
     80  C        -10.2190   40.0840   47.0610 C.2   158  MET158      0.2261
     81  O        -10.2880   41.2840   47.3260 O.2   158  MET158     -0.2867
     82  CB        -9.4860   38.6030   48.9460 C.3   158  MET158      0.0387
     83  CG        -9.1430   39.5790   50.0630 C.3   158  MET158      0.0595
     84  SD       -10.5280   39.8910   51.1760 S.3   158  MET158     -0.1393
     85  CE        -9.7630   40.9800   52.3730 C.3   158  MET158      0.0692
     86  N        -11.1610   44.0780   47.0600 N.3   162  LYS162     -0.1245
     87  CA       -10.1050   45.0850   47.0610 C.3   162  LYS162      0.1561
     88  C        -10.2470   46.0640   45.9080 C.2   162  LYS162      0.2260
     89  O         -9.9620   47.2530   46.0570 O.2   162  LYS162     -0.2867
     90  CB        -8.7340   44.4160   47.0050 C.3   162  LYS162      0.0271
     91  CG        -8.3540   43.7730   48.3050 C.3   162  LYS162      0.0035
     92  CD        -8.4300   44.8120   49.3960 C.3   162  LYS162      0.0206
     93  CE        -7.8450   44.2850   50.6710 C.3   162  LYS162      0.1093
     94  NZ        -8.2200   45.1070   51.8540 N.3   162  LYS162     -0.1314
     95  N          3.3570   41.6660   50.2370 N.3   190  PRO190     -0.2102
     96  CA         3.0520   40.6140   51.2090 C.3   190  PRO190      0.1504
     97  C          3.8290   40.7660   52.5140 C.2   190  PRO190      0.2575
     98  O          5.0410   40.9860   52.5070 O.2   190  PRO190     -0.2718
     99  CB         3.4690   39.3350   50.4790 C.3   190  PRO190      0.0282
    100  CG         4.4660   39.7830   49.4590 C.3   190  PRO190      0.0208
    101  CD         4.0000   41.1370   49.0240 C.3   190  PRO190      0.0893
    102  N          3.1140   40.6410   53.6260 N.am  191  ILE191     -0.1980
    103  CA         3.7120   40.7170   54.9490 C.3   191  ILE191      0.1595
    104  C          3.1380   39.6150   55.8210 C.2   191  ILE191      0.2287
    105  O          1.9220   39.4360   55.8960 O.2   191  ILE191     -0.2864
    106  CB         3.4670   42.0730   55.6300 C.3   191  ILE191      0.0276
    107  CG1        4.0630   43.2120   54.8030 C.3   191  ILE191      0.0022
    108  CG2        4.0660   42.0730   57.0280 C.3   191  ILE191      0.0022
    109  CD1        3.9110   44.5680   55.4580 C.3   191  ILE191      0.0001
    110  N          1.5210   38.2390   58.4040 N.3   193  THR193     -0.1218
    111  CA         0.6270   38.5880   59.5050 C.3   193  THR193      0.1862
    112  C         -0.3320   37.4370   59.7990 C.2   193  THR193      0.2287
    113  O         -0.2840   36.4030   59.1340 O.2   193  THR193     -0.2866
    114  CB        -0.1950   39.8570   59.1940 C.3   193  THR193      0.1770
    115  OG1       -1.1200   39.5890   58.1320 O.3   193  THR193     -0.2211
    116  CG2        0.7220   41.0040   58.7990 C.3   193  THR193      0.0375
    117  N         -3.7100   37.2960   59.3560 N.3   195  ALA195     -0.1231
    118  CA        -4.6090   37.0920   58.2200 C.3   195  ALA195      0.1694
    119  C         -3.8940   36.3860   57.0800 C.2   195  ALA195      0.2591
    120  O         -4.4880   35.5710   56.3740 O.2   195  ALA195     -0.2718
    121  CB        -5.1840   38.4110   57.7330 C.3   195  ALA195      0.0304
    122  N         -2.6170   36.7130   56.9030 N.am  196  ALA196     -0.1980
    123  CA        -1.8140   36.1490   55.8240 C.3   196  ALA196      0.1597
    124  C         -1.7680   34.6260   55.8890 C.2   196  ALA196      0.2287
    125  O         -1.5650   33.9600   54.8740 O.2   196  ALA196     -0.2864
    126  CB        -0.4040   36.7200   55.8630 C.3   196  ALA196      0.0319
    127  N         -4.1170   32.6320   56.2930 N.3   198  GLY198     -0.1210
    128  CA        -5.2820   32.0460   55.6540 C.3   198  GLY198      0.1956
    129  C         -5.1920   31.9520   54.1410 C.2   198  GLY198      0.2611
    130  O         -6.0040   31.2760   53.5080 O.2   198  GLY198     -0.2717
    131  N         -4.2060   32.6290   53.5600 N.am  199  ILE199     -0.1979
    132  CA        -3.9740   32.5510   52.1210 C.3   199  ILE199      0.1595
    133  C         -3.0820   31.3590   51.8130 C.2   199  ILE199      0.2287
    134  O         -1.9520   31.2760   52.2960 O.2   199  ILE199     -0.2864
    135  CB        -3.3270   33.8370   51.5630 C.3   199  ILE199      0.0276
    136  CG1       -4.2520   35.0380   51.7730 C.3   199  ILE199      0.0022
    137  CG2       -2.9900   33.6700   50.0830 C.3   199  ILE199      0.0022
    138  CD1       -3.6610   36.3540   51.3170 C.3   199  ILE199      0.0001
    139  N          1.1520   31.1020   51.1440 N.3   202  PHE202     -0.1241
    140  CA         1.5770   32.4870   51.3080 C.3   202  PHE202      0.1605
    141  C          3.0990   32.5780   51.2670 C.2   202  PHE202      0.2264
    142  O          3.6610   33.5880   50.8430 O.2   202  PHE202     -0.2867
    143  CB         1.0400   33.0590   52.6220 C.3   202  PHE202      0.0534
    144  CG         1.4190   34.4930   52.8660 C.ar  202  PHE202     -0.0203
    145  CD1        0.7480   35.5200   52.2210 C.ar  202  PHE202     -0.0042
    146  CD2        2.4350   34.8160   53.7500 C.ar  202  PHE202     -0.0042
    147  CE1        1.0890   36.8410   52.4480 C.ar  202  PHE202     -0.0003
    148  CE2        2.7800   36.1360   53.9810 C.ar  202  PHE202     -0.0003
    149  CZ         2.1060   37.1490   53.3290 C.ar  202  PHE202     -0.0000
    150  N          4.5440   33.1250   47.8840 N.3   205  ILE205     -0.1245
    151  CA         4.3970   34.5200   47.4930 C.3   205  ILE205      0.1561
    152  C          5.5150   35.3840   48.0730 C.2   205  ILE205      0.2260
    153  O          6.0620   36.2460   47.3840 O.2   205  ILE205     -0.2867
    154  CB         3.0330   35.0830   47.9380 C.3   205  ILE205      0.0252
    155  CG1        1.8970   34.3050   47.2700 C.3   205  ILE205      0.0019
    156  CG2        2.9390   36.5670   47.6190 C.3   205  ILE205      0.0019
    157  CD1        0.5150   34.8520   47.5660 C.3   205  ILE205      0.0001
@<TRIPOS>BOND
     1    57    56    2
     2    88    89    2
     3    88    87    1
     4    66    67    1
     5    70    67    1
     6    70    71    1
     7    56    55    1
     8    68    67    1
     9    68    69    2
    10    73    71   ar
    11    73    75   ar
    12    65    64    1
    13    71    72   ar
    14    63    64   ar
    15    63    61   ar
    16    90    87    1
    17    90    91    1
    18    86    87    1
    19    80    81    2
    20    80    79    1
    21    64    62   ar
    22    75    76   ar
    23   155   157    1
    24   155   154    1
    25    61    59   ar
    26   153   152    2
    27    78    79    1
    28   151   150    1
    29   151   154    1
    30   151   152    1
    31    55    54    1
    32    55    58    1
    33   156   154    1
    34    62    60   ar
    35    59    60   ar
    36    59    58    1
    37    79    82    1
    38    72    74   ar
    39    91    92    1
    40    76    74   ar
    41    76    77    1
    42    82    83    1
    43   101   100    1
    44   101    95    1
    45    48    47    1
    46    48    49    2
    47    47    46    1
    48    47    50    1
    49    92    93    1
    50   100    99    1
    51    83    84    1
    52   137   135    1
    53    52    50    1
    54    95    96    1
    55    50    51    1
    56    99    96    1
    57    93    94    1
    58   142   141    2
    59   139   140    1
    60    84    85    1
    61    96    97    1
    62   141   140    1
    63   140   143    1
    64   138   136    1
    65   135   136    1
    66   135   132    1
    67    51    53    1
    68   133   132    1
    69   133   134    2
    70    38    37    2
    71   132   131    1
    72    34    31    1
    73   145   147   ar
    74   145   144   ar
    75   147   149   ar
    76    98    97    2
    77    97   102   am
    78   143   144    1
    79    37    36    1
    80   144   146   ar
    81   149   148   ar
    82   130   129    2
    83    31    32    1
    84    31    30    1
    85   131   129   am
    86   102   103    1
    87   146   148   ar
    88    22    21    2
    89    36    35    1
    90    36    39    1
    91    32    33    2
    92   129   128    1
    93    30    21   am
    94    21    20    1
    95   107   109    1
    96   107   106    1
    97   125   124    2
    98   103   106    1
    99   103   104    1
   100    39    40    1
   101    40    41    1
   102    19    20    1
   103    19    17   am
   104   106   108    1
   105    10     9    2
   106   128   127    1
   107    20    23    1
   108    16    17    1
   109    16    15    1
   110   104   105    2
   111   123   126    1
   112   123   124    1
   113   123   122    1
   114    17    18    2
   115   120   119    2
   116    45    43    1
   117    41    42    1
   118     9    15   am
   119     9     8    1
   120   122   119   am
   121    26    28   ar
   122    26    24   ar
   123    23    24    1
   124   119   118    1
   125    43    42    2
   126    43    44    1
   127    28    29   ar
   128    24    25   ar
   129     7     8    1
   130     7     3   am
   131   121   118    1
   132    29    27   ar
   133     8    11    1
   134    25    27   ar
   135   115   114    1
   136     2     1    1
   137     2     3    1
   138     2     5    1
   139   118   117    1
   140   110   111    1
   141    13    11    1
   142    11    12    1
   143     3     4    2
   144     6     5    1
   145   116   114    1
   146   113   112    2
   147   114   111    1
   148   111   112    1
   149    12    14    1
