@<TRIPOS>MOLECULE
tmp/5ifpA06.pdb
 130 124 0 0 0
SMALL
GASTEIGER

@<TRIPOS>ATOM
      1  N         16.8240  -19.3350  -15.5600 N.3   100  ASN100     -0.1240
      2  CA        17.8270  -20.4110  -15.6060 C.3   100  ASN100      0.1653
      3  C         18.7590  -20.1220  -16.8040 C.2   100  ASN100      0.2266
      4  O         19.6140  -19.2470  -16.6930 O.2   100  ASN100     -0.2867
      5  CB        17.1410  -21.8010  -15.6130 C.3   100  ASN100      0.1155
      6  CG        18.0290  -22.9050  -15.0580 C.2   100  ASN100      0.2627
      7  OD1       18.3510  -22.9150  -13.8680 O.2   100  ASN100     -0.2716
      8  ND2       18.4100  -23.8470  -15.9030 N.am  100  ASN100     -0.0877
      9  N         21.3260  -21.3110  -18.3840 N.3   102  GLU102     -0.1245
     10  CA        22.7800  -21.3660  -18.2560 C.3   102  GLU102      0.1567
     11  C         23.3780  -19.9510  -18.2190 C.2   102  GLU102      0.2260
     12  O         24.4380  -19.6970  -18.8000 O.2   102  GLU102     -0.2867
     13  CB        23.3950  -22.2260  -19.3810 C.3   102  GLU102      0.0388
     14  CG        23.1500  -23.7180  -19.2090 C.3   102  GLU102      0.1160
     15  CD        21.7550  -24.1620  -19.5900 C.2   102  GLU102      0.3649
     16  OE1       21.3720  -23.9990  -20.7680 O.co2 102  GLU102     -0.2457
     17  OE2       21.0360  -24.6850  -18.7050 O.co2 102  GLU102     -0.2457
     18  N         10.1390  -23.3650  -15.2640 N.3   160  GLU160     -0.1245
     19  CA        10.3150  -24.6880  -14.6570 C.3   160  GLU160      0.1567
     20  C         10.0440  -24.6450  -13.1510 C.2   160  GLU160      0.2260
     21  O         10.8680  -25.0720  -12.3310 O.2   160  GLU160     -0.2867
     22  CB        11.7060  -25.2640  -14.9830 C.3   160  GLU160      0.0388
     23  CG        11.8650  -25.6580  -16.4480 C.3   160  GLU160      0.1160
     24  CD        13.0950  -26.4870  -16.7520 C.2   160  GLU160      0.3649
     25  OE1       14.0830  -26.4380  -15.9830 O.co2 160  GLU160     -0.2457
     26  OE2       13.0690  -27.1840  -17.7940 O.co2 160  GLU160     -0.2457
     27  N          9.2630  -28.6340  -15.6210 N.3   197  ALA197     -0.1245
     28  CA        10.4980  -29.3470  -16.0180 C.3   197  ALA197      0.1562
     29  C         10.2420  -30.8140  -16.3560 C.2   197  ALA197      0.2260
     30  O         10.9140  -31.3890  -17.2090 O.2   197  ALA197     -0.2867
     31  CB        11.5600  -29.2400  -14.9390 C.3   197  ALA197      0.0290
     32  N          8.6540  -29.5240  -20.3470 N.3   218  ASP218     -0.1239
     33  CA         9.9200  -29.6180  -21.0690 C.3   218  ASP218      0.1674
     34  C         10.3640  -31.0630  -21.1760 C.2   218  ASP218      0.2266
     35  O          9.8450  -31.9450  -20.4790 O.2   218  ASP218     -0.2867
     36  CB        10.9760  -28.7660  -20.3620 C.3   218  ASP218      0.1410
     37  CG        10.6130  -27.2820  -20.3440 C.2   218  ASP218      0.3668
     38  OD1        9.7330  -26.8810  -21.1200 O.co2 218  ASP218     -0.2456
     39  OD2       11.2240  -26.5060  -19.5720 O.co2 218  ASP218     -0.2456
     40  N         14.2370  -33.1710  -22.3250 N.3   220  TYR220     -0.1241
     41  CA        15.5900  -33.2920  -22.8710 C.3   220  TYR220      0.1605
     42  C         15.9880  -34.7580  -22.7740 C.2   220  TYR220      0.2264
     43  O         16.8600  -35.1400  -21.9740 O.2   220  TYR220     -0.2867
     44  CB        16.5660  -32.4140  -22.1060 C.3   220  TYR220      0.0534
     45  CG        16.3420  -30.9320  -22.2620 C.ar  220  TYR220     -0.0201
     46  CD1       15.3360  -30.2830  -21.5540 C.ar  220  TYR220     -0.0009
     47  CD2       17.1560  -30.1670  -23.0930 C.ar  220  TYR220     -0.0009
     48  CE1       15.1370  -28.9170  -21.6770 C.ar  220  TYR220      0.0417
     49  CE2       16.9660  -28.8000  -23.2200 C.ar  220  TYR220      0.0417
     50  CZ        15.9580  -28.1780  -22.5120 C.ar  220  TYR220      0.1957
     51  OH        15.7750  -26.8120  -22.6190 O.3   220  TYR220     -0.2866
     52  N         22.8730  -35.3510  -22.1210 N.3   224  PHE224     -0.1241
     53  CA        23.9520  -34.3810  -22.3200 C.3   224  PHE224      0.1605
     54  C         25.3400  -35.0030  -22.4020 C.2   224  PHE224      0.2264
     55  O         26.3390  -34.3000  -22.2460 O.2   224  PHE224     -0.2867
     56  CB        23.8860  -33.3450  -21.1950 C.3   224  PHE224      0.0534
     57  CG        22.4990  -32.8340  -20.9560 C.ar  224  PHE224     -0.0203
     58  CD1       21.9240  -31.9290  -21.8450 C.ar  224  PHE224     -0.0042
     59  CD2       21.7380  -33.3060  -19.8910 C.ar  224  PHE224     -0.0042
     60  CE1       20.6300  -31.4750  -21.6590 C.ar  224  PHE224     -0.0003
     61  CE2       20.4420  -32.8570  -19.7010 C.ar  224  PHE224     -0.0003
     62  CZ        19.8890  -31.9440  -20.5850 C.ar  224  PHE224     -0.0000
     63  N         10.0710  -26.5220  -24.0440 N.3   258  GLU258     -0.1245
     64  CA        11.4730  -26.7290  -24.3890 C.3   258  GLU258      0.1567
     65  C         11.6630  -28.1890  -24.7120 C.2   258  GLU258      0.2260
     66  O         11.6210  -29.0430  -23.8170 O.2   258  GLU258     -0.2867
     67  CB        12.4220  -26.3430  -23.2530 C.3   258  GLU258      0.0388
     68  CG        12.2550  -24.9350  -22.7120 C.3   258  GLU258      0.1160
     69  CD        13.0790  -24.6960  -21.4540 C.2   258  GLU258      0.3649
     70  OE1       14.0170  -25.4820  -21.1730 O.co2 258  GLU258     -0.2457
     71  OE2       12.7840  -23.7200  -20.7320 O.co2 258  GLU258     -0.2457
     72  N         24.1430  -28.2040  -23.4920 N.3   264  TYR264     -0.1241
     73  CA        25.1620  -27.3650  -22.8610 C.3   264  TYR264      0.1605
     74  C         26.4840  -28.1480  -22.8150 C.2   264  TYR264      0.2264
     75  O         26.5050  -29.3730  -22.9650 O.2   264  TYR264     -0.2867
     76  CB        24.7280  -26.9200  -21.4490 C.3   264  TYR264      0.0534
     77  CG        24.5410  -28.0620  -20.4720 C.ar  264  TYR264     -0.0201
     78  CD1       25.6260  -28.5930  -19.7750 C.ar  264  TYR264     -0.0009
     79  CD2       23.2800  -28.6290  -20.2590 C.ar  264  TYR264     -0.0009
     80  CE1       25.4650  -29.6550  -18.8950 C.ar  264  TYR264      0.0417
     81  CE2       23.1130  -29.6900  -19.3820 C.ar  264  TYR264      0.0417
     82  CZ        24.2080  -30.1990  -18.7070 C.ar  264  TYR264      0.1957
     83  OH        24.0510  -31.2480  -17.8300 O.3   264  TYR264     -0.2866
     84  N         14.8250  -25.8940  -27.8260 N.3   302  TYR302     -0.1241
     85  CA        15.8330  -25.1880  -27.0390 C.3   302  TYR302      0.1605
     86  C         17.2000  -25.8380  -27.3250 C.2   302  TYR302      0.2264
     87  O         17.3960  -26.9900  -26.9200 O.2   302  TYR302     -0.2867
     88  CB        15.4930  -25.3030  -25.5400 C.3   302  TYR302      0.0534
     89  CG        16.3410  -24.3940  -24.6660 C.ar  302  TYR302     -0.0201
     90  CD1       17.6770  -24.6970  -24.3980 C.ar  302  TYR302     -0.0009
     91  CD2       15.8090  -23.2340  -24.1120 C.ar  302  TYR302     -0.0009
     92  CE1       18.4610  -23.8620  -23.6130 C.ar  302  TYR302      0.0417
     93  CE2       16.5890  -22.3890  -23.3300 C.ar  302  TYR302      0.0417
     94  CZ        17.9110  -22.7070  -23.0810 C.ar  302  TYR302      0.1957
     95  OH        18.7030  -21.8720  -22.3180 O.3   302  TYR302     -0.2866
     96  N         25.7580  -24.5530  -28.4240 N.3   324  TYR324     -0.1241
     97  CA        24.7170  -25.4820  -28.0070 C.3   324  TYR324      0.1605
     98  C         24.5620  -26.7020  -28.9330 C.2   324  TYR324      0.2264
     99  O         23.7180  -27.5560  -28.6780 O.2   324  TYR324     -0.2867
    100  CB        23.3660  -24.7400  -27.8210 C.3   324  TYR324      0.0534
    101  CG        22.4900  -25.3520  -26.7530 C.ar  324  TYR324     -0.0201
    102  CD1       22.7290  -25.1160  -25.3990 C.ar  324  TYR324     -0.0009
    103  CD2       21.4390  -26.1880  -27.1000 C.ar  324  TYR324     -0.0009
    104  CE1       21.9360  -25.7080  -24.4180 C.ar  324  TYR324      0.0417
    105  CE2       20.6450  -26.7810  -26.1420 C.ar  324  TYR324      0.0417
    106  CZ        20.8920  -26.5450  -24.8050 C.ar  324  TYR324      0.1957
    107  OH        20.0740  -27.1700  -23.8940 O.3   324  TYR324     -0.2866
    108  N         22.9090  -20.7240  -10.5960 N.3   764  GLU764     -0.1245
    109  CA        21.4690  -20.8050  -10.8540 C.3   764  GLU764      0.1567
    110  C         20.7020  -21.1680   -9.5680 C.2   764  GLU764      0.2260
    111  O         21.3070  -21.3970   -8.5190 O.2   764  GLU764     -0.2867
    112  CB        21.2060  -21.8090  -11.9820 C.3   764  GLU764      0.0388
    113  CG        21.7270  -21.3280  -13.3360 C.3   764  GLU764      0.1160
    114  CD        21.5690  -22.3590  -14.4370 C.2   764  GLU764      0.3649
    115  OE1       21.8490  -23.5520  -14.1890 O.co2 764  GLU764     -0.2457
    116  OE2       21.1660  -21.9800  -15.5580 O.co2 764  GLU764     -0.2457
    117  N         17.6720  -23.5060   -9.3050 N.3   766  TRP766     -0.1241
    118  CA        16.6900  -24.3940   -9.9220 C.3   766  TRP766      0.1605
    119  C         15.6230  -24.9050   -8.9490 C.2   766  TRP766      0.2264
    120  O         14.4550  -24.9950   -9.3170 O.2   766  TRP766     -0.2867
    121  CB        17.3770  -25.5730  -10.6160 C.3   766  TRP766      0.0550
    122  CG        16.4500  -26.3150  -11.5140 C.ar  766  TRP766      0.0003
    123  CD1       16.1070  -25.9850  -12.7880 C.ar  766  TRP766      0.0946
    124  CD2       15.7330  -27.5070  -11.1970 C.ar  766  TRP766      0.0152
    125  NE1       15.2120  -26.9000  -13.2930 N.ar  766  TRP766     -0.2442
    126  CE2       14.9690  -27.8500  -12.3350 C.ar  766  TRP766      0.0810
    127  CE3       15.6610  -28.3240  -10.0590 C.ar  766  TRP766      0.0012
    128  CZ2       14.1410  -28.9770  -12.3690 C.ar  766  TRP766      0.0191
    129  CZ3       14.8460  -29.4490  -10.0940 C.ar  766  TRP766      0.0001
    130  CH2       14.0930  -29.7640  -11.2460 C.ar  766  TRP766      0.0015
@<TRIPOS>BOND
     1    98    99    2
     2    98    97    1
     3    96    97    1
     4    97   100    1
     5    84    85    1
     6   100   101    1
     7    86    85    1
     8    86    87    2
     9   103   101   ar
    10   103   105   ar
    11    85    88    1
    12   101   102   ar
    13   105   106   ar
    14    88    89    1
    15   102   104   ar
    16   106   104   ar
    17   106   107    1
    18    65    64    1
    19    65    66    2
    20    89    90   ar
    21    89    91   ar
    22    90    92   ar
    23    64    63    1
    24    64    67    1
    25    91    93   ar
    26    92    94   ar
    27    72    73    1
    28    93    94   ar
    29    67    68    1
    30    49    47   ar
    31    49    50   ar
    32    47    45   ar
    33    94    95    1
    34    75    74    2
    35    41    42    1
    36    41    40    1
    37    41    44    1
    38    73    74    1
    39    73    76    1
    40    42    43    2
    41    68    69    1
    42    51    50    1
    43    50    48   ar
    44    54    53    1
    45    54    55    2
    46    53    52    1
    47    53    56    1
    48    45    44    1
    49    45    46   ar
    50    58    60   ar
    51    58    57   ar
    52    48    46   ar
    53    60    62   ar
    54    69    70   ar
    55    69    71   ar
    56    76    77    1
    57    56    57    1
    58    34    33    1
    59    34    35    2
    60    38    37   ar
    61    33    36    1
    62    33    32    1
    63    57    59   ar
    64    16    15   ar
    65    62    61   ar
    66    77    79   ar
    67    77    78   ar
    68    36    37    1
    69    37    39   ar
    70    79    81   ar
    71    59    61   ar
    72    78    80   ar
    73    15    14    1
    74    15    17   ar
    75    81    82   ar
    76    13    14    1
    77    13    10    1
    78    80    82   ar
    79    12    11    2
    80    82    83    1
    81     9    10    1
    82    10    11    1
    83    26    24   ar
    84    30    29    2
    85     3     4    2
    86     3     2    1
    87    24    23    1
    88    24    25   ar
    89    23    22    1
    90    29    28    1
    91    28    27    1
    92    28    31    1
    93     8     6   am
    94     5     2    1
    95     5     6    1
    96     2     1    1
    97   116   114   ar
    98    18    19    1
    99     6     7    2
   100    22    19    1
   101    19    20    1
   102   114   115   ar
   103   114   113    1
   104   113   112    1
   105   125   123   ar
   106   125   126   ar
   107    20    21    2
   108   123   122   ar
   109   128   126   ar
   110   128   130   ar
   111   126   124   ar
   112   112   109    1
   113   122   124   ar
   114   122   121    1
   115   130   129   ar
   116   124   127   ar
   117   109   108    1
   118   109   110    1
   119   121   118    1
   120   129   127   ar
   121   118   117    1
   122   118   119    1
   123   110   111    2
   124   120   119    2
