@<TRIPOS>MOLECULE
tmp/5iftA06.pdb
 103 99 0 0 0
SMALL
GASTEIGER

@<TRIPOS>ATOM
      1  N         17.1430  -19.4820  -15.4110 N.3   100  ASN100     -0.1240
      2  CA        18.1730  -20.5320  -15.4530 C.3   100  ASN100      0.1653
      3  C         19.0970  -20.2670  -16.6650 C.2   100  ASN100      0.2266
      4  O         19.9940  -19.4310  -16.5720 O.2   100  ASN100     -0.2867
      5  CB        17.5270  -21.9370  -15.4010 C.3   100  ASN100      0.1155
      6  CG        18.4520  -22.9890  -14.8050 C.2   100  ASN100      0.2627
      7  OD1       18.7530  -22.9660  -13.6090 O.2   100  ASN100     -0.2716
      8  ND2       18.8900  -23.9240  -15.6260 N.am  100  ASN100     -0.0877
      9  N         21.6400  -21.3670  -18.2370 N.3   102  GLU102     -0.1245
     10  CA        23.1060  -21.3530  -18.1110 C.3   102  GLU102      0.1567
     11  C         23.6820  -19.9190  -18.0510 C.2   102  GLU102      0.2260
     12  O         24.7760  -19.6610  -18.5670 O.2   102  GLU102     -0.2867
     13  CB        23.7560  -22.1610  -19.2510 C.3   102  GLU102      0.0388
     14  CG        23.6670  -23.6630  -19.0890 C.3   102  GLU102      0.1160
     15  CD        22.2980  -24.2190  -19.3950 C.2   102  GLU102      0.3649
     16  OE1       21.8690  -24.1540  -20.5670 O.co2 102  GLU102     -0.2457
     17  OE2       21.6620  -24.7310  -18.4490 O.co2 102  GLU102     -0.2457
     18  N         10.2490  -23.2260  -14.9530 N.3   160  GLU160     -0.1245
     19  CA        10.3560  -24.5470  -14.3560 C.3   160  GLU160      0.1567
     20  C         10.1440  -24.4950  -12.8440 C.2   160  GLU160      0.2260
     21  O         11.0060  -24.9030  -12.0600 O.2   160  GLU160     -0.2867
     22  CB        11.6930  -25.1980  -14.7350 C.3   160  GLU160      0.0388
     23  CG        11.8150  -25.4870  -16.2270 C.3   160  GLU160      0.1160
     24  CD        12.9810  -26.3860  -16.5870 C.2   160  GLU160      0.3649
     25  OE1       14.0080  -26.3790  -15.8880 O.co2 160  GLU160     -0.2457
     26  OE2       12.8830  -27.0980  -17.6010 O.co2 160  GLU160     -0.2457
     27  N          9.2920  -28.5610  -15.4060 N.3   197  ALA197     -0.1245
     28  CA        10.5280  -29.2640  -15.8110 C.3   197  ALA197      0.1562
     29  C         10.2910  -30.7390  -16.1470 C.2   197  ALA197      0.2260
     30  O         10.9370  -31.2750  -17.0250 O.2   197  ALA197     -0.2867
     31  CB        11.5950  -29.1470  -14.7400 C.3   197  ALA197      0.0290
     32  N          8.7080  -29.5460  -20.1220 N.3   218  ASP218     -0.1225
     33  CA         9.9710  -29.6330  -20.8390 C.3   218  ASP218      0.1805
     34  C         10.4540  -31.0850  -20.8990 C.2   218  ASP218      0.2598
     35  O          9.9090  -31.9650  -20.2120 O.2   218  ASP218     -0.2718
     36  CB        10.9960  -28.7240  -20.1620 C.3   218  ASP218      0.1424
     37  CG        10.5670  -27.2500  -20.1620 C.2   218  ASP218      0.3668
     38  OD1        9.7070  -26.8600  -20.9810 O.co2 218  ASP218     -0.2456
     39  OD2       11.1110  -26.4630  -19.3650 O.co2 218  ASP218     -0.2456
     40  N         11.4620  -31.3270  -21.7350 N.am  219  SER219     -0.1938
     41  CA        11.9760  -32.6730  -21.9670 C.3   219  SER219      0.2055
     42  C         13.3560  -32.6260  -22.6360 C.2   219  SER219      0.2643
     43  O         13.5130  -32.0130  -23.7010 O.2   219  SER219     -0.2714
     44  CB        10.9790  -33.4750  -22.8320 C.3   219  SER219      0.2130
     45  OG        11.4940  -34.7420  -23.2050 O.3   219  SER219     -0.2179
     46  N         14.3430  -33.2540  -21.9980 N.am  220  TYR220     -0.1973
     47  CA        15.6690  -33.4340  -22.5770 C.3   220  TYR220      0.1639
     48  C         16.0300  -34.9150  -22.5180 C.2   220  TYR220      0.2290
     49  O         16.9170  -35.3060  -21.7750 O.2   220  TYR220     -0.2864
     50  CB        16.7120  -32.5750  -21.8490 C.3   220  TYR220      0.0560
     51  CG        16.5110  -31.0890  -22.0260 C.ar  220  TYR220     -0.0198
     52  CD1       15.5490  -30.4080  -21.2800 C.ar  220  TYR220     -0.0009
     53  CD2       17.2760  -30.3590  -22.9350 C.ar  220  TYR220     -0.0009
     54  CE1       15.3640  -29.0460  -21.4230 C.ar  220  TYR220      0.0417
     55  CE2       17.0950  -28.9890  -23.0930 C.ar  220  TYR220      0.0417
     56  CZ        16.1390  -28.3410  -22.3310 C.ar  220  TYR220      0.1957
     57  OH        15.9230  -26.9910  -22.4650 O.3   220  TYR220     -0.2866
     58  N         22.7170  -34.6490  -21.3040 N.3   224  PHE224     -0.1241
     59  CA        23.7930  -33.6900  -21.5960 C.3   224  PHE224      0.1605
     60  C         25.2260  -34.2750  -21.6070 C.2   224  PHE224      0.2264
     61  O         26.1920  -33.5220  -21.5760 O.2   224  PHE224     -0.2867
     62  CB        23.6790  -32.5110  -20.6250 C.3   224  PHE224      0.0534
     63  CG        22.2750  -31.9590  -20.5020 C.ar  224  PHE224     -0.0203
     64  CD1       21.7860  -31.0250  -21.4230 C.ar  224  PHE224     -0.0042
     65  CD2       21.4340  -32.3820  -19.4760 C.ar  224  PHE224     -0.0042
     66  CE1       20.4950  -30.5190  -21.3100 C.ar  224  PHE224     -0.0003
     67  CE2       20.1430  -31.8900  -19.3670 C.ar  224  PHE224     -0.0003
     68  CZ        19.6730  -30.9530  -20.2810 C.ar  224  PHE224     -0.0000
     69  N         10.1230  -26.4220  -23.7040 N.3   258  GLN258     -0.1245
     70  CA        11.5290  -26.6400  -24.0320 C.3   258  GLN258      0.1566
     71  C         11.7180  -28.1070  -24.3820 C.2   258  GLN258      0.2260
     72  O         11.7080  -28.9570  -23.4900 O.2   258  GLN258     -0.2867
     73  CB        12.4710  -26.2900  -22.8740 C.3   258  GLN258      0.0367
     74  CG        12.3930  -24.8810  -22.3180 C.3   258  GLN258      0.0905
     75  CD        13.3110  -24.6900  -21.1020 C.2   258  GLN258      0.2608
     76  OE1       14.1840  -25.5150  -20.8020 O.2   258  GLN258     -0.2717
     77  NE2       13.1160  -23.6100  -20.4030 N.am  258  GLN258     -0.0878
     78  N         24.1850  -28.0920  -23.4220 N.3   264  TYR264     -0.1241
     79  CA        25.2590  -27.2740  -22.8660 C.3   264  TYR264      0.1605
     80  C         26.5190  -28.1310  -22.7390 C.2   264  TYR264      0.2264
     81  O         26.4780  -29.3500  -22.9140 O.2   264  TYR264     -0.2867
     82  CB        24.8690  -26.6260  -21.5250 C.3   264  TYR264      0.0534
     83  CG        24.4760  -27.6000  -20.4440 C.ar  264  TYR264     -0.0201
     84  CD1       25.4410  -28.3080  -19.7210 C.ar  264  TYR264     -0.0009
     85  CD2       23.1310  -27.8150  -20.1400 C.ar  264  TYR264     -0.0009
     86  CE1       25.0730  -29.2030  -18.7320 C.ar  264  TYR264      0.0417
     87  CE2       22.7550  -28.7010  -19.1510 C.ar  264  TYR264      0.0417
     88  CZ        23.7260  -29.3930  -18.4490 C.ar  264  TYR264      0.1957
     89  OH        23.3370  -30.2750  -17.4660 O.3   264  TYR264     -0.2866
     90  N         18.0230  -23.3700   -9.3900 N.3   766  TRP766     -0.1241
     91  CA        17.0260  -24.2410  -10.0090 C.3   766  TRP766      0.1605
     92  C         15.9920  -24.7700   -9.0170 C.2   766  TRP766      0.2264
     93  O         14.8030  -24.7690   -9.3130 O.2   766  TRP766     -0.2867
     94  CB        17.7070  -25.3940  -10.7570 C.3   766  TRP766      0.0550
     95  CG        16.7820  -26.0950  -11.6790 C.ar  766  TRP766      0.0003
     96  CD1       16.4480  -25.7200  -12.9560 C.ar  766  TRP766      0.0946
     97  CD2       16.0340  -27.2860  -11.3980 C.ar  766  TRP766      0.0152
     98  NE1       15.5410  -26.6100  -13.4870 N.ar  766  TRP766     -0.2442
     99  CE2       15.2690  -27.5800  -12.5540 C.ar  766  TRP766      0.0810
    100  CE3       15.9330  -28.1310  -10.2830 C.ar  766  TRP766      0.0012
    101  CZ2       14.4170  -28.6910  -12.6290 C.ar  766  TRP766      0.0191
    102  CZ3       15.0910  -29.2420  -10.3540 C.ar  766  TRP766      0.0001
    103  CH2       14.3400  -29.5120  -11.5250 C.ar  766  TRP766      0.0015
@<TRIPOS>BOND
     1    71    70    1
     2    71    72    2
     3    70    69    1
     4    70    73    1
     5    43    42    2
     6    78    79    1
     7    45    44    1
     8    55    53   ar
     9    55    56   ar
    10    53    51   ar
    11    81    80    2
    12    73    74    1
    13    79    80    1
    14    79    82    1
    15    44    41    1
    16    42    46   am
    17    42    41    1
    18    47    48    1
    19    47    46    1
    20    47    50    1
    21    48    49    2
    22    57    56    1
    23    56    54   ar
    24    74    75    1
    25    51    50    1
    26    51    52   ar
    27    41    40    1
    28    40    34   am
    29    60    59    1
    30    60    61    2
    31    59    58    1
    32    59    62    1
    33    82    83    1
    34    64    66   ar
    35    64    63   ar
    36    54    52   ar
    37    66    68   ar
    38    75    76    2
    39    75    77   am
    40    38    37   ar
    41    34    33    1
    42    34    35    2
    43    33    36    1
    44    33    32    1
    45    62    63    1
    46    16    15   ar
    47    63    65   ar
    48    83    85   ar
    49    83    84   ar
    50    68    67   ar
    51    36    37    1
    52    37    39   ar
    53    85    87   ar
    54    84    86   ar
    55    65    67   ar
    56    15    14    1
    57    15    17   ar
    58    13    14    1
    59    13    10    1
    60    87    88   ar
    61    86    88   ar
    62    12    11    2
    63    88    89    1
    64     9    10    1
    65    10    11    1
    66    26    24   ar
    67    30    29    2
    68     3     4    2
    69     3     2    1
    70    24    23    1
    71    24    25   ar
    72    23    22    1
    73    29    28    1
    74    28    27    1
    75    28    31    1
    76     8     6   am
    77     2     1    1
    78     2     5    1
    79     5     6    1
    80    18    19    1
    81     6     7    2
    82    22    19    1
    83    19    20    1
    84    98    96   ar
    85    98    99   ar
    86    96    95   ar
    87    20    21    2
    88   101    99   ar
    89   101   103   ar
    90    99    97   ar
    91    95    97   ar
    92    95    94    1
    93   103   102   ar
    94    97   100   ar
    95    94    91    1
    96   102   100   ar
    97    91    90    1
    98    91    92    1
    99    93    92    2
