@<TRIPOS>MOLECULE
tmp/5ifuA00.pdb
 194 181 0 0 0
SMALL
GASTEIGER

@<TRIPOS>ATOM
      1  N        -45.6730    3.4690   14.0250 N.3    12  PHE12      -0.1227
      2  CA       -44.8120    2.6170   14.8370 C.3    12  PHE12       0.1736
      3  C        -44.3940    3.2780   16.1460 C.2    12  PHE12       0.2596
      4  O        -44.3570    2.6290   17.1910 O.2    12  PHE12      -0.2718
      5  CB       -43.5680    2.2160   14.0380 C.3    12  PHE12       0.0547
      6  CG       -42.7500    1.1390   14.6910 C.ar   12  PHE12      -0.0202
      7  CD1      -43.0820   -0.1950   14.5250 C.ar   12  PHE12      -0.0042
      8  CD2      -41.6480    1.4570   15.4680 C.ar   12  PHE12      -0.0042
      9  CE1      -42.3370   -1.1900   15.1240 C.ar   12  PHE12      -0.0003
     10  CE2      -40.8960    0.4640   16.0720 C.ar   12  PHE12      -0.0003
     11  CZ       -41.2420   -0.8620   15.8990 C.ar   12  PHE12      -0.0000
     12  N        -44.0860    4.5690   16.0810 N.am   13  SER13      -0.1952
     13  CA       -43.6120    5.3040   17.2480 C.3    13  SER13       0.1924
     14  C        -44.6550    5.3360   18.3620 C.2    13  SER13       0.2314
     15  O        -44.3730    4.9460   19.4960 O.2    13  SER13      -0.2863
     16  CB       -43.2170    6.7280   16.8510 C.3    13  SER13       0.2116
     17  OG       -44.2290    7.3410   16.0710 O.3    13  SER13      -0.2180
     18  N        -45.4910    1.9220   19.9080 N.3    16  TYR16      -0.1227
     19  CA       -44.4840    1.4310   20.8390 C.3    16  TYR16       0.1736
     20  C        -44.6610    2.0290   22.2360 C.2    16  TYR16       0.2596
     21  O        -44.6310    1.3080   23.2360 O.2    16  TYR16      -0.2718
     22  CB       -43.0810    1.7300   20.3020 C.3    16  TYR16       0.0548
     23  CG       -41.9670    1.2190   21.1830 C.ar   16  TYR16      -0.0200
     24  CD1      -41.7400   -0.1420   21.3290 C.ar   16  TYR16      -0.0009
     25  CD2      -41.1380    2.0980   21.8650 C.ar   16  TYR16      -0.0009
     26  CE1      -40.7200   -0.6150   22.1350 C.ar   16  TYR16       0.0417
     27  CE2      -40.1170    1.6380   22.6700 C.ar   16  TYR16       0.0417
     28  CZ       -39.9120    0.2800   22.8020 C.ar   16  TYR16       0.1957
     29  OH       -38.8950   -0.1820   23.6060 O.3    16  TYR16      -0.2866
     30  N        -44.8570    3.3420   22.3010 N.am   17  THR17      -0.1953
     31  CA       -45.0050    4.0190   23.5830 C.3    17  THR17       0.1897
     32  C        -46.2670    3.5620   24.3160 C.2    17  THR17       0.2313
     33  O        -46.2780    3.4620   25.5440 O.2    17  THR17      -0.2863
     34  CB       -45.0290    5.5500   23.4130 C.3    17  THR17       0.1794
     35  OG1      -45.8860    5.8990   22.3200 O.3    17  THR17      -0.2208
     36  CG2      -43.6290    6.0710   23.1290 C.3    17  THR17       0.0378
     37  N        -45.5010   -0.1960   25.7660 N.3    20  ILE20      -0.1245
     38  CA       -44.5970   -0.2950   26.9110 C.3    20  ILE20       0.1561
     39  C        -45.2120    0.2520   28.2060 C.2    20  ILE20       0.2260
     40  O        -44.8350   -0.1660   29.3030 O.2    20  ILE20      -0.2867
     41  CB       -43.2550    0.4280   26.6380 C.3    20  ILE20       0.0252
     42  CG1      -43.4790    1.9100   26.3420 C.3    20  ILE20       0.0019
     43  CG2      -42.5160   -0.2350   25.4840 C.3    20  ILE20       0.0019
     44  CD1      -42.2110    2.6440   25.9370 C.3    20  ILE20       0.0001
     45  N        -44.8570   -2.3770   31.5210 N.3    25  LEU25      -0.1231
     46  CA       -43.4130   -2.5800   31.5130 C.3    25  LEU25       0.1693
     47  C        -42.7210   -1.4130   32.2050 C.2    25  LEU25       0.2591
     48  O        -41.9050   -1.6050   33.1080 O.2    25  LEU25      -0.2718
     49  CB       -42.8900   -2.7310   30.0850 C.3    25  LEU25       0.0284
     50  CG       -43.2220   -4.0460   29.3790 C.3    25  LEU25       0.0019
     51  CD1      -42.9110   -3.9350   27.9030 C.3    25  LEU25       0.0001
     52  CD2      -42.4530   -5.2000   30.0030 C.3    25  LEU25       0.0001
     53  N        -43.0580   -0.2010   31.7780 N.am   26  ILE26      -0.1980
     54  CA       -42.4600    0.9950   32.3500 C.3    26  ILE26       0.1595
     55  C        -43.4990    1.9710   32.8810 C.2    26  ILE26       0.2287
     56  O        -44.6940    1.8350   32.6220 O.2    26  ILE26      -0.2864
     57  CB       -41.5910    1.7490   31.3260 C.3    26  ILE26       0.0276
     58  CG1      -42.4620    2.3000   30.1960 C.3    26  ILE26       0.0022
     59  CG2      -40.4890    0.8550   30.7910 C.3    26  ILE26       0.0022
     60  CD1      -41.8420    3.4670   29.4640 C.3    26  ILE26       0.0001
     61  N        -38.0090    7.2150   33.0370 N.3    35  TYR35      -0.1241
     62  CA       -39.0280    6.2010   33.2770 C.3    35  TYR35       0.1605
     63  C        -38.5980    5.1830   34.3260 C.2    35  TYR35       0.2264
     64  O        -37.4160    5.0580   34.6400 O.2    35  TYR35      -0.2867
     65  CB       -39.3850    5.4840   31.9700 C.3    35  TYR35       0.0534
     66  CG       -38.2220    4.7740   31.3110 C.ar   35  TYR35      -0.0201
     67  CD1      -37.3490    5.4590   30.4740 C.ar   35  TYR35      -0.0009
     68  CD2      -38.0020    3.4180   31.5190 C.ar   35  TYR35      -0.0009
     69  CE1      -36.2860    4.8140   29.8670 C.ar   35  TYR35       0.0417
     70  CE2      -36.9420    2.7650   30.9170 C.ar   35  TYR35       0.0417
     71  CZ       -36.0880    3.4680   30.0920 C.ar   35  TYR35       0.1957
     72  OH       -35.0320    2.8210   29.4900 O.3    35  TYR35      -0.2866
     73  N        -38.5530    1.1500   35.5910 N.3    37  LEU37      -0.1245
     74  CA       -38.6970   -0.2420   35.1810 C.3    37  LEU37       0.1561
     75  C        -39.5530   -0.9990   36.1910 C.2    37  LEU37       0.2260
     76  O        -39.1030   -1.3210   37.2900 O.2    37  LEU37      -0.2867
     77  CB       -37.3330   -0.9170   35.0290 C.3    37  LEU37       0.0270
     78  CG       -36.4700   -0.4400   33.8590 C.3    37  LEU37       0.0019
     79  CD1      -35.1320   -1.1520   33.8480 C.3    37  LEU37       0.0001
     80  CD2      -37.1950   -0.6540   32.5460 C.3    37  LEU37       0.0001
     81  N        -40.9010   -5.5290   33.3750 N.3    41  ALA41      -0.1245
     82  CA       -39.7230   -5.2380   32.5650 C.3    41  ALA41       0.1562
     83  C        -38.4670   -5.7630   33.2430 C.2    41  ALA41       0.2260
     84  O        -37.6060   -6.3580   32.5940 O.2    41  ALA41      -0.2867
     85  CB       -39.5980   -3.7450   32.3080 C.3    41  ALA41       0.0290
     86  N        -33.4400    6.8330   22.8290 N.3   101  THR101     -0.1218
     87  CA       -33.6300    7.0340   24.2610 C.3   101  THR101      0.1862
     88  C        -32.4370    6.5090   25.0520 C.2   101  THR101      0.2287
     89  O        -31.5560    5.8530   24.4970 O.2   101  THR101     -0.2866
     90  CB       -34.9120    6.3450   24.7620 C.3   101  THR101      0.1770
     91  OG1      -34.8030    4.9540   24.5010 O.3   101  THR101     -0.2211
     92  CG2      -36.1560    6.9150   24.1100 C.3   101  THR101      0.0375
     93  N        -30.5470    4.3120   28.2460 N.3   103  GLU103     -0.1245
     94  CA       -30.6390    2.9410   28.7330 C.3   103  GLU103      0.1567
     95  C        -30.1390    2.8460   30.1750 C.2   103  GLU103      0.2260
     96  O        -29.0110    3.2350   30.4730 O.2   103  GLU103     -0.2867
     97  CB       -29.8380    2.0090   27.8210 C.3   103  GLU103      0.0388
     98  CG       -30.5690    0.7450   27.4030 C.3   103  GLU103      0.1160
     99  CD       -31.8460    1.0200   26.6260 C.2   103  GLU103      0.3649
    100  OE1      -32.9130    0.5230   27.0440 O.co2 103  GLU103     -0.2457
    101  OE2      -31.7850    1.7190   25.5920 O.co2 103  GLU103     -0.2457
    102  N        -40.4270   -0.9250   10.1820 N.3   169  ASN169     -0.1240
    103  CA       -39.9430    0.3840    9.7480 C.3   169  ASN169      0.1653
    104  C        -38.6400    0.2990    8.9540 C.2   169  ASN169      0.2266
    105  O        -38.0180    1.3180    8.6570 O.2   169  ASN169     -0.2867
    106  CB       -39.7700    1.3220   10.9490 C.3   169  ASN169      0.1155
    107  CG       -38.8380    0.7640   12.0090 C.2   169  ASN169      0.2627
    108  OD1      -38.0990   -0.1920   11.7740 O.2   169  ASN169     -0.2716
    109  ND2      -38.8670    1.3700   13.1900 N.am  169  ASN169     -0.0877
    110  N        -35.5890   -0.6970    9.6140 N.3   171  ARG171     -0.1245
    111  CA       -34.3450   -0.2300   10.2160 C.3   171  ARG171      0.1563
    112  C        -33.6360   -1.3100   11.0180 C.2   171  ARG171      0.2260
    113  O        -34.2610   -2.0820   11.7500 O.2   171  ARG171     -0.2867
    114  CB       -34.6020    0.9880   11.1080 C.3   171  ARG171      0.0307
    115  CG       -35.0530    2.2040   10.3290 C.3   171  ARG171      0.0489
    116  CD       -34.9910    3.4740   11.1480 C.3   171  ARG171      0.2205
    117  NE       -35.3840    4.6210   10.3360 N.pl3 171  ARG171     -0.0865
    118  CZ       -34.5420    5.3360    9.5970 C.cat 171  ARG171      0.5346
    119  NH1      -33.2510    5.0320    9.5760 N.pl3 171  ARG171      0.1354
    120  NH2      -34.9910    6.3600    8.8850 N.pl3 171  ARG171      0.1354
    121  N        -30.8120   -2.3810   13.9730 N.3   173  ILE173     -0.1245
    122  CA       -30.4360   -1.8610   15.2740 C.3   173  ILE173      0.1561
    123  C        -29.3780   -2.7750   15.8870 C.2   173  ILE173      0.2260
    124  O        -29.4760   -4.0030   15.8260 O.2   173  ILE173     -0.2867
    125  CB       -31.6680   -1.7240   16.2020 C.3   173  ILE173      0.0252
    126  CG1      -31.2540   -1.2250   17.5890 C.3   173  ILE173      0.0019
    127  CG2      -32.4310   -3.0390   16.2890 C.3   173  ILE173      0.0019
    128  CD1      -32.4300   -0.8640   18.4790 C.3   173  ILE173      0.0001
    129  N        -30.3910   -3.0270   28.1440 N.3   212  THR212     -0.1203
    130  CA       -31.8280   -3.2700   28.1570 C.3   212  THR212      0.1994
    131  C        -32.4630   -2.9570   26.8060 C.2   212  THR212      0.2617
    132  O        -33.6620   -3.1570   26.6180 O.2   212  THR212     -0.2717
    133  CB       -32.5330   -2.4450   29.2510 C.3   212  THR212      0.1784
    134  OG1      -31.8500   -1.1990   29.4250 O.3   212  THR212     -0.2211
    135  CG2      -32.5210   -3.1930   30.5720 C.3   212  THR212      0.0376
    136  N        -31.6590   -2.4690   25.8660 N.am  213  ARG213     -0.1979
    137  CA       -32.1110   -2.3050   24.4890 C.3   213  ARG213      0.1597
    138  C        -32.5920   -3.6500   23.9370 C.2   213  ARG213      0.2287
    139  O        -33.4790   -3.7040   23.0830 O.2   213  ARG213     -0.2864
    140  CB       -30.9930   -1.7340   23.6120 C.3   213  ARG213      0.0334
    141  CG       -31.2460   -1.8780   22.1150 C.3   213  ARG213      0.0492
    142  CD       -30.1010   -1.3430   21.2890 C.3   213  ARG213      0.2205
    143  NE       -30.0780    0.1140   21.2590 N.pl3 213  ARG213     -0.0865
    144  CZ       -29.2340    0.8270   20.5220 C.cat 213  ARG213      0.5346
    145  NH1      -28.3440    0.2130   19.7510 N.pl3 213  ARG213      0.1354
    146  NH2      -29.2820    2.1510   20.5510 N.pl3 213  ARG213      0.1354
    147  N        -34.3950   -5.7230   25.4510 N.3   215  ILE215     -0.1231
    148  CA       -35.8120   -5.8140   25.7870 C.3   215  ILE215      0.1692
    149  C        -36.6540   -5.0590   24.7660 C.2   215  ILE215      0.2592
    150  O        -37.6870   -5.5550   24.3160 O.2   215  ILE215     -0.2718
    151  CB       -36.0980   -5.2640   27.1990 C.3   215  ILE215      0.0266
    152  CG1      -35.2900   -6.0380   28.2400 C.3   215  ILE215      0.0019
    153  CG2      -37.5820   -5.3440   27.5160 C.3   215  ILE215      0.0020
    154  CD1      -35.5050   -5.5530   29.6530 C.3   215  ILE215      0.0001
    155  N        -36.2060   -3.8620   24.3990 N.am  216  GLY216     -0.1957
    156  CA       -36.8920   -3.0670   23.3960 C.3   216  GLY216      0.1869
    157  C        -36.9400   -3.7380   22.0380 C.2   216  GLY216      0.2309
    158  O        -37.9400   -3.6470   21.3270 O.2   216  GLY216     -0.2863
    159  N        -39.6210   -6.3610   22.1910 N.3   219  ILE219     -0.1231
    160  CA       -40.9360   -5.7380   22.0820 C.3   219  ILE219      0.1692
    161  C        -41.2710   -5.3750   20.6390 C.2   219  ILE219      0.2591
    162  O        -42.3530   -5.6960   20.1430 O.2   219  ILE219     -0.2718
    163  CB       -41.0270   -4.4660   22.9440 C.3   219  ILE219      0.0266
    164  CG1      -40.8750   -4.8140   24.4240 C.3   219  ILE219      0.0019
    165  CG2      -42.3440   -3.7500   22.7010 C.3   219  ILE219      0.0020
    166  CD1      -40.5560   -3.6190   25.2890 C.3   219  ILE219      0.0001
    167  N        -40.3350   -4.7070   19.9720 N.am  220  MET220     -0.1979
    168  CA       -40.5320   -4.2800   18.5910 C.3   220  MET220      0.1605
    169  C        -40.6700   -5.4680   17.6470 C.2   220  MET220      0.2287
    170  O        -41.4000   -5.4040   16.6590 O.2   220  MET220     -0.2864
    171  CB       -39.3780   -3.3840   18.1390 C.3   220  MET220      0.0413
    172  CG       -39.3510   -2.0210   18.8210 C.3   220  MET220      0.0598
    173  SD       -38.0970   -0.9270   18.1200 S.3   220  MET220     -0.1393
    174  CE       -36.5950   -1.7630   18.6210 C.3   220  MET220      0.0692
    175  N        -34.1120    9.0280   12.0880 N.3   399  LEU399     -0.1245
    176  CA       -34.9540    9.5690   11.0270 C.3   399  LEU399      0.1561
    177  C        -34.1780    9.7000    9.7210 C.2   399  LEU399      0.2260
    178  O        -34.7100   10.1720    8.7140 O.2   399  LEU399     -0.2867
    179  CB       -35.5280   10.9280   11.4360 C.3   399  LEU399      0.0270
    180  CG       -36.5940   10.9140   12.5310 C.3   399  LEU399      0.0019
    181  CD1      -36.9300   12.3410   12.8970 C.3   399  LEU399      0.0001
    182  CD2      -37.8500   10.2090   12.0880 C.3   399  LEU399      0.0001
    183  N        -31.0290    2.6550   13.3590 N.3   438  TYR438     -0.1241
    184  CA       -31.2870    3.4920   14.5180 C.3   438  TYR438      0.1605
    185  C        -29.9900    4.1690   14.9400 C.2   438  TYR438      0.2264
    186  O        -29.9900    5.1730   15.6510 O.2   438  TYR438     -0.2867
    187  CB       -31.8580    2.6670   15.6730 C.3   438  TYR438      0.0534
    188  CG       -33.3260    2.3520   15.5350 C.ar  438  TYR438     -0.0201
    189  CD1      -34.2880    3.2470   15.9750 C.ar  438  TYR438     -0.0009
    190  CD2      -33.7540    1.1570   14.9700 C.ar  438  TYR438     -0.0009
    191  CE1      -35.6320    2.9660   15.8550 C.ar  438  TYR438      0.0417
    192  CE2      -35.1010    0.8670   14.8460 C.ar  438  TYR438      0.0417
    193  CZ       -36.0340    1.7760   15.2910 C.ar  438  TYR438      0.1957
    194  OH       -37.3770    1.5010   15.1750 O.3   438  TYR438     -0.2866
@<TRIPOS>BOND
     1   105   104    2
     2   178   177    2
     3   120   118    1
     4   104   103    1
     5   119   118    1
     6   118   117    2
     7   110   111    1
     8   177   176    1
     9   103   102    1
    10   103   106    1
    11   111   112    1
    12   111   114    1
    13   115   114    1
    14   115   116    1
    15   117   116    1
    16   106   107    1
    17   112   113    2
    18   176   179    1
    19   176   175    1
    20   179   180    1
    21   108   107    2
    22   107   109   am
    23   182   180    1
    24   180   181    1
    25   183   184    1
    26   121   122    1
    27     1     2    1
    28     5     6    1
    29     5     2    1
    30   184   185    1
    31   184   187    1
    32     7     6   ar
    33     7     9   ar
    34     6     8   ar
    35     2     3    1
    36   192   190   ar
    37   192   193   ar
    38   185   186    2
    39   190   188   ar
    40     9    11   ar
    41   194   193    1
    42   122   123    1
    43   122   125    1
    44   193   191   ar
    45     8    10   ar
    46   188   187    1
    47   188   189   ar
    48   124   123    2
    49   191   189   ar
    50    11    10   ar
    51    17    16    1
    52    12     3   am
    53    12    13    1
    54     3     4    2
    55   125   127    1
    56   125   126    1
    57   170   169    2
    58    16    13    1
    59    13    14    1
    60   126   128    1
    61   169   168    1
    62   173   174    1
    63   173   172    1
    64   171   168    1
    65   171   172    1
    66    14    15    2
    67   168   167    1
    68   145   144    1
    69    18    19    1
    70   167   161   am
    71   162   161    2
    72    22    19    1
    73    22    23    1
    74   144   146    1
    75   144   143    2
    76   161   160    1
    77    19    20    1
    78    23    24   ar
    79    23    25   ar
    80   143   142    1
    81   142   141    1
    82   158   157    2
    83    24    26   ar
    84    25    27   ar
    85   157   156    1
    86   160   159    1
    87   160   163    1
    88   141   140    1
    89    26    28   ar
    90    20    30   am
    91    20    21    2
    92    30    31    1
    93    35    34    1
    94    27    28   ar
    95   165   163    1
    96    28    29    1
    97    86    87    1
    98   163   164    1
    99   139   138    2
   100    36    34    1
   101   156   155    1
   102    34    31    1
   103    31    32    1
   104   140   137    1
   105   138   137    1
   106    92    90    1
   107    87    90    1
   108    87    88    1
   109    32    33    2
   110   150   149    2
   111   155   149   am
   112   164   166    1
   113   137   136    1
   114    89    88    2
   115    91    90    1
   116   149   148    1
   117   147   148    1
   118    43    41    1
   119   101    99   ar
   120    37    38    1
   121   148   151    1
   122   136   131   am
   123    44    42    1
   124    42    41    1
   125   132   131    2
   126    99   100   ar
   127    99    98    1
   128    41    38    1
   129   131   130    1
   130    38    39    1
   131   151   153    1
   132   151   152    1
   133    98    97    1
   134    97    94    1
   135    51    50    1
   136   129   130    1
   137   130   133    1
   138    39    40    2
   139   152   154    1
   140    93    94    1
   141    94    95    1
   142   133   134    1
   143   133   135    1
   144    50    52    1
   145    50    49    1
   146    60    58    1
   147    72    71    1
   148    69    71   ar
   149    69    67   ar
   150    49    46    1
   151    71    70   ar
   152    95    96    2
   153    58    57    1
   154    67    66   ar
   155    59    57    1
   156    70    68   ar
   157    66    68   ar
   158    66    65    1
   159    57    54    1
   160    46    45    1
   161    46    47    1
   162    53    47   am
   163    53    54    1
   164    65    62    1
   165    47    48    2
   166    85    82    1
   167    54    55    1
   168    80    78    1
   169    82    83    1
   170    82    81    1
   171    84    83    2
   172    56    55    2
   173    61    62    1
   174    62    63    1
   175    79    78    1
   176    78    77    1
   177    63    64    2
   178    77    74    1
   179    74    73    1
   180    74    75    1
   181    75    76    2
