@<TRIPOS>MOLECULE
tmp/5ifuB00.pdb
 164 155 0 0 0
SMALL
GASTEIGER

@<TRIPOS>ATOM
      1  N         -6.6300   -1.8930   65.3810 N.3    18  PHE18      -0.1227
      2  CA        -7.7500   -2.4430   64.6290 C.3    18  PHE18       0.1736
      3  C         -7.8850   -1.8580   63.2220 C.2    18  PHE18       0.2596
      4  O         -8.0420   -2.6020   62.2500 O.2    18  PHE18      -0.2718
      5  CB        -9.0530   -2.2300   65.4050 C.3    18  PHE18       0.0547
      6  CG       -10.2250   -2.9720   64.8320 C.ar   18  PHE18      -0.0202
      7  CD1      -10.4800   -4.2800   65.2050 C.ar   18  PHE18      -0.0042
      8  CD2      -11.0700   -2.3630   63.9170 C.ar   18  PHE18      -0.0042
      9  CE1      -11.5580   -4.9690   64.6750 C.ar   18  PHE18      -0.0003
     10  CE2      -12.1460   -3.0450   63.3840 C.ar   18  PHE18      -0.0003
     11  CZ       -12.3930   -4.3490   63.7630 C.ar   18  PHE18      -0.0000
     12  N         -7.8260   -0.5340   63.1130 N.am   19  SER19      -0.1952
     13  CA        -8.0450    0.1350   61.8330 C.3    19  SER19       0.1924
     14  C         -6.9670   -0.2150   60.8110 C.2    19  SER19       0.2314
     15  O         -7.2620   -0.4200   59.6320 O.2    19  SER19      -0.2863
     16  CB        -8.1050    1.6500   62.0200 C.3    19  SER19       0.2116
     17  OG        -6.8130    2.1810   62.2520 O.3    19  SER19      -0.2180
     18  N         -7.5470   -3.8090   59.7380 N.3    22  TYR22      -0.1241
     19  CA        -8.6630   -3.9450   58.8110 C.3    22  TYR22       0.1605
     20  C         -8.2750   -3.5520   57.3890 C.2    22  TYR22       0.2264
     21  O         -8.6810   -4.2070   56.4260 O.2    22  TYR22      -0.2867
     22  CB        -9.8500   -3.1030   59.2850 C.3    22  TYR22       0.0534
     23  CG       -11.1120   -3.3120   58.4790 C.ar   22  TYR22      -0.0201
     24  CD1      -11.8220   -4.5030   58.5620 C.ar   22  TYR22      -0.0009
     25  CD2      -11.5960   -2.3180   57.6390 C.ar   22  TYR22      -0.0009
     26  CE1      -12.9790   -4.7000   57.8280 C.ar   22  TYR22       0.0417
     27  CE2      -12.7520   -2.5040   56.9010 C.ar   22  TYR22       0.0417
     28  CZ       -13.4400   -3.6960   57.0000 C.ar   22  TYR22       0.1957
     29  OH       -14.5910   -3.8840   56.2660 O.3    22  TYR22      -0.2866
     30  N         -8.4290   -6.2700   54.0740 N.3    26  ILE26      -0.1245
     31  CA        -9.2960   -6.1090   52.9090 C.3    26  ILE26       0.1561
     32  C         -8.5080   -5.8330   51.6240 C.2    26  ILE26       0.2260
     33  O         -9.0090   -6.0510   50.5200 O.2    26  ILE26      -0.2867
     34  CB       -10.3290   -4.9850   53.1320 C.3    26  ILE26       0.0252
     35  CG1       -9.6430   -3.6220   53.2470 C.3    26  ILE26       0.0019
     36  CG2      -11.1630   -5.2700   54.3780 C.3    26  ILE26       0.0019
     37  CD1      -10.6030   -2.4890   53.5570 C.3    26  ILE26       0.0001
     38  N         -9.8380   -8.3030   48.4260 N.3    31  LEU31      -0.1231
     39  CA       -11.2490   -7.9380   48.4980 C.3    31  LEU31       0.1693
     40  C        -11.5080   -6.6480   47.7320 C.2    31  LEU31       0.2591
     41  O        -12.4220   -6.5750   46.9130 O.2    31  LEU31      -0.2718
     42  CB       -11.7010   -7.7810   49.9510 C.3    31  LEU31       0.0284
     43  CG       -11.9450   -9.0670   50.7390 C.3    31  LEU31       0.0019
     44  CD1      -12.1650   -8.7550   52.2120 C.3    31  LEU31       0.0001
     45  CD2      -13.1300   -9.8250   50.1660 C.3    31  LEU31       0.0001
     46  N        -10.7060   -5.6250   48.0080 N.am   32  ILE32      -0.1980
     47  CA       -10.8530   -4.3480   47.3240 C.3    32  ILE32       0.1595
     48  C         -9.5370   -3.8200   46.7780 C.2    32  ILE32       0.2287
     49  O         -8.4590   -4.2760   47.1590 O.2    32  ILE32      -0.2864
     50  CB       -11.4400   -3.2620   48.2480 C.3    32  ILE32       0.0276
     51  CG1      -10.4210   -2.8600   49.3170 C.3    32  ILE32       0.0022
     52  CG2      -12.7380   -3.7240   48.8730 C.3    32  ILE32       0.0022
     53  CD1      -10.7930   -1.6040   50.0630 C.3    32  ILE32       0.0001
     54  N        -13.0520    2.9530   46.0480 N.3    41  TYR41      -0.1241
     55  CA       -12.4040    1.6690   45.8050 C.3    41  TYR41       0.1605
     56  C        -13.2000    0.7500   44.8900 C.2    41  TYR41       0.2264
     57  O        -14.3900    0.9580   44.6510 O.2    41  TYR41      -0.2867
     58  CB       -12.1300    0.9520   47.1350 C.3    41  TYR41       0.0534
     59  CG       -13.3680    0.6170   47.9400 C.ar   41  TYR41      -0.0201
     60  CD1      -14.1150   -0.5240   47.6650 C.ar   41  TYR41      -0.0009
     61  CD2      -13.7830    1.4360   48.9870 C.ar   41  TYR41      -0.0009
     62  CE1      -15.2460   -0.8340   48.4000 C.ar   41  TYR41       0.0417
     63  CE2      -14.9120    1.1310   49.7310 C.ar   41  TYR41       0.0417
     64  CZ       -15.6370   -0.0050   49.4310 C.ar   41  TYR41       0.1957
     65  OH       -16.7570   -0.3150   50.1610 O.3    41  TYR41      -0.2866
     66  N        -14.7190   -3.0280   44.1220 N.3    43  LEU43      -0.1245
     67  CA       -15.0970   -4.3170   44.6860 C.3    43  LEU43       0.1561
     68  C        -14.5860   -5.4300   43.7750 C.2    43  LEU43       0.2260
     69  O        -15.1640   -5.7080   42.7220 O.2    43  LEU43      -0.2867
     70  CB       -16.6110   -4.4150   44.8730 C.3    43  LEU43       0.0270
     71  CG       -17.1910   -3.5620   46.0010 C.3    43  LEU43       0.0019
     72  CD1      -18.6950   -3.4390   45.8560 C.3    43  LEU43       0.0001
     73  CD2      -16.8330   -4.1600   47.3590 C.3    43  LEU43       0.0001
     74  N        -14.7150   -9.9560   46.9320 N.3    47  ALA47      -0.1245
     75  CA       -15.7090   -9.1740   47.6650 C.3    47  ALA47       0.1562
     76  C        -17.0860   -9.3150   47.0330 C.2    47  ALA47       0.2260
     77  O        -18.0590   -9.6290   47.7180 O.2    47  ALA47      -0.2867
     78  CB       -15.3070   -7.7080   47.7270 C.3    47  ALA47       0.0290
     79  N        -20.8370    5.0200   52.2500 N.3   116  ARG116     -0.1231
     80  CA       -19.5000    4.4850   52.0070 C.3   116  ARG116      0.1694
     81  C        -19.5470    3.1160   51.3260 C.2   116  ARG116      0.2591
     82  O        -18.5080    2.5420   50.9950 O.2   116  ARG116     -0.2718
     83  CB       -18.7200    4.3870   53.3210 C.3   116  ARG116      0.0321
     84  CG       -18.2590    5.7570   53.7450 C.3   116  ARG116      0.0489
     85  CD       -17.0330    6.2050   52.9830 C.3   116  ARG116      0.2205
     86  NE       -15.9340    5.2520   53.0210 N.pl3 116  ARG116     -0.0865
     87  CZ       -15.4040    4.6750   51.9410 C.cat 116  ARG116      0.5346
     88  NH1      -15.8800    4.9230   50.7150 N.pl3 116  ARG116      0.1354
     89  NH2      -14.3970    3.8020   52.1210 N.pl3 116  ARG116      0.1354
     90  N        -20.7540    2.5950   51.1280 N.am  117  GLU117     -0.1979
     91  CA       -20.9330    1.3220   50.4400 C.3   117  GLU117      0.1602
     92  C        -21.3790    1.5700   49.0020 C.2   117  GLU117      0.2287
     93  O        -22.1810    2.4650   48.7410 O.2   117  GLU117     -0.2864
     94  CB       -21.9500    0.4470   51.1780 C.3   117  GLU117      0.0415
     95  CG       -21.7580    0.3980   52.6950 C.3   117  GLU117      0.1163
     96  CD       -20.4230   -0.1980   53.1170 C.2   117  GLU117      0.3649
     97  OE1      -19.8430   -0.9990   52.3520 O.co2 117  GLU117     -0.2457
     98  OE2      -19.9490    0.1370   54.2220 O.co2 117  GLU117     -0.2457
     99  N        -22.6770   -2.1880   65.9340 N.3   187  ILE187     -0.1245
    100  CA       -22.8810   -1.6460   64.5980 C.3   187  ILE187      0.1561
    101  C        -24.2070   -2.1160   64.0030 C.2   187  ILE187      0.2260
    102  O        -24.5420   -3.3020   64.0460 O.2   187  ILE187     -0.2867
    103  CB       -21.7080   -2.0190   63.6560 C.3   187  ILE187      0.0252
    104  CG1      -21.9320   -1.4440   62.2560 C.3   187  ILE187      0.0019
    105  CG2      -21.4960   -3.5280   63.6110 C.3   187  ILE187      0.0019
    106  CD1      -20.6970   -1.4900   61.3780 C.3   187  ILE187      0.0001
    107  N        -23.4390   -3.4510   51.7370 N.3   226  THR226     -0.1203
    108  CA       -22.2270   -4.2670   51.7980 C.3   226  THR226      0.1994
    109  C        -21.5220   -4.1230   53.1500 C.2   226  THR226      0.2617
    110  O        -20.4850   -4.7410   53.3850 O.2   226  THR226     -0.2717
    111  CB       -21.2330   -3.9180   50.6600 C.3   226  THR226      0.1784
    112  OG1      -21.0180   -2.5030   50.6080 O.3   226  THR226     -0.2211
    113  CG2      -21.7700   -4.3910   49.3170 C.3   226  THR226      0.0376
    114  N        -22.0950   -3.3130   54.0370 N.am  227  ARG227     -0.1979
    115  CA       -21.6500   -3.2510   55.4250 C.3   227  ARG227      0.1597
    116  C        -21.7050   -4.6360   56.0670 C.2   227  ARG227      0.2287
    117  O        -20.8860   -4.9650   56.9270 O.2   227  ARG227     -0.2864
    118  CB       -22.5050   -2.2640   56.2240 C.3   227  ARG227      0.0334
    119  CG       -22.3000   -2.3460   57.7250 C.3   227  ARG227      0.0492
    120  CD       -23.1820   -1.3690   58.4680 C.3   227  ARG227      0.2205
    121  NE       -22.7090    0.0040   58.3410 N.pl3 227  ARG227     -0.0865
    122  CZ       -23.1890    1.0230   59.0460 C.cat 227  ARG227      0.5346
    123  NH1      -24.1550    0.8190   59.9350 N.pl3 227  ARG227      0.1354
    124  NH2      -22.7020    2.2430   58.8680 N.pl3 227  ARG227      0.1354
    125  N        -20.8610   -7.3150   54.7600 N.3   229  ILE229     -0.1231
    126  CA       -19.5950   -7.9490   54.4300 C.3   229  ILE229      0.1692
    127  C        -18.5020   -7.4720   55.3800 C.2   229  ILE229      0.2592
    128  O        -17.6920   -8.2650   55.8590 O.2   229  ILE229     -0.2718
    129  CB       -19.1880   -7.6560   52.9750 C.3   229  ILE229      0.0266
    130  CG1      -20.2430   -8.2110   52.0130 C.3   229  ILE229      0.0019
    131  CG2      -17.8180   -8.2390   52.6720 C.3   229  ILE229      0.0020
    132  CD1      -19.9750   -7.8840   50.5590 C.3   229  ILE229      0.0001
    133  N        -18.4920   -6.1720   55.6530 N.am  230  GLY230     -0.1957
    134  CA       -17.5400   -5.6020   56.5860 C.3   230  GLY230      0.1869
    135  C        -17.7000   -6.1610   57.9870 C.2   230  GLY230      0.2309
    136  O        -16.7160   -6.3890   58.6920 O.2   230  GLY230     -0.2863
    137  N        -16.1730   -9.6160   58.0310 N.3   233  ILE233     -0.1231
    138  CA       -14.7170   -9.5200   58.0960 C.3   233  ILE233      0.1692
    139  C        -14.2410   -9.2070   59.5090 C.2   233  ILE233      0.2591
    140  O        -13.3610   -9.8840   60.0420 O.2   233  ILE233     -0.2718
    141  CB       -14.1750   -8.4360   57.1450 C.3   233  ILE233      0.0266
    142  CG1      -14.5290   -8.7650   55.6950 C.3   233  ILE233      0.0019
    143  CG2      -12.6670   -8.2930   57.3080 C.3   233  ILE233      0.0020
    144  CD1      -14.4260   -7.5770   54.7630 C.3   233  ILE233      0.0001
    145  N        -14.8320   -8.1830   60.1140 N.am  234  MET234     -0.1979
    146  CA       -14.4200   -7.7400   61.4420 C.3   234  MET234      0.1605
    147  C        -14.7120   -8.7950   62.5000 C.2   234  MET234      0.2287
    148  O        -14.0270   -8.8710   63.5170 O.2   234  MET234     -0.2864
    149  CB       -15.1090   -6.4240   61.8060 C.3   234  MET234      0.0413
    150  CG       -14.6770   -5.2470   60.9450 C.3   234  MET234      0.0598
    151  SD       -15.4970   -3.7020   61.3830 S.3   234  MET234     -0.1393
    152  CE       -17.2020   -4.0960   60.9990 C.3   234  MET234      0.0692
    153  N        -20.8250    2.7050   66.2640 N.3   445  TYR445     -0.1241
    154  CA       -20.1260    3.3090   65.1360 C.3   445  TYR445      0.1605
    155  C        -20.8930    4.5230   64.6220 C.2   445  TYR445      0.2264
    156  O        -21.5830    4.4470   63.6050 O.2   445  TYR445     -0.2867
    157  CB       -19.9330    2.2970   64.0050 C.3   445  TYR445      0.0534
    158  CG       -18.6930    1.4400   64.1310 C.ar  445  TYR445     -0.0201
    159  CD1      -17.4340    1.9650   63.8670 C.ar  445  TYR445     -0.0009
    160  CD2      -18.7810    0.1030   64.4940 C.ar  445  TYR445     -0.0009
    161  CE1      -16.2980    1.1850   63.9730 C.ar  445  TYR445      0.0417
    162  CE2      -17.6500   -0.6850   64.6020 C.ar  445  TYR445      0.0417
    163  CZ       -16.4120   -0.1400   64.3400 C.ar  445  TYR445      0.1957
    164  OH       -15.2850   -0.9220   64.4470 O.3   445  TYR445     -0.2866
@<TRIPOS>BOND
     1    69    68    2
     2    68    67    1
     3    66    67    1
     4    57    56    2
     5    67    70    1
     6    70    71    1
     7    56    55    1
     8    55    54    1
     9    55    58    1
    10    72    71    1
    11    71    73    1
    12    48    49    2
    13    48    47    1
    14    41    40    2
    15    74    75    1
    16    76    75    1
    17    76    77    2
    18    58    59    1
    19    47    46    1
    20    47    50    1
    21    60    59   ar
    22    60    62   ar
    23    75    78    1
    24    40    46   am
    25    40    39    1
    26    59    61   ar
    27    50    52    1
    28    50    51    1
    29    62    64   ar
    30    38    39    1
    31    39    42    1
    32    93    92    2
    33    61    63   ar
    34    92    91    1
    35   113   111    1
    36    51    53    1
    37    64    63   ar
    38    64    65    1
    39    42    43    1
    40    45    43    1
    41    91    90    1
    42    91    94    1
    43    33    32    2
    44   132   130    1
    45   112   111    1
    46   111   108    1
    47    88    87    1
    48    43    44    1
    49    82    81    2
    50    90    81   am
    51    94    95    1
    52    81    80    1
    53    32    31    1
    54   107   108    1
    55   108   109    1
    56    87    89    1
    57    87    86    2
    58    80    79    1
    59    80    83    1
    60   130   129    1
    61    97    96   ar
    62   131   129    1
    63    95    96    1
    64    31    34    1
    65    31    30    1
    66   129   126    1
    67    85    86    1
    68    85    84    1
    69    96    98   ar
    70    34    35    1
    71    34    36    1
    72   109   110    2
    73   109   114   am
    74    35    37    1
    75    83    84    1
    76   114   115    1
    77   126   125    1
    78   126   127    1
    79   144   142    1
    80   127   133   am
    81   127   128    2
    82   115   116    1
    83   115   118    1
    84   133   134    1
    85   142   141    1
    86   116   117    2
    87   118   119    1
    88    29    28    1
    89    21    20    2
    90   134   135    1
    91    27    28   ar
    92    27    25   ar
    93    28    26   ar
    94   141   143    1
    95   141   138    1
    96    20    19    1
    97    25    23   ar
    98   119   120    1
    99    26    24   ar
   100   135   136    2
   101   137   138    1
   102   138   139    1
   103   121   120    1
   104   121   122    2
   105    23    24   ar
   106    23    22    1
   107    19    22    1
   108    19    18    1
   109   124   122    1
   110   122   123    1
   111   139   140    2
   112   139   145   am
   113    15    14    2
   114   145   146    1
   115    14    13    1
   116   150   151    1
   117   150   149    1
   118   152   151    1
   119   106   104    1
   120   146   149    1
   121   146   147    1
   122    13    16    1
   123    13    12    1
   124    16    17    1
   125     4     3    2
   126   104   103    1
   127   147   148    2
   128    12     3   am
   129     3     2    1
   130    10    11   ar
   131    10     8   ar
   132   156   155    2
   133   105   103    1
   134   103   100    1
   135    11     9   ar
   136   159   161   ar
   137   159   158   ar
   138     8     6   ar
   139   161   163   ar
   140   101   102    2
   141   101   100    1
   142   157   158    1
   143   157   154    1
   144   158   160   ar
   145   163   164    1
   146   163   162   ar
   147   160   162   ar
   148   100    99    1
   149   155   154    1
   150     2     1    1
   151     2     5    1
   152     9     7   ar
   153     6     7   ar
   154     6     5    1
   155   154   153    1
