@<TRIPOS>MOLECULE
tmp/5ifwB01.pdb
 125 118 0 0 0
SMALL
GASTEIGER

@<TRIPOS>ATOM
      1  N         31.4110   87.8930   79.3780 N.3   453  ASP453     -0.1225
      2  CA        31.4890   86.5000   78.9480 C.3   453  ASP453      0.1805
      3  C         32.7350   86.2150   78.1120 C.2   453  ASP453      0.2598
      4  O         33.1800   85.0710   78.0150 O.2   453  ASP453     -0.2718
      5  CB        30.2340   86.1150   78.1590 C.3   453  ASP453      0.1424
      6  CG        28.9560   86.3800   78.9300 C.2   453  ASP453      0.3668
      7  OD1       29.0150   86.4600   80.1750 O.co2 453  ASP453     -0.2456
      8  OD2       27.8900   86.5050   78.2910 O.co2 453  ASP453     -0.2456
      9  N         33.2930   87.2600   77.5090 N.am  454  ILE454     -0.1966
     10  CA        34.4870   87.1190   76.6850 C.3   454  ILE454      0.1727
     11  C         35.7480   87.3350   77.5170 C.2   454  ILE454      0.2616
     12  O         35.9750   88.4230   78.0440 O.2   454  ILE454     -0.2715
     13  CB        34.4710   88.1110   75.5050 C.3   454  ILE454      0.0290
     14  CG1       33.1390   88.0210   74.7550 C.3   454  ILE454      0.0022
     15  CG2       35.6420   87.8500   74.5680 C.3   454  ILE454      0.0023
     16  CD1       33.0030   89.0130   73.6230 C.3   454  ILE454      0.0001
     17  N         36.5610   86.2910   77.6390 N.am  455  GLY455     -0.1955
     18  CA        37.8030   86.3820   78.3850 C.3   455  GLY455      0.1869
     19  C         38.9080   87.0020   77.5540 C.2   455  GLY455      0.2309
     20  O         38.9790   86.7840   76.3450 O.2   455  GLY455     -0.2863
     21  N         41.2670   89.7060   75.5010 N.3   457  LEU457     -0.1245
     22  CA        40.9710   90.6280   74.4040 C.3   457  LEU457      0.1561
     23  C         40.5540   92.0100   74.9030 C.2   457  LEU457      0.2260
     24  O         39.7610   92.6990   74.2620 O.2   457  LEU457     -0.2867
     25  CB        39.8980   90.0470   73.4770 C.3   457  LEU457      0.0270
     26  CG        40.1940   88.6690   72.8800 C.3   457  LEU457      0.0019
     27  CD1       39.0910   88.2530   71.9190 C.3   457  LEU457      0.0001
     28  CD2       41.5490   88.6580   72.1880 C.3   457  LEU457      0.0001
     29  N         40.8410   80.3630   64.0820 N.3   478  PRO478     -0.2102
     30  CA        39.4350   80.0640   64.3850 C.3   478  PRO478      0.1504
     31  C         39.2170   79.6050   65.8350 C.2   478  PRO478      0.2576
     32  O         39.9970   78.7950   66.3310 O.2   478  PRO478     -0.2718
     33  CB        39.1040   78.9310   63.4040 C.3   478  PRO478      0.0282
     34  CG        40.4210   78.2850   63.1030 C.3   478  PRO478      0.0208
     35  CD        41.4210   79.4100   63.1180 C.3   478  PRO478      0.0893
     36  N         38.1850   80.1210   66.5030 N.am  479  GLY479     -0.1943
     37  CA        37.8050   79.6350   67.8230 C.3   479  GLY479      0.2014
     38  C         38.2850   80.4990   68.9840 C.2   479  GLY479      0.2639
     39  O         38.1400   80.1080   70.1450 O.2   479  GLY479     -0.2714
     40  N         38.8720   81.6580   68.6550 N.am  480  CYS480     -0.1953
     41  CA        39.4010   82.6470   69.6240 C.3   480  CYS480      0.1843
     42  C         38.4160   83.7770   70.0040 C.2   480  CYS480      0.2626
     43  O         38.7960   84.7180   70.6970 O.2   480  CYS480     -0.2714
     44  CB        40.7700   83.2390   69.1860 C.3   480  CYS480      0.0997
     45  SG        40.8360   84.2220   67.6480 S.3   480  CYS480     -0.0797
     46  N         37.1630   83.6950   69.5600 N.am  481  GLY481     -0.1940
     47  CA        36.1790   84.6940   69.9480 C.3   481  GLY481      0.2014
     48  C         35.7450   85.7280   68.9230 C.2   481  GLY481      0.2639
     49  O         35.1720   86.7440   69.3030 O.2   481  GLY481     -0.2714
     50  N         36.0220   85.4900   67.6410 N.am  482  LYS482     -0.1963
     51  CA        35.5180   86.3500   66.5610 C.3   482  LYS482      0.1728
     52  C         34.0100   86.5910   66.6660 C.2   482  LYS482      0.2617
     53  O         33.5430   87.7340   66.6760 O.2   482  LYS482     -0.2715
     54  CB        35.8120   85.7170   65.1970 C.3   482  LYS482      0.0311
     55  CG        37.0470   86.2310   64.4990 C.3   482  LYS482      0.0038
     56  CD        37.3240   85.4620   63.2140 C.3   482  LYS482      0.0206
     57  CE        37.4640   83.9640   63.4670 C.3   482  LYS482      0.1093
     58  NZ        38.6160   83.6140   64.3460 N.3   482  LYS482     -0.1314
     59  N         33.2560   85.5010   66.7460 N.am  483  THR483     -0.1937
     60  CA        31.7980   85.5690   66.7610 C.3   483  THR483      0.2028
     61  C         31.2600   86.1540   68.0650 C.2   483  THR483      0.2642
     62  O         30.2990   86.9270   68.0560 O.2   483  THR483     -0.2714
     63  CB        31.1700   84.1790   66.5250 C.3   483  THR483      0.1808
     64  OG1       31.7840   83.5580   65.3890 O.3   483  THR483     -0.2208
     65  CG2       29.6700   84.2960   66.2870 C.3   483  THR483      0.0379
     66  N         31.8850   85.7850   69.1810 N.am  484  LEU484     -0.1977
     67  CA        31.4730   86.2690   70.4970 C.3   484  LEU484      0.1596
     68  C         31.5210   87.7910   70.5860 C.2   484  LEU484      0.2287
     69  O         30.6390   88.4150   71.1780 O.2   484  LEU484     -0.2864
     70  CB        32.3500   85.6630   71.5950 C.3   484  LEU484      0.0297
     71  CG        32.1850   84.1740   71.9020 C.3   484  LEU484      0.0022
     72  CD1       33.0820   83.7810   73.0640 C.3   484  LEU484      0.0001
     73  CD2       30.7330   83.8440   72.2060 C.3   484  LEU484      0.0001
     74  N         30.1050   85.2760   58.4640 N.3   535  ASP535     -0.1239
     75  CA        31.0750   84.3050   58.9400 C.3   535  ASP535      0.1674
     76  C         31.7230   83.6350   57.7390 C.2   535  ASP535      0.2266
     77  O         31.0400   83.2880   56.7740 O.2   535  ASP535     -0.2867
     78  CB        30.4050   83.2630   59.8360 C.3   535  ASP535      0.1410
     79  CG        31.4070   82.4510   60.6340 C.2   535  ASP535      0.3668
     80  OD1       32.5480   82.9270   60.8150 O.co2 535  ASP535     -0.2456
     81  OD2       31.0530   81.3420   61.0860 O.co2 535  ASP535     -0.2456
     82  N         44.4080   83.2050   72.7250 N.3   590  PRO590     -0.2116
     83  CA        44.3970   83.7960   74.0670 C.3   590  PRO590      0.1372
     84  C         45.7330   83.5920   74.7660 C.2   590  PRO590      0.2244
     85  O         46.2550   82.4760   74.7790 O.2   590  PRO590     -0.2868
     86  CB        43.2930   83.0130   74.7870 C.3   590  PRO590      0.0268
     87  CG        43.1700   81.7310   74.0280 C.3   590  PRO590      0.0207
     88  CD        43.4490   82.0940   72.6000 C.3   590  PRO590      0.0892
     89  N         39.5530   82.4340   80.8860 N.3   598  ILE598     -0.1245
     90  CA        38.6510   81.5630   80.1370 C.3   598  ILE598      0.1561
     91  C         38.3680   80.2670   80.8980 C.2   598  ILE598      0.2260
     92  O         37.2120   79.8770   81.0690 O.2   598  ILE598     -0.2867
     93  CB        39.2200   81.2220   78.7400 C.3   598  ILE598      0.0252
     94  CG1       39.2680   82.4720   77.8580 C.3   598  ILE598      0.0019
     95  CG2       38.3830   80.1450   78.0670 C.3   598  ILE598      0.0019
     96  CD1       39.8250   82.2220   76.4690 C.3   598  ILE598      0.0001
     97  N         36.2310   80.9320   83.9860 N.3   601  ALA601     -0.1231
     98  CA        34.8620   81.1810   83.5420 C.3   601  ALA601      0.1694
     99  C         34.0710   79.9020   83.2700 C.2   601  ALA601      0.2592
    100  O         32.8740   79.8330   83.5510 O.2   601  ALA601     -0.2718
    101  CB        34.8710   82.0640   82.3010 C.3   601  ALA601      0.0304
    102  N         34.7400   78.9020   82.7070 N.am  602  ASN602     -0.1974
    103  CA        34.1070   77.6170   82.4320 C.3   602  ASN602      0.1688
    104  C         33.9950   76.7270   83.6720 C.2   602  ASN602      0.2292
    105  O         33.0070   76.0110   83.8410 O.2   602  ASN602     -0.2864
    106  CB        34.8520   76.8790   81.3160 C.3   602  ASN602      0.1181
    107  CG        34.7810   77.6050   79.9830 C.2   602  ASN602      0.2629
    108  OD1       35.8010   78.0270   79.4380 O.2   602  ASN602     -0.2716
    109  ND2       33.5740   77.7470   79.4490 N.am  602  ASN602     -0.0877
    110  N         39.9090   79.3630   72.1970 N.3   626  GLY626     -0.1210
    111  CA        38.7980   79.4240   73.1300 C.3   626  GLY626      0.1956
    112  C         37.8850   78.2200   72.9950 C.2   626  GLY626      0.2611
    113  O         37.3670   77.7100   73.9880 O.2   626  GLY626     -0.2717
    114  N         37.6930   77.7670   71.7590 N.am  627  ALA627     -0.1979
    115  CA        36.8730   76.5920   71.4870 C.3   627  ALA627      0.1597
    116  C         37.4680   75.3480   72.1390 C.2   627  ALA627      0.2287
    117  O         36.7420   74.5090   72.6730 O.2   627  ALA627     -0.2864
    118  CB        36.7180   76.3880   69.9870 C.3   627  ALA627      0.0319
    119  N         37.1910   75.6960   76.1040 N.3   630  THR630     -0.1218
    120  CA        35.8520   75.4070   76.6040 C.3   630  THR630      0.1862
    121  C         35.5300   73.9230   76.4280 C.2   630  THR630      0.2287
    122  O         34.6910   73.3730   77.1400 O.2   630  THR630     -0.2866
    123  CB        34.7740   76.2900   75.9220 C.3   630  THR630      0.1770
    124  OG1       33.7280   76.5860   76.8560 O.3   630  THR630     -0.2211
    125  CG2       34.1840   75.6000   74.6970 C.3   630  THR630      0.0375
@<TRIPOS>BOND
     1    77    76    2
     2    76    75    1
     3    74    75    1
     4    75    78    1
     5    78    79    1
     6    79    80   ar
     7    79    81   ar
     8    34    35    1
     9    34    33    1
    10    35    29    1
    11    56    57    1
    12    56    55    1
    13    33    30    1
    14    57    58    1
    15    29    30    1
    16    30    31    1
    17    55    54    1
    18    54    51    1
    19    64    63    1
    20    31    32    2
    21    31    36   am
    22    65    63    1
    23    36    37    1
    24    63    60    1
    25    51    52    1
    26    51    50    1
    27    52    53    2
    28    52    59   am
    29    59    60    1
    30    60    61    1
    31    50    48   am
    32    45    44    1
    33    37    38    1
    34    62    61    2
    35    61    66   am
    36    40    38   am
    37    40    41    1
    38    48    49    2
    39    48    47    1
    40    38    39    2
    41    66    67    1
    42    44    41    1
    43    46    47    1
    44    46    42   am
    45    41    42    1
    46   118   115    1
    47    42    43    2
    48    67    68    1
    49    67    70    1
    50    68    69    2
    51   115   114    1
    52   115   116    1
    53    70    71    1
    54   114   112   am
    55    71    73    1
    56    71    72    1
    57    27    26    1
    58   116   117    2
    59    28    26    1
    60   110   111    1
    61    88    82    1
    62    88    87    1
    63    82    83    1
    64    26    25    1
    65   112   111    1
    66   112   113    2
    67    25    22    1
    68    16    14    1
    69    87    86    1
    70    83    84    1
    71    83    86    1
    72    24    23    2
    73    22    23    1
    74    22    21    1
    75    15    13    1
    76   125   123    1
    77    14    13    1
    78    84    85    2
    79    13    10    1
    80   123   120    1
    81   123   124    1
    82   119   120    1
    83    20    19    2
    84   121   120    1
    85   121   122    2
    86    96    94    1
    87    10     9    1
    88    10    11    1
    89     9     3   am
    90    11    17   am
    91    11    12    2
    92    19    18    1
    93    17    18    1
    94    94    93    1
    95     4     3    2
    96    95    93    1
    97     3     2    1
    98     5     6    1
    99     5     2    1
   100     8     6   ar
   101    93    90    1
   102     6     7   ar
   103     2     1    1
   104   108   107    2
   105   109   107   am
   106   107   106    1
   107    90    89    1
   108    90    91    1
   109    91    92    2
   110   106   103    1
   111   101    98    1
   112   103   102    1
   113   103   104    1
   114   102    99   am
   115    99    98    1
   116    99   100    2
   117    98    97    1
   118   104   105    2
