@<TRIPOS>MOLECULE
tmp/5ifwB00.pdb
 120 114 0 0 0
SMALL
GASTEIGER

@<TRIPOS>ATOM
      1  N          7.4150   67.3160   29.8310 N.3   193  ASP193     -0.1225
      2  CA         8.7360   67.7490   30.2690 C.3   193  ASP193      0.1805
      3  C          8.6620   68.5290   31.5820 C.2   193  ASP193      0.2598
      4  O          9.6800   69.0050   32.0870 O.2   193  ASP193     -0.2718
      5  CB         9.4040   68.6000   29.1870 C.3   193  ASP193      0.1424
      6  CG         9.7320   67.8050   27.9370 C.2   193  ASP193      0.3668
      7  OD1        9.3450   66.6200   27.8620 O.co2 193  ASP193     -0.2456
      8  OD2       10.3710   68.3700   27.0240 O.co2 193  ASP193     -0.2456
      9  N          7.4560   68.6590   32.1290 N.am  194  ILE194     -0.1966
     10  CA         7.2590   69.3840   33.3810 C.3   194  ILE194      0.1727
     11  C          6.8150   68.4600   34.5100 C.2   194  ILE194      0.2616
     12  O          5.6910   67.9560   34.5070 O.2   194  ILE194     -0.2715
     13  CB         6.2080   70.5000   33.2280 C.3   194  ILE194      0.0290
     14  CG1        6.6180   71.4740   32.1240 C.3   194  ILE194      0.0022
     15  CG2        6.0110   71.2370   34.5470 C.3   194  ILE194      0.0023
     16  CD1        5.6150   72.5740   31.8930 C.3   194  ILE194      0.0001
     17  N          7.7060   68.2340   35.4690 N.am  195  GLY195     -0.1955
     18  CA         7.3680   67.4570   36.6460 C.3   195  GLY195      0.1869
     19  C          7.1870   68.3240   37.8760 C.2   195  GLY195      0.2309
     20  O          7.5350   69.5020   37.8760 O.2   195  GLY195     -0.2863
     21  N          4.7570   69.7600   39.3580 N.3   197  CYS197     -0.1235
     22  CA         3.4380   70.3730   39.4370 C.3   197  CYS197      0.1677
     23  C          2.5230   69.9160   38.3030 C.2   197  CYS197      0.2270
     24  O          2.6900   70.3260   37.1550 O.2   197  CYS197     -0.2867
     25  CB         3.5650   71.9000   39.4350 C.3   197  CYS197      0.0956
     26  SG         4.6590   72.5720   38.1590 S.3   197  CYS197     -0.0801
     27  N         13.7530   80.8970   41.9160 N.3   235  PRO235     -0.2102
     28  CA        14.2460   80.6540   40.5540 C.3   235  PRO235      0.1504
     29  C         14.4100   79.1680   40.2330 C.2   235  PRO235      0.2576
     30  O         14.5250   78.3510   41.1480 O.2   235  PRO235     -0.2718
     31  CB        15.6180   81.3430   40.5500 C.3   235  PRO235      0.0282
     32  CG        15.5700   82.3190   41.6760 C.3   235  PRO235      0.0208
     33  CD        14.7220   81.6640   42.7180 C.3   235  PRO235      0.0893
     34  N         14.4130   78.8300   38.9450 N.am  236  GLY236     -0.1943
     35  CA        14.6180   77.4600   38.5050 C.3   236  GLY236      0.2014
     36  C         13.4820   76.5190   38.8590 C.2   236  GLY236      0.2640
     37  O         13.6850   75.3100   38.9850 O.2   236  GLY236     -0.2714
     38  N         12.2840   77.0790   39.0140 N.am  237  THR237     -0.1936
     39  CA        11.0940   76.3080   39.3780 C.3   237  THR237      0.2028
     40  C         10.3240   75.7480   38.1750 C.2   237  THR237      0.2643
     41  O          9.4460   74.8940   38.3350 O.2   237  THR237     -0.2714
     42  CB        10.1240   77.1490   40.2420 C.3   237  THR237      0.1808
     43  OG1       10.4090   78.5440   40.0750 O.3   237  THR237     -0.2208
     44  CG2       10.2600   76.7840   41.7110 C.3   237  THR237      0.0379
     45  N         10.6600   76.2130   36.9750 N.am  238  GLY238     -0.1939
     46  CA         9.9600   75.7800   35.7780 C.3   238  GLY238      0.2014
     47  C          8.9430   76.7780   35.2580 C.2   238  GLY238      0.2639
     48  O          8.1180   76.4420   34.4110 O.2   238  GLY238     -0.2714
     49  N          8.9970   78.0050   35.7700 N.am  239  LYS239     -0.1963
     50  CA         8.0880   79.0610   35.3340 C.3   239  LYS239      0.1728
     51  C          8.2510   79.3560   33.8440 C.2   239  LYS239      0.2617
     52  O          7.2740   79.3450   33.0940 O.2   239  LYS239     -0.2715
     53  CB         8.3080   80.3360   36.1530 C.3   239  LYS239      0.0311
     54  CG         7.8760   80.2310   37.6090 C.3   239  LYS239      0.0038
     55  CD         8.3620   81.4300   38.4100 C.3   239  LYS239      0.0206
     56  CE         9.8710   81.5870   38.2930 C.3   239  LYS239      0.1093
     57  NZ        10.5850   80.3200   38.6100 N.3   239  LYS239     -0.1314
     58  N          9.4860   79.6170   33.4230 N.am  240  THR240     -0.1937
     59  CA         9.7900   79.8350   32.0120 C.3   240  THR240      0.2028
     60  C          9.5140   78.5540   31.2320 C.2   240  THR240      0.2642
     61  O          9.0610   78.5930   30.0870 O.2   240  THR240     -0.2714
     62  CB        11.2640   80.2440   31.8070 C.3   240  THR240      0.1808
     63  OG1       11.5930   81.3280   32.6860 O.3   240  THR240     -0.2208
     64  CG2       11.5110   80.6660   30.3650 C.3   240  THR240      0.0379
     65  N          9.7880   77.4200   31.8710 N.am  241  LEU241     -0.1977
     66  CA         9.5260   76.1090   31.2890 C.3   241  LEU241      0.1596
     67  C          8.0360   75.9320   31.0150 C.2   241  LEU241      0.2287
     68  O          7.6420   75.5030   29.9290 O.2   241  LEU241     -0.2864
     69  CB        10.0160   75.0080   32.2330 C.3   241  LEU241      0.0297
     70  CG         9.9770   73.5670   31.7210 C.3   241  LEU241      0.0022
     71  CD1       11.0660   73.3470   30.6870 C.3   241  LEU241      0.0001
     72  CD2       10.1110   72.5750   32.8680 C.3   241  LEU241      0.0001
     73  N          9.9840   87.7610   31.7280 N.3   292  ASP292     -0.1239
     74  CA        10.8010   87.1230   32.7530 C.3   292  ASP292      0.1674
     75  C         11.2980   88.1390   33.7750 C.2   292  ASP292      0.2266
     76  O         11.8330   89.1850   33.4090 O.2   292  ASP292     -0.2867
     77  CB        11.9800   86.3840   32.1150 C.3   292  ASP292      0.1410
     78  CG        12.7440   85.5320   33.1100 C.2   292  ASP292      0.3668
     79  OD1       12.1880   85.2270   34.1860 O.co2 292  ASP292     -0.2456
     80  OD2       13.8980   85.1590   32.8130 O.co2 292  ASP292     -0.2456
     81  N         10.4290   64.9340   38.5480 N.3   362  ILE362     -0.1245
     82  CA        11.5020   65.6910   37.9110 C.3   362  ILE362      0.1561
     83  C         12.7040   64.8080   37.6000 C.2   362  ILE362      0.2260
     84  O         13.2720   64.8820   36.5080 O.2   362  ILE362     -0.2867
     85  CB        11.9610   66.8670   38.7920 C.3   362  ILE362      0.0252
     86  CG1       10.7610   67.7220   39.2030 C.3   362  ILE362      0.0019
     87  CG2       13.0060   67.7050   38.0650 C.3   362  ILE362      0.0019
     88  CD1       11.1320   68.9240   40.0410 C.3   362  ILE362      0.0001
     89  N         12.0090   62.4740   34.7130 N.3   365  ILE365     -0.1231
     90  CA        12.0420   63.2220   33.4590 C.3   365  ILE365      0.1692
     91  C         13.4600   63.3720   32.9060 C.2   365  ILE365      0.2592
     92  O         13.6910   63.1890   31.7110 O.2   365  ILE365     -0.2718
     93  CB        11.3990   64.6200   33.6150 C.3   365  ILE365      0.0266
     94  CG1        9.8840   64.4930   33.7760 C.3   365  ILE365      0.0019
     95  CG2       11.7150   65.5060   32.4190 C.3   365  ILE365      0.0020
     96  CD1        9.1690   65.8200   33.8630 C.3   365  ILE365      0.0001
     97  N         14.4090   63.7060   33.7730 N.am  366  HIS366     -0.1976
     98  CA        15.7820   63.9630   33.3310 C.3   366  HIS366      0.1656
     99  C         16.6780   62.7130   33.2340 C.2   366  HIS366      0.2291
    100  O         17.7710   62.7800   32.6720 O.2   366  HIS366     -0.2864
    101  CB        16.4350   65.0470   34.2000 C.3   366  HIS366      0.0771
    102  CG        15.8590   66.4160   33.9980 C.ar  366  HIS366      0.0820
    103  ND1       14.7220   66.8550   34.6480 N.ar  366  HIS366     -0.2267
    104  CD2       16.2650   67.4510   33.2240 C.ar  366  HIS366      0.1154
    105  CE1       14.4550   68.0930   34.2800 C.ar  366  HIS366      0.1986
    106  NE2       15.3760   68.4810   33.4160 N.ar  366  HIS366     -0.2212
    107  N         13.4440   72.5360   40.2120 N.3   390  GLY390     -0.1210
    108  CA        13.6410   71.7730   38.9930 C.3   390  GLY390      0.1956
    109  C         15.0170   71.9310   38.3710 C.2   390  GLY390      0.2611
    110  O         15.5980   70.9580   37.8880 O.2   390  GLY390     -0.2717
    111  N         15.5410   73.1540   38.3870 N.am  391  ALA391     -0.1979
    112  CA        16.8520   73.4380   37.8060 C.3   391  ALA391      0.1597
    113  C         17.9760   72.7320   38.5570 C.2   391  ALA391      0.2287
    114  O         18.9900   72.3560   37.9640 O.2   391  ALA391     -0.2864
    115  CB        17.0980   74.9390   37.7630 C.3   391  ALA391      0.0319
    116  N         17.7630   68.9110   37.7990 N.3   394  ALA394     -0.1245
    117  CA        18.2330   68.7880   36.4250 C.3   394  ALA394      0.1562
    118  C         19.7540   68.8740   36.3890 C.2   394  ALA394      0.2260
    119  O         20.4120   68.1290   35.6630 O.2   394  ALA394     -0.2867
    120  CB        17.6170   69.8720   35.5570 C.3   394  ALA394      0.0290
@<TRIPOS>BOND
     1     8     6   ar
     2     7     6   ar
     3     6     5    1
     4     5     2    1
     5     1     2    1
     6    68    67    2
     7    61    60    2
     8     2     3    1
     9    64    62    1
    10    71    70    1
    11    67    66    1
    12    60    65   am
    13    60    59    1
    14    66    65    1
    15    66    69    1
    16     3     4    2
    17     3     9   am
    18    92    91    2
    19    70    69    1
    20    70    72    1
    21    73    74    1
    22    62    59    1
    23    62    63    1
    24    16    14    1
    25    59    58    1
    26    77    74    1
    27    77    78    1
    28    14    13    1
    29     9    10    1
    30    95    93    1
    31   100    99    2
    32    74    75    1
    33    80    78   ar
    34    91    90    1
    35    91    97   am
    36    52    51    2
    37    78    79   ar
    38   104   106   ar
    39   104   102   ar
    40    13    10    1
    41    13    15    1
    42    99    98    1
    43    98    97    1
    44    98   101    1
    45    10    11    1
    46    76    75    2
    47   106   105   ar
    48    58    51   am
    49    90    93    1
    50    90    89    1
    51    93    94    1
    52    94    96    1
    53    51    50    1
    54   102   101    1
    55   102   103   ar
    56   105   103   ar
    57    48    47    2
    58    12    11    2
    59    11    17   am
    60    47    49   am
    61    47    46    1
    62    50    49    1
    63    50    53    1
    64    17    18    1
    65   120   117    1
    66   119   118    2
    67    46    45    1
    68    53    54    1
    69   118   117    1
    70   117   116    1
    71    84    83    2
    72    18    19    1
    73    45    40   am
    74    24    23    2
    75    83    82    1
    76    54    55    1
    77   115   112    1
    78   112   111    1
    79   112   113    1
    80    20    19    2
    81   110   109    2
    82    82    81    1
    83    82    85    1
    84   114   113    2
    85    87    85    1
    86    26    25    1
    87    40    41    2
    88    40    39    1
    89    56    55    1
    90    56    57    1
    91    23    22    1
    92   109   111   am
    93   109   108    1
    94    35    36    1
    95    35    34    1
    96    85    86    1
    97    36    37    2
    98    36    38   am
    99    34    29   am
   100   108   107    1
   101    38    39    1
   102    86    88    1
   103    21    22    1
   104    39    42    1
   105    25    22    1
   106    43    42    1
   107    29    28    1
   108    29    30    2
   109    42    44    1
   110    31    28    1
   111    31    32    1
   112    28    27    1
   113    32    33    1
   114    27    33    1
