@<TRIPOS>MOLECULE
tmp/5ifyF01.pdb
 131 127 0 0 0
SMALL
GASTEIGER

@<TRIPOS>ATOM
      1  N        -12.5030   11.1340  -57.9050 N.3    40  SER40      -0.1217
      2  CA       -11.3250   11.3100  -58.7480 C.3    40  SER40       0.1889
      3  C        -11.2480   10.2280  -59.8260 C.2    40  SER40       0.2288
      4  O        -10.7550   10.4900  -60.9300 O.2    40  SER40      -0.2866
      5  CB       -10.0520   11.3200  -57.8890 C.3    40  SER40       0.2089
      6  OG        -9.7330    9.9880  -57.4940 O.3    40  SER40      -0.2183
      7  N        -10.6920   11.1200  -63.7170 N.3    44  ILE44      -0.1245
      8  CA        -9.6450   10.5330  -64.5400 C.3    44  ILE44       0.1561
      9  C        -10.2270    9.8500  -65.7710 C.2    44  ILE44       0.2260
     10  O         -9.5840    9.8020  -66.8260 O.2    44  ILE44      -0.2867
     11  CB        -8.7810    9.6160  -63.6440 C.3    44  ILE44       0.0252
     12  CG1       -7.7040   10.4720  -62.9520 C.3    44  ILE44       0.0019
     13  CG2       -8.2700    8.3980  -64.3660 C.3    44  ILE44       0.0019
     14  CD1       -7.3960   10.0510  -61.5700 C.3    44  ILE44       0.0001
     15  N         -9.9140    2.8530  -56.5230 N.3   112  PHE112     -0.1227
     16  CA        -9.1680    2.3270  -57.6670 C.3   112  PHE112      0.1736
     17  C         -7.8230    3.0320  -57.7710 C.2   112  PHE112      0.2595
     18  O         -7.7860    4.2580  -57.8470 O.2   112  PHE112     -0.2718
     19  CB        -9.9390    2.5480  -58.9770 C.3   112  PHE112      0.0547
     20  CG       -11.2120    1.7620  -59.0680 C.ar  112  PHE112     -0.0202
     21  CD1      -12.3890    2.2620  -58.5280 C.ar  112  PHE112     -0.0042
     22  CD2      -11.2290    0.5080  -59.6730 C.ar  112  PHE112     -0.0042
     23  CE1      -13.5820    1.5260  -58.5940 C.ar  112  PHE112     -0.0003
     24  CE2      -12.4050   -0.2320  -59.7460 C.ar  112  PHE112     -0.0003
     25  CZ       -13.5920    0.2880  -59.2150 C.ar  112  PHE112     -0.0000
     26  N         -6.7280    2.2710  -57.8520 N.am  113  TYR113     -0.1962
     27  CA        -5.4250    2.8970  -57.9960 C.3   113  TYR113      0.1771
     28  C         -4.4730    2.0210  -58.8060 C.2   113  TYR113      0.2620
     29  O         -4.4060    0.8040  -58.5900 O.2   113  TYR113     -0.2715
     30  CB        -4.7770    3.1920  -56.6410 C.3   113  TYR113      0.0574
     31  CG        -3.5910    4.1290  -56.8060 C.ar  113  TYR113     -0.0198
     32  CD1       -3.7910    5.5010  -56.9170 C.ar  113  TYR113     -0.0009
     33  CD2       -2.2940    3.6450  -56.9230 C.ar  113  TYR113     -0.0009
     34  CE1       -2.7470    6.3680  -57.1000 C.ar  113  TYR113      0.0417
     35  CE2       -1.2140    4.5090  -57.1080 C.ar  113  TYR113      0.0417
     36  CZ        -1.4480    5.8880  -57.1920 C.ar  113  TYR113      0.1957
     37  OH        -0.4050    6.8190  -57.3710 O.3   113  TYR113     -0.2866
     38  N         -3.7490    2.6340  -59.7380 N.am  114  GLY114     -0.1940
     39  CA        -2.6670    1.9270  -60.3960 C.3   114  GLY114      0.2014
     40  C         -2.2590    2.5550  -61.7080 C.2   114  GLY114      0.2639
     41  O         -2.9650    3.3820  -62.2870 O.2   114  GLY114     -0.2714
     42  N         -1.1110    2.0940  -62.2060 N.am  115  HIS115     -0.1959
     43  CA        -0.5390    2.6590  -63.4240 C.3   115  HIS115      0.1787
     44  C         -1.4290    2.4170  -64.6360 C.2   115  HIS115      0.2620
     45  O         -1.9800    1.3230  -64.8150 O.2   115  HIS115     -0.2715
     46  CB         0.8360    2.0610  -63.7030 C.3   115  HIS115      0.0785
     47  CG         1.3980    2.4870  -65.0210 C.ar  115  HIS115      0.0821
     48  ND1        1.8130    3.7790  -65.2630 N.ar  115  HIS115     -0.2267
     49  CD2        1.5900    1.8060  -66.1760 C.ar  115  HIS115      0.1154
     50  CE1        2.2370    3.8760  -66.5110 C.ar  115  HIS115      0.1986
     51  NE2        2.1230    2.6930  -67.0830 N.ar  115  HIS115     -0.2212
     52  N         -1.5650    3.4560  -65.4720 N.am  116  ASP116     -0.1957
     53  CA        -2.3190    3.4030  -66.7180 C.3   116  ASP116      0.1840
     54  C         -3.8120    3.2310  -66.5120 C.2   116  ASP116      0.2622
     55  O         -4.5140    2.8840  -67.4580 O.2   116  ASP116     -0.2715
     56  CB        -1.8090    2.2900  -67.6400 C.3   116  ASP116      0.1450
     57  CG        -1.0650    2.8240  -68.8470 C.2   116  ASP116      0.3671
     58  OD1       -0.7190    4.0230  -68.8610 O.co2 116  ASP116     -0.2456
     59  OD2       -0.8090    2.0330  -69.7720 O.co2 116  ASP116     -0.2456
     60  N         -4.3200    3.4740  -65.3030 N.am  117  LEU117     -0.1963
     61  CA        -5.7600    3.4200  -65.0850 C.3   117  LEU117      0.1728
     62  C         -6.4940    4.3520  -66.0420 C.2   117  LEU117      0.2616
     63  O         -7.5520    3.9920  -66.5780 O.2   117  LEU117     -0.2715
     64  CB        -6.0890    3.7950  -63.6390 C.3   117  LEU117      0.0311
     65  CG        -7.5690    3.6800  -63.2250 C.3   117  LEU117      0.0022
     66  CD1       -8.0860    2.2210  -63.3510 C.3   117  LEU117      0.0001
     67  CD2       -7.7910    4.1780  -61.8130 C.3   117  LEU117      0.0001
     68  N         -5.9340    5.5480  -66.2810 N.am  118  ALA118     -0.1977
     69  CA        -6.5930    6.5280  -67.1410 C.3   118  ALA118      0.1597
     70  C         -6.7450    6.0000  -68.5540 C.2   118  ALA118      0.2287
     71  O         -7.7910    6.1920  -69.1830 O.2   118  ALA118     -0.2864
     72  CB        -5.8230    7.8620  -67.1530 C.3   118  ALA118      0.0319
     73  N         -0.0960   13.5270  -54.1220 N.3   248  MET248     -0.1230
     74  CA        -1.3610   13.1690  -53.4960 C.3   248  MET248      0.1702
     75  C         -2.1770   12.2380  -54.3950 C.2   248  MET248      0.2592
     76  O         -2.2900   12.4710  -55.6060 O.2   248  MET248     -0.2718
     77  CB        -2.1800   14.4200  -53.1880 C.3   248  MET248      0.0401
     78  CG        -3.2930   14.1810  -52.1720 C.3   248  MET248      0.0596
     79  SD        -4.1750   15.6920  -51.7110 S.3   248  MET248     -0.1393
     80  CE        -2.9130   16.4790  -50.7230 C.3   248  MET248      0.0692
     81  N         -2.7470   11.1830  -53.8090 N.am  249  VAL249     -0.1966
     82  CA        -3.7470   10.3770  -54.5230 C.3   249  VAL249      0.1727
     83  C         -5.1000   11.0760  -54.4200 C.2   249  VAL249      0.2616
     84  O         -5.5180   11.4770  -53.3280 O.2   249  VAL249     -0.2715
     85  CB        -3.8320    8.9500  -53.9580 C.3   249  VAL249      0.0290
     86  CG1       -4.9910    8.1360  -54.6670 C.3   249  VAL249      0.0023
     87  CG2       -2.4930    8.1940  -54.0920 C.3   249  VAL249      0.0023
     88  N         -5.7720   11.2550  -55.5600 N.am  250  ALA250     -0.1963
     89  CA        -7.1730   11.6950  -55.5790 C.3   250  ALA250      0.1728
     90  C         -7.3300   13.1340  -55.0720 C.2   250  ALA250      0.2616
     91  O         -8.2170   13.4380  -54.2680 O.2   250  ALA250     -0.2715
     92  CB        -8.0710   10.7450  -54.7770 C.3   250  ALA250      0.0334
     93  N         -6.4670   14.0270  -55.5540 N.am  251  CYS251     -0.1968
     94  CA        -6.6660   15.4490  -55.3210 C.3   251  CYS251      0.1712
     95  C         -7.4630   16.0370  -56.4880 C.2   251  CYS251      0.2296
     96  O         -6.9190   16.1810  -57.5880 O.2   251  CYS251     -0.2864
     97  CB        -5.3370   16.1600  -55.1640 C.3   251  CYS251      0.0983
     98  SG        -5.5130   17.9760  -55.0530 S.3   251  CYS251     -0.0798
     99  N         -5.9870   18.9700  -58.4650 N.3   254  GLU254     -0.1231
    100  CA        -4.8690   18.5960  -59.3210 C.3   254  GLU254      0.1699
    101  C         -5.3650   17.9750  -60.6230 C.2   254  GLU254      0.2592
    102  O         -4.9230   18.3480  -61.7170 O.2   254  GLU254     -0.2718
    103  CB        -3.9390   17.6330  -58.5730 C.3   254  GLU254      0.0402
    104  CG        -2.8570   17.0410  -59.4900 C.3   254  GLU254      0.1161
    105  CD        -1.8420   16.1780  -58.7500 C.2   254  GLU254      0.3649
    106  OE1       -2.1070   15.7340  -57.6070 O.co2 254  GLU254     -0.2457
    107  OE2       -0.7780   15.9370  -59.3340 O.co2 254  GLU254     -0.2457
    108  N         -6.2940   17.0250  -60.5240 N.am  255  ILE255     -0.1980
    109  CA        -6.7740   16.3450  -61.7220 C.3   255  ILE255      0.1595
    110  C         -7.4950   17.3260  -62.6300 C.2   255  ILE255      0.2287
    111  O         -7.3140   17.3190  -63.8560 O.2   255  ILE255     -0.2864
    112  CB        -7.6690   15.1600  -61.3250 C.3   255  ILE255      0.0276
    113  CG1       -6.8260   14.1330  -60.5480 C.3   255  ILE255      0.0022
    114  CG2       -8.3250   14.5320  -62.5660 C.3   255  ILE255      0.0022
    115  CD1       -7.6440   13.1290  -59.7860 C.3   255  ILE255      0.0001
    116  N         -4.7960   19.5070  -64.3000 N.3   258  ARG258     -0.1245
    117  CA        -4.0120   18.8500  -65.3370 C.3   258  ARG258      0.1563
    118  C         -4.8480   18.5580  -66.5740 C.2   258  ARG258      0.2260
    119  O         -4.3030   18.4730  -67.6790 O.2   258  ARG258     -0.2867
    120  CB        -3.3820   17.5550  -64.8000 C.3   258  ARG258      0.0307
    121  CG        -2.4130   17.7630  -63.6430 C.3   258  ARG258      0.0489
    122  CD        -1.2740   16.7180  -63.6270 C.3   258  ARG258      0.2205
    123  NE        -0.5140   16.7500  -62.3720 N.pl3 258  ARG258     -0.0865
    124  CZ         0.3040   17.7400  -62.0050 C.cat 258  ARG258      0.5346
    125  NH1        0.4850   18.8050  -62.7900 N.pl3 258  ARG258      0.1354
    126  NH2        0.9400   17.6680  -60.8410 N.pl3 258  ARG258      0.1354
    127  N          4.6670   14.6480  -64.6780 N.3   292  ALA292     -0.1245
    128  CA         4.1280   14.0240  -65.8870 C.3   292  ALA292      0.1562
    129  C          2.6780   13.5620  -65.6980 C.2   292  ALA292      0.2260
    130  O          2.2880   13.1120  -64.6130 O.2   292  ALA292     -0.2867
    131  CB         4.9960   12.8650  -66.2970 C.3   292  ALA292      0.0290
@<TRIPOS>BOND
     1    59    57   ar
     2    71    70    2
     3    58    57   ar
     4    57    56    1
     5    70    69    1
     6   119   118    2
     7    56    53    1
     8    55    54    2
     9    72    69    1
    10    69    68    1
    11    51    50   ar
    12    51    49   ar
    13    10     9    2
    14    53    54    1
    15    53    52    1
    16    63    62    2
    17   118   117    1
    18    54    60   am
    19    50    48   ar
    20   131   128    1
    21    68    62   am
    22    49    47   ar
    23    62    61    1
    24   128   129    1
    25   128   127    1
    26     9     8    1
    27   129   130    2
    28    52    44   am
    29   117   120    1
    30   117   116    1
    31    60    61    1
    32    48    47   ar
    33    61    64    1
    34    47    46    1
    35    45    44    2
    36   120   121    1
    37    44    43    1
    38     8     7    1
    39     8    11    1
    40    13    11    1
    41   111   110    2
    42    46    43    1
    43    11    12    1
    44   121   122    1
    45    64    65    1
    46   122   123    1
    47    43    42    1
    48    66    65    1
    49    65    67    1
    50    12    14    1
    51   125   124    1
    52   110   109    1
    53   114   112    1
    54   123   124    2
    55    41    40    2
    56    42    40   am
    57   124   126    1
    58   109   112    1
    59   109   108    1
    60   102   101    2
    61    40    39    1
    62   112   113    1
    63     4     3    2
    64   101   108   am
    65   101   100    1
    66   113   115    1
    67    39    38    1
    68     3     2    1
    69    24    22   ar
    70    24    25   ar
    71    38    28   am
    72    22    20   ar
    73   104   105    1
    74   104   103    1
    75   107   105   ar
    76   100   103    1
    77   100    99    1
    78    25    23   ar
    79    20    19    1
    80    20    21   ar
    81    19    16    1
    82    28    29    2
    83    28    27    1
    84   105   106   ar
    85     2     1    1
    86     2     5    1
    87    23    21   ar
    88    27    26    1
    89    27    30    1
    90     5     6    1
    91    26    17   am
    92    18    17    2
    93    17    16    1
    94    16    15    1
    95    96    95    2
    96    37    36    1
    97    36    35   ar
    98    36    34   ar
    99    35    33   ar
   100    34    32   ar
   101    33    31   ar
   102    32    31   ar
   103    31    30    1
   104    95    94    1
   105    76    75    2
   106    89    88    1
   107    89    90    1
   108    89    92    1
   109    88    83   am
   110    93    94    1
   111    93    90   am
   112    94    97    1
   113    97    98    1
   114    90    91    2
   115    86    85    1
   116    82    83    1
   117    82    85    1
   118    82    81    1
   119    83    84    2
   120    75    81   am
   121    75    74    1
   122    73    74    1
   123    87    85    1
   124    74    77    1
   125    77    78    1
   126    78    79    1
   127    79    80    1
