@<TRIPOS>MOLECULE
tmp/5ig6A00.pdb
 121 121 0 0 0
SMALL
GASTEIGER

@<TRIPOS>ATOM
      1  N          9.2800   15.9830    4.4920 N.3    30  TRP30      -0.1228
      2  CA         8.8190   17.3270    4.2160 C.3    30  TRP30       0.1722
      3  C          8.1650   17.5200    2.8440 C.2    30  TRP30       0.2437
      4  O          7.2500   18.3360    2.7560 O.2    30  TRP30      -0.2733
      5  CB         9.9300   18.3740    4.4840 C.3    30  TRP30       0.0563
      6  CG        11.0890   18.3130    3.5130 C.ar   30  TRP30       0.0003
      7  CD1       12.2960   17.6810    3.7100 C.ar   30  TRP30       0.0946
      8  CD2       11.1590   18.9290    2.2360 C.ar   30  TRP30       0.0152
      9  NE1       13.0610   17.8390    2.5980 N.ar   30  TRP30      -0.2442
     10  CE2       12.4030   18.6220    1.6980 C.ar   30  TRP30       0.0810
     11  CE3       10.2710   19.6960    1.4710 C.ar   30  TRP30       0.0012
     12  CZ2       12.7800   19.0330    0.4300 C.ar   30  TRP30       0.0191
     13  CZ3       10.6440   20.1100    0.2170 C.ar   30  TRP30       0.0001
     14  CH2       11.8780   19.7650   -0.3000 C.ar   30  TRP30       0.0015
     15  N          8.5510   16.8280    1.7650 N.am   31  PRO31      -0.2718
     16  CA         7.8550   17.0740    0.4920 C.3    31  PRO31       0.1535
     17  C          6.3860   16.6930    0.5430 C.2    31  PRO31       0.2598
     18  O          5.6270   17.1330   -0.3100 O.2    31  PRO31      -0.2715
     19  CB         8.5970   16.1740   -0.5220 C.3    31  PRO31       0.0310
     20  CG         9.9680   16.0470    0.0870 C.3    31  PRO31       0.0237
     21  CD         9.6900   15.9010    1.5640 C.3    31  PRO31       0.0939
     22  N          5.9950   15.8780    1.5280 N.am   32  PHE32      -0.1974
     23  CA         4.6720   15.3010    1.6380 C.3    32  PHE32       0.1639
     24  C          3.7870   16.0320    2.6190 C.2    32  PHE32       0.2290
     25  O          2.6340   15.6430    2.8420 O.2    32  PHE32      -0.2864
     26  CB         4.8030   13.7990    1.9790 C.3    32  PHE32       0.0560
     27  CG         5.7330   13.1180    1.0230 C.ar   32  PHE32      -0.0200
     28  CD1        5.3490   12.9110   -0.3190 C.ar   32  PHE32      -0.0042
     29  CD2        7.0150   12.7740    1.3830 C.ar   32  PHE32      -0.0042
     30  CE1        6.2720   12.4280   -1.2610 C.ar   32  PHE32      -0.0003
     31  CE2        7.9280   12.2720    0.4620 C.ar   32  PHE32      -0.0003
     32  CZ         7.5490   12.1000   -0.8500 C.ar   32  PHE32      -0.0000
     33  N          1.0560   19.3410   -3.3510 N.3    36  VAL36      -0.1245
     34  CA         1.9890   19.7740   -4.3700 C.3    36  VAL36       0.1561
     35  C          1.4380   21.0410   -5.0130 C.2    36  VAL36       0.2260
     36  O          0.2980   21.0470   -5.4970 O.2    36  VAL36      -0.2867
     37  CB         2.1590   18.6670   -5.4350 C.3    36  VAL36       0.0252
     38  CG1        3.0000   19.1750   -6.5950 C.3    36  VAL36       0.0019
     39  CG2        2.7880   17.4310   -4.8140 C.3    36  VAL36       0.0019
     40  N          6.1110   25.0810   -8.6450 N.3    41  LEU41      -0.1231
     41  CA         7.2610   24.2230   -8.9110 C.3    41  LEU41       0.1693
     42  C          7.5580   24.0950  -10.4090 C.2    41  LEU41       0.2593
     43  O          8.5270   23.4200  -10.7770 O.2    41  LEU41      -0.2718
     44  CB         7.0000   22.8250   -8.2930 C.3    41  LEU41       0.0284
     45  CG         6.9370   22.7870   -6.7580 C.3    41  LEU41       0.0019
     46  CD1        6.3930   21.4460   -6.2860 C.3    41  LEU41       0.0001
     47  CD2        8.2740   23.0680   -6.1190 C.3    41  LEU41       0.0001
     48  N          6.7330   24.6810  -11.2730 N.am   42  GLY42      -0.1942
     49  CA         6.9280   24.5390  -12.7010 C.3    42  GLY42       0.2014
     50  C          6.4770   23.2100  -13.2750 C.2    42  GLY42       0.2638
     51  O          6.8310   22.8900  -14.3900 O.2    42  GLY42      -0.2714
     52  N          5.6540   22.4850  -12.5100 N.am   43  LEU43      -0.1977
     53  CA         5.1960   21.1350  -12.8500 C.3    43  LEU43       0.1596
     54  C          3.8940   21.2260  -13.6010 C.2    43  LEU43       0.2287
     55  O          2.8470   20.7910  -13.1060 O.2    43  LEU43      -0.2864
     56  CB         4.9620   20.2710  -11.6010 C.3    43  LEU43       0.0297
     57  CG         6.1790   20.1870  -10.6910 C.3    43  LEU43       0.0022
     58  CD1        5.8910   19.2510   -9.5270 C.3    43  LEU43       0.0001
     59  CD2        7.4200   19.7400  -11.4450 C.3    43  LEU43       0.0001
     60  N          1.5100   18.2570  -13.9140 N.3    46  TYR46      -0.1241
     61  CA         1.2610   17.4230  -12.7250 C.3    46  TYR46       0.1605
     62  C         -0.1760   16.9740  -12.6730 C.2    46  TYR46       0.2264
     63  O         -0.4520   15.7960  -12.4340 O.2    46  TYR46      -0.2867
     64  CB         1.6320   18.2020  -11.4650 C.3    46  TYR46       0.0534
     65  CG         1.5990   17.3430  -10.2320 C.ar   46  TYR46      -0.0201
     66  CD1        2.6720   16.5020   -9.9330 C.ar   46  TYR46      -0.0009
     67  CD2        0.5040   17.3410   -9.3730 C.ar   46  TYR46      -0.0009
     68  CE1        2.6390   15.6680   -8.8340 C.ar   46  TYR46       0.0417
     69  CE2        0.4680   16.5040   -8.2620 C.ar   46  TYR46       0.0417
     70  CZ         1.5220   15.6630   -8.0070 C.ar   46  TYR46       0.1957
     71  OH         1.4140   14.8170   -6.9280 O.3    46  TYR46      -0.2866
     72  N          3.7780   10.0750   -6.2040 N.3    85  CYS85      -0.1235
     73  CA         5.1860   10.3640   -6.3390 C.3    85  CYS85       0.1677
     74  C          5.8750    9.3780   -7.2930 C.2    85  CYS85       0.2270
     75  O          6.6680    9.7800   -8.1540 O.2    85  CYS85      -0.2867
     76  CB         5.8110   10.3470   -4.9360 C.3    85  CYS85       0.0956
     77  SG         7.5220   10.8960   -4.8820 S.3    85  CYS85      -0.0801
     78  N          4.6920   10.1600  -10.9930 N.3    88  TYR88      -0.1227
     79  CA         5.0820   11.4220  -11.6570 C.3    88  TYR88       0.1736
     80  C          6.5570   11.5250  -11.9110 C.2    88  TYR88       0.2595
     81  O          6.9800   12.0730  -12.9190 O.2    88  TYR88      -0.2718
     82  CB         4.5740   12.6250  -10.8090 C.3    88  TYR88       0.0548
     83  CG         4.8980   13.9290  -11.5080 C.ar   88  TYR88      -0.0200
     84  CD1        4.1500   14.3680  -12.5700 C.ar   88  TYR88      -0.0009
     85  CD2        5.9940   14.6990  -11.1270 C.ar   88  TYR88      -0.0009
     86  CE1        4.5060   15.4830  -13.2980 C.ar   88  TYR88       0.0417
     87  CE2        6.3610   15.8200  -11.8530 C.ar   88  TYR88       0.0417
     88  CZ         5.6170   16.2070  -12.9440 C.ar   88  TYR88       0.1957
     89  OH         6.0490   17.3000  -13.6500 O.3    88  TYR88      -0.2866
     90  N          7.3820   11.1220  -10.9530 N.am   89  ASN89      -0.1961
     91  CA         8.8060   11.3880  -10.9740 C.3    89  ASN89       0.1804
     92  C          9.5990   10.2250  -11.5320 C.2    89  ASN89       0.2463
     93  O          9.2270    9.0800  -11.3500 O.2    89  ASN89      -0.2730
     94  CB         9.3050   11.6610   -9.5560 C.3    89  ASN89       0.1195
     95  CG         8.6510   12.8550   -8.9610 C.2    89  ASN89       0.2630
     96  OD1        8.9460   14.0010   -9.3220 O.2    89  ASN89      -0.2716
     97  ND2        7.6610   12.6100   -8.1040 N.am   89  ASN89      -0.0877
     98  N         10.7450   10.5120  -12.1620 N.am   90  PRO90      -0.2727
     99  CA        11.6480    9.4190  -12.5140 C.3    90  PRO90       0.1402
    100  C         12.0800    8.6760  -11.2450 C.2    90  PRO90       0.2269
    101  O         12.2220    9.2850  -10.1980 O.2    90  PRO90      -0.2865
    102  CB        12.8480   10.1380  -13.1540 C.3    90  PRO90       0.0296
    103  CG        12.2950   11.4600  -13.5770 C.3    90  PRO90       0.0237
    104  CD        11.2280   11.8110  -12.6090 C.3    90  PRO90       0.0939
    105  N         14.8520   10.0300   -8.8200 N.3    93  HIS93      -0.1241
    106  CA        14.7470   11.3700   -8.2620 C.3    93  HIS93       0.1621
    107  C         14.8740   11.2990   -6.7270 C.2    93  HIS93       0.2264
    108  O         14.3620   10.3770   -6.1040 O.2    93  HIS93      -0.2867
    109  CB        13.3680   11.9350   -8.6800 C.3    93  HIS93       0.0745
    110  CG        13.1950   13.3990   -8.4860 C.ar   93  HIS93       0.0817
    111  ND1       13.2220   14.0390   -7.2600 N.ar   93  HIS93      -0.2268
    112  CD2       12.9770   14.3610   -9.4080 C.ar   93  HIS93       0.1154
    113  CE1       13.0400   15.3330   -7.4420 C.ar   93  HIS93       0.1986
    114  NE2       12.9020   15.5590   -8.7410 N.ar   93  HIS93      -0.2212
    115  N         13.2240   12.8520   -4.5510 N.3    95  VAL95      -0.1245
    116  CA        11.9130   12.8250   -3.8920 C.3    95  VAL95       0.1561
    117  C         11.3450   11.4220   -3.8230 C.2    95  VAL95       0.2260
    118  O         10.6290   11.0710   -2.8900 O.2    95  VAL95      -0.2867
    119  CB        10.9210   13.8410   -4.5250 C.3    95  VAL95       0.0252
    120  CG1       10.4200   13.3670   -5.8680 C.3    95  VAL95       0.0019
    121  CG2        9.7600   14.0820   -3.5950 C.3    95  VAL95       0.0019
@<TRIPOS>BOND
     1    51    50    2
     2    60    61    1
     3    89    88    1
     4    54    55    2
     5    54    53    1
     6   103   102    1
     7   103   104    1
     8    86    88   ar
     9    86    84   ar
    10    50    49    1
    11    50    52   am
    12   102    99    1
    13    88    87   ar
    14    81    80    2
    15    53    52    1
    16    53    56    1
    17    61    62    1
    18    61    64    1
    19    49    48    1
    20    62    63    2
    21   104    98    1
    22    84    83   ar
    23    99    98    1
    24    99   100    1
    25    98    92   am
    26    80    79    1
    27    80    90   am
    28    87    85   ar
    29    79    78    1
    30    79    82    1
    31    56    57    1
    32    92    93    2
    33    92    91    1
    34    83    85   ar
    35    83    82    1
    36    64    65    1
    37    59    57    1
    38    48    42   am
    39   100   101    2
    40    91    90    1
    41    91    94    1
    42    43    42    2
    43    57    58    1
    44    42    41    1
    45    65    66   ar
    46    65    67   ar
    47    66    68   ar
    48    94    95    1
    49   112   114   ar
    50   112   110   ar
    51    67    69   ar
    52    96    95    2
    53    95    97   am
    54    41    40    1
    55    41    44    1
    56    68    70   ar
    57   105   106    1
    58   114   113   ar
    59   109   110    1
    60   109   106    1
    61   110   111   ar
    62    44    45    1
    63   106   107    1
    64    69    70   ar
    65    75    74    2
    66    70    71    1
    67   113   111   ar
    68    74    73    1
    69    45    46    1
    70    45    47    1
    71   107   108    2
    72    38    37    1
    73    73    72    1
    74    73    76    1
    75   120   119    1
    76    36    35    2
    77    37    39    1
    78    37    34    1
    79    35    34    1
    80    76    77    1
    81   115   116    1
    82   119   116    1
    83   119   121    1
    84    34    33    1
    85   116   117    1
    86   117   118    2
    87    30    32   ar
    88    30    28   ar
    89    32    31   ar
    90    19    20    1
    91    19    16    1
    92    28    27   ar
    93    18    17    2
    94    14    13   ar
    95    14    12   ar
    96    20    21    1
    97    13    11   ar
    98    12    10   ar
    99    31    29   ar
   100    16    17    1
   101    16    15    1
   102    17    22   am
   103    27    29   ar
   104    27    26    1
   105    11     8   ar
   106    22    23    1
   107    21    15    1
   108    23    26    1
   109    23    24    1
   110    10     8   ar
   111    10     9   ar
   112    15     3   am
   113     8     6   ar
   114     9     7   ar
   115    24    25    2
   116     4     3    2
   117     3     2    1
   118     6     7   ar
   119     6     5    1
   120     2     5    1
   121     2     1    1
