@<TRIPOS>MOLECULE
tmp/5igaA03.pdb
 85 81 0 0 0
SMALL
GASTEIGER

@<TRIPOS>ATOM
      1  N          5.7090   11.3230   17.3640 N.3    87  ALA87      -0.1231
      2  CA         6.6210   12.2940   16.7740 C.3    87  ALA87       0.1694
      3  C          7.1590   11.7070   15.4670 C.2    87  ALA87       0.2592
      4  O          6.4520   10.9520   14.7890 O.2    87  ALA87      -0.2718
      5  CB         7.7210   12.6420   17.7710 C.3    87  ALA87       0.0304
      6  N          8.3990   12.0190   15.0930 N.am   88  SER88      -0.1952
      7  CA         8.9740   11.3680   13.9270 C.3    88  SER88       0.1924
      8  C          8.9740    9.8610   14.1170 C.2    88  SER88       0.2314
      9  O          8.9010    9.3460   15.2360 O.2    88  SER88      -0.2863
     10  CB        10.4200   11.7990   13.7310 C.3    88  SER88       0.2116
     11  OG        11.2120   11.3370   14.8040 O.3    88  SER88      -0.2180
     12  N          6.1550    7.1850    9.8000 N.3   120  ALA120     -0.1231
     13  CA         5.9620    8.5900   10.1020 C.3   120  ALA120      0.1679
     14  C          4.4590    8.8470   10.2370 C.2   120  ALA120      0.2434
     15  O          3.6500    8.1170    9.6690 O.2   120  ALA120     -0.2733
     16  CB         6.5620    9.4430    8.9810 C.3   120  ALA120      0.0304
     17  N          4.0500    9.8610   10.9930 N.am  121  PRO121     -0.2729
     18  CA         2.6190   10.0250   11.2580 C.3   121  PRO121      0.1401
     19  C          1.7900    9.9920    9.9790 C.2   121  PRO121      0.2269
     20  O          2.1540   10.5840    8.9590 O.2   121  PRO121     -0.2865
     21  CB         2.5500   11.3750   11.9690 C.3   121  PRO121      0.0296
     22  CG         3.8610   11.4690   12.6860 C.3   121  PRO121      0.0237
     23  CD         4.8540   10.8710   11.7040 C.3   121  PRO121      0.0939
     24  N         -1.3180   10.4180    7.2370 N.3   123  LYS123     -0.1245
     25  CA        -2.0390   11.5400    6.6640 C.3   123  LYS123      0.1561
     26  C         -3.4230   11.0650    6.2450 C.2   123  LYS123      0.2260
     27  O         -3.7040    9.8620    6.2080 O.2   123  LYS123     -0.2867
     28  CB        -1.2620   12.1130    5.4660 C.3   123  LYS123      0.0271
     29  CG         0.0470   12.8470    5.8210 C.3   123  LYS123      0.0035
     30  CD         1.2510   11.9540    6.0700 C.3   123  LYS123      0.0206
     31  CE         2.4070   12.7610    6.6280 C.3   123  LYS123      0.1093
     32  NZ         3.5600   11.9120    7.0430 N.3   123  LYS123     -0.1314
     33  N         -2.5170   16.8550    6.2480 N.3   195  THR195     -0.1203
     34  CA        -1.5810   16.5190    7.3050 C.3   195  THR195      0.1994
     35  C         -1.8010   17.4680    8.4840 C.2   195  THR195      0.2618
     36  O         -2.6570   18.3460    8.4420 O.2   195  THR195     -0.2717
     37  CB        -0.1550   16.5790    6.7730 C.3   195  THR195      0.1784
     38  OG1        0.7020   15.9700    7.7510 O.3   195  THR195     -0.2211
     39  CG2        0.2430   18.0170    6.4950 C.3   195  THR195      0.0376
     40  N         -1.0300   17.2730    9.5540 N.am  196  VAL196     -0.1965
     41  CA        -1.1520   18.0930   10.7530 C.3   196  VAL196      0.1727
     42  C          0.1810   18.7710   11.0240 C.2   196  VAL196      0.2617
     43  O          1.2500   18.1570   10.8910 O.2   196  VAL196     -0.2715
     44  CB        -1.6190   17.2970   11.9890 C.3   196  VAL196      0.0290
     45  CG1       -3.0060   16.6780   11.7680 C.3   196  VAL196      0.0023
     46  CG2       -0.6530   16.2460   12.3130 C.3   196  VAL196      0.0023
     47  N          0.0990   20.0350   11.4140 N.am  197  SER197     -0.1936
     48  CA         1.2450   20.8100   11.8470 C.3   197  SER197      0.2055
     49  C          1.5380   20.5470   13.3170 C.2   197  SER197      0.2644
     50  O          0.7450   19.9490   14.0450 O.2   197  SER197     -0.2714
     51  CB         0.9830   22.2970   11.6540 C.3   197  SER197      0.2130
     52  OG        -0.0530   22.7850   12.5080 O.3   197  SER197     -0.2179
     53  N          2.6960   21.0090   13.7540 N.am  198  GLY198     -0.1939
     54  CA         3.0550   20.9120   15.1570 C.3   198  GLY198      0.2014
     55  C          3.9680   19.7410   15.4530 C.2   198  GLY198      0.2640
     56  O          4.5250   19.0810   14.5750 O.2   198  GLY198     -0.2714
     57  N          4.1220   19.4790   16.7500 N.am  199  SER199     -0.1935
     58  CA         5.1420   18.5390   17.1930 C.3   199  SER199      0.2055
     59  C          4.6870   17.0860   17.2390 C.2   199  SER199      0.2643
     60  O          5.5360   16.2010   17.4300 O.2   199  SER199     -0.2714
     61  CB         5.6720   18.9370   18.5720 C.3   199  SER199      0.2130
     62  OG         4.6630   18.7970   19.5460 O.3   199  SER199     -0.2179
     63  N          3.3870   16.8200   17.0680 N.am  200  ARG200     -0.1963
     64  CA         2.8410   15.4670   17.0900 C.3   200  ARG200      0.1729
     65  C          1.8990   15.2970   15.9120 C.2   200  ARG200      0.2616
     66  O          1.0250   16.1360   15.6680 O.2   200  ARG200     -0.2715
     67  CB         2.1100   15.1620   18.4030 C.3   200  ARG200      0.0348
     68  CG         3.0030   15.2010   19.6370 C.3   200  ARG200      0.0492
     69  CD         3.9940   14.0510   19.6490 C.3   200  ARG200      0.2205
     70  NE         4.8110   13.9910   20.8660 N.pl3 200  ARG200     -0.0865
     71  CZ         5.9930   14.5650   21.0150 C.cat 200  ARG200      0.5346
     72  NH1        6.6520   14.4140   22.1490 N.pl3 200  ARG200      0.1354
     73  NH2        6.5290   15.2720   20.0320 N.pl3 200  ARG200      0.1354
     74  N          2.0860   14.2050   15.1760 N.am  201  GLY201     -0.1955
     75  CA         1.2550   13.9090   14.0280 C.3   201  GLY201      0.1869
     76  C         -0.0150   13.1670   14.4080 C.2   201  GLY201      0.2309
     77  O         -0.2610   12.8350   15.5680 O.2   201  GLY201     -0.2863
     78  N         10.9800    7.8050    8.1080 N.3   243  ASP243     -0.1239
     79  CA        10.8530    9.2490    7.9380 C.3   243  ASP243      0.1674
     80  C         11.2740    9.6460    6.5320 C.2   243  ASP243      0.2266
     81  O         10.6020   10.4520    5.8690 O.2   243  ASP243     -0.2867
     82  CB        11.6730    9.9970    8.9910 C.3   243  ASP243      0.1410
     83  CG        11.0510    9.9470   10.3730 C.2   243  ASP243      0.3668
     84  OD1        9.8030   10.0220   10.4770 O.co2 243  ASP243     -0.2456
     85  OD2       11.8210    9.8250   11.3400 O.co2 243  ASP243     -0.2456
@<TRIPOS>BOND
     1    28    29    1
     2    28    25    1
     3    29    30    1
     4    81    80    2
     5    30    31    1
     6    27    26    2
     7    26    25    1
     8    33    34    1
     9    39    37    1
    10    80    79    1
    11    31    32    1
    12    25    24    1
    13    37    34    1
    14    37    38    1
    15    34    35    1
    16    79    78    1
    17    79    82    1
    18    36    35    2
    19    35    40   am
    20    20    19    2
    21    16    13    1
    22    82    83    1
    23    40    41    1
    24    15    14    2
    25    12    13    1
    26    19    18    1
    27    13    14    1
    28    14    17   am
    29    83    84   ar
    30    83    85   ar
    31    41    42    1
    32    41    44    1
    33    43    42    2
    34    17    18    1
    35    17    23    1
    36    42    47   am
    37    18    21    1
    38    47    48    1
    39    51    48    1
    40    51    52    1
    41    23    22    1
    42    45    44    1
    43    48    49    1
    44    21    22    1
    45    44    46    1
    46    49    53   am
    47    49    50    2
    48    10     7    1
    49    10    11    1
    50    53    54    1
    51     7     8    1
    52     7     6    1
    53    75    76    1
    54    75    74    1
    55     8     9    2
    56    76    77    2
    57    56    55    2
    58     4     3    2
    59     6     3   am
    60    54    55    1
    61    74    65   am
    62    55    57   am
    63     3     2    1
    64    66    65    2
    65    65    64    1
    66    57    58    1
    67     2     1    1
    68     2     5    1
    69    63    64    1
    70    63    59   am
    71    64    67    1
    72    58    59    1
    73    58    61    1
    74    59    60    2
    75    67    68    1
    76    61    62    1
    77    68    69    1
    78    69    70    1
    79    73    71    1
    80    70    71    2
    81    71    72    1
