@<TRIPOS>MOLECULE
tmp/5igaA01.pdb
 73 71 0 0 0
SMALL
GASTEIGER

@<TRIPOS>ATOM
      1  N         -3.4140  -10.9580    8.2160 N.3    50  PRO50      -0.2116
      2  CA        -3.4720  -11.1900    9.6720 C.3    50  PRO50       0.1372
      3  C         -2.8220  -12.4970   10.1020 C.2    50  PRO50       0.2244
      4  O         -2.4790  -12.6440   11.2870 O.2    50  PRO50      -0.2868
      5  CB        -4.9770  -11.1970    9.9820 C.3    50  PRO50       0.0268
      6  CG        -5.5850  -10.4730    8.8760 C.3    50  PRO50       0.0207
      7  CD        -4.7660  -10.8020    7.6600 C.3    50  PRO50       0.0892
      8  N         -1.7020   -4.4050   14.5610 N.3    69  GLY69      -0.1210
      9  CA        -3.1460   -4.3160   14.6680 C.3    69  GLY69       0.1956
     10  C         -3.9570   -4.9740   13.5780 C.2    69  GLY69       0.2611
     11  O         -5.1920   -4.9170   13.6310 O.2    69  GLY69      -0.2717
     12  N         -3.3300   -5.6010   12.5840 N.am   70  TYR70      -0.1976
     13  CA        -4.0960   -6.4110   11.6480 C.3    70  TYR70       0.1639
     14  C         -4.7580   -7.5940   12.3440 C.2    70  TYR70       0.2290
     15  O         -5.6970   -8.1650   11.7990 O.2    70  TYR70      -0.2864
     16  CB        -3.2420   -6.9070   10.4700 C.3    70  TYR70       0.0560
     17  CG        -2.9190   -5.8830    9.3990 C.ar   70  TYR70      -0.0198
     18  CD1       -3.3600   -4.5570    9.4690 C.ar   70  TYR70      -0.0009
     19  CD2       -2.1460   -6.2500    8.3140 C.ar   70  TYR70      -0.0009
     20  CE1       -3.0600   -3.6580    8.4540 C.ar   70  TYR70       0.0417
     21  CE2       -1.8330   -5.3720    7.3280 C.ar   70  TYR70       0.0417
     22  CZ        -2.2890   -4.0740    7.3930 C.ar   70  TYR70       0.1957
     23  OH        -1.9310   -3.2240    6.3640 O.3    70  TYR70      -0.2866
     24  N         -6.6800   -7.7700   15.6530 N.3    72  PRO72      -0.2116
     25  CA        -7.1500   -6.8870   16.7300 C.3    72  PRO72       0.1372
     26  C         -7.0250   -7.5310   18.1000 C.2    72  PRO72       0.2244
     27  O         -7.4040   -8.6890   18.3030 O.2    72  PRO72      -0.2868
     28  CB        -8.6180   -6.6270   16.3620 C.3    72  PRO72       0.0268
     29  CG        -8.6690   -6.8410   14.8930 C.3    72  PRO72       0.0207
     30  CD        -7.7030   -7.9520   14.6120 C.3    72  PRO72       0.0892
     31  N         -6.1910    1.1980    9.5020 N.3   143  PRO143     -0.2102
     32  CA        -5.4810   -0.0940    9.4830 C.3   143  PRO143      0.1504
     33  C         -5.7770   -1.0040   10.6560 C.2   143  PRO143      0.2576
     34  O         -5.4880   -2.1980   10.5660 O.2   143  PRO143     -0.2718
     35  CB        -4.0100    0.3230    9.5400 C.3   143  PRO143      0.0282
     36  CG        -4.0480    1.6490   10.3210 C.3   143  PRO143      0.0208
     37  CD        -5.2780    2.3240    9.7770 C.3   143  PRO143      0.0893
     38  N         -6.3010   -0.4720   11.7640 N.am  144  THR144     -0.1939
     39  CA        -6.4910   -1.2450   12.9850 C.3   144  THR144      0.2028
     40  C         -7.7230   -0.7150   13.7070 C.2   144  THR144      0.2642
     41  O         -8.2370    0.3540   13.3820 O.2   144  THR144     -0.2714
     42  CB        -5.3060   -1.0770   13.9310 C.3   144  THR144      0.1808
     43  OG1       -5.4010    0.2220   14.5340 O.3   144  THR144     -0.2208
     44  CG2       -3.9540   -1.2300   13.2060 C.3   144  THR144      0.0379
     45  N         -8.1680   -1.4590   14.7240 N.am  145  ARG145     -0.1977
     46  CA        -9.3300   -1.0510   15.5010 C.3   145  ARG145      0.1597
     47  C         -9.0940    0.2580   16.2420 C.2   145  ARG145      0.2287
     48  O        -10.0150    1.0690   16.3760 O.2   145  ARG145     -0.2864
     49  CB        -9.6980   -2.1580   16.4870 C.3   145  ARG145      0.0334
     50  CG       -11.0180   -1.9190   17.1780 C.3   145  ARG145      0.0492
     51  CD       -11.8140   -3.2120   17.2770 C.3   145  ARG145      0.2205
     52  NE       -11.2470   -4.0630   18.3000 N.pl3 145  ARG145     -0.0865
     53  CZ       -11.4020   -5.3820   18.3620 C.cat 145  ARG145      0.5346
     54  NH1      -12.1050   -6.0360   17.4430 N.pl3 145  ARG145      0.1354
     55  NH2      -10.8350   -6.0490   19.3510 N.pl3 145  ARG145      0.1354
     56  N         -9.4800    2.9370   13.5540 N.3   148  THR148     -0.1218
     57  CA       -10.8680    3.1300   13.1470 C.3   148  THR148      0.1862
     58  C        -11.6750    3.7950   14.2550 C.2   148  THR148      0.2287
     59  O        -12.5930    4.5700   13.9680 O.2   148  THR148     -0.2866
     60  CB       -11.5450    1.8490   12.6360 C.3   148  THR148      0.1770
     61  OG1      -11.6110    0.8480   13.6520 O.3   148  THR148     -0.2211
     62  CG2      -10.8250    1.3080   11.4190 C.3   148  THR148      0.0375
     63  N        -12.3420   -0.8320    8.4180 N.3   159  GLY159     -0.1225
     64  CA       -11.0060   -1.4090    8.5800 C.3   159  GLY159      0.1811
     65  C        -10.6750   -2.4030    7.4770 C.2   159  GLY159      0.2280
     66  O        -11.5480   -3.1470    7.0140 O.2   159  GLY159     -0.2866
     67  N         -6.6780   -4.3620    5.6930 N.3   160  PRO160     -0.2116
     68  CA        -5.2510   -4.2260    5.3880 C.3   160  PRO160      0.1372
     69  C         -5.0230   -3.3930    4.1340 C.2   160  PRO160      0.2244
     70  O         -5.8820   -3.2820    3.2560 O.2   160  PRO160     -0.2868
     71  CB        -4.8060   -5.6770    5.1760 C.3   160  PRO160      0.0268
     72  CG        -5.7980   -6.4970    5.9310 C.3   160  PRO160      0.0207
     73  CD        -7.0880   -5.7770    5.6680 C.3   160  PRO160      0.0892
@<TRIPOS>BOND
     1    70    69    2
     2    69    68    1
     3    71    68    1
     4    71    72    1
     5    68    67    1
     6    73    67    1
     7    73    72    1
     8    23    22    1
     9    66    65    2
    10    21    22   ar
    11    21    19   ar
    12    22    20   ar
    13    65    64    1
    14     7     1    1
    15     7     6    1
    16     1     2    1
    17    19    17   ar
    18    63    64    1
    19    20    18   ar
    20     6     5    1
    21    17    18   ar
    22    17    16    1
    23    32    31    1
    24    32    35    1
    25    32    33    1
    26    31    37    1
    27    35    36    1
    28     2     5    1
    29     2     3    1
    30    37    36    1
    31     3     4    2
    32    16    13    1
    33    34    33    2
    34    33    38   am
    35    62    60    1
    36    13    14    1
    37    13    12    1
    38    38    39    1
    39    15    14    2
    40    12    10   am
    41    60    57    1
    42    60    61    1
    43    39    40    1
    44    39    42    1
    45    57    56    1
    46    57    58    1
    47    44    42    1
    48    41    40    2
    49    10    11    2
    50    10     9    1
    51    40    45   am
    52    42    43    1
    53    59    58    2
    54     8     9    1
    55    30    29    1
    56    30    24    1
    57    45    46    1
    58    29    28    1
    59    46    47    1
    60    46    49    1
    61    24    25    1
    62    47    48    2
    63    28    25    1
    64    49    50    1
    65    25    26    1
    66    50    51    1
    67    51    52    1
    68    54    53    1
    69    26    27    2
    70    52    53    2
    71    53    55    1
