@<TRIPOS>MOLECULE
tmp/5igaA04.pdb
 167 163 0 0 0
SMALL
GASTEIGER

@<TRIPOS>ATOM
      1  N          3.1850   -9.1810    3.3850 N.3    10  PHE10      -0.1241
      2  CA         2.0280   -8.8780    2.5370 C.3    10  PHE10       0.1605
      3  C          2.2430   -7.8380    1.4310 C.2    10  PHE10       0.2264
      4  O          1.6120   -7.9830    0.3760 O.2    10  PHE10      -0.2867
      5  CB         0.7910   -8.5300    3.3810 C.3    10  PHE10       0.0534
      6  CG         0.9300   -7.2570    4.1590 C.ar   10  PHE10      -0.0203
      7  CD1        0.6760   -6.0360    3.5600 C.ar   10  PHE10      -0.0042
      8  CD2        1.3450   -7.2750    5.4810 C.ar   10  PHE10      -0.0042
      9  CE1        0.8440   -4.8540    4.2590 C.ar   10  PHE10      -0.0003
     10  CE2        1.4960   -6.0990    6.1880 C.ar   10  PHE10      -0.0003
     11  CZ         1.2560   -4.8840    5.5690 C.ar   10  PHE10      -0.0000
     12  N          9.0370   -1.5910    2.6820 N.3    16  SER16      -0.1217
     13  CA         9.3380   -2.5790    3.7110 C.3    16  SER16       0.1889
     14  C         10.1090   -3.7680    3.1510 C.2    16  SER16       0.2288
     15  O         10.9320   -4.3550    3.8580 O.2    16  SER16      -0.2866
     16  CB         8.0660   -3.0470    4.4060 C.3    16  SER16       0.2089
     17  OG         7.1370   -3.6100    3.4910 O.3    16  SER16      -0.2183
     18  N          7.3600   -9.4630    8.4760 N.3    65  TRP65      -0.1241
     19  CA         7.1120   -8.0530    8.7390 C.3    65  TRP65       0.1605
     20  C          5.6170   -7.8370    8.5910 C.2    65  TRP65       0.2264
     21  O          5.0280   -8.2610    7.5860 O.2    65  TRP65      -0.2867
     22  CB         7.8850   -7.1640    7.7580 C.3    65  TRP65       0.0550
     23  CG         7.7550   -5.6910    8.0010 C.ar   65  TRP65       0.0003
     24  CD1        8.5700   -4.9110    8.7680 C.ar   65  TRP65       0.0946
     25  CD2        6.7370   -4.8170    7.4720 C.ar   65  TRP65       0.0152
     26  NE1        8.1260   -3.6030    8.7450 N.ar   65  TRP65      -0.2442
     27  CE2        7.0030   -3.5230    7.9660 C.ar   65  TRP65       0.0810
     28  CE3        5.6220   -5.0060    6.6440 C.ar   65  TRP65       0.0012
     29  CZ2        6.2180   -2.4190    7.6450 C.ar   65  TRP65       0.0191
     30  CZ3        4.8400   -3.8950    6.3260 C.ar   65  TRP65       0.0001
     31  CH2        5.1410   -2.6230    6.8290 C.ar   65  TRP65       0.0015
     32  N          1.8300   -5.5560   10.3530 N.3    67  VAL67      -0.1245
     33  CA         1.1990   -4.5130   11.1650 C.3    67  VAL67       0.1561
     34  C          0.5510   -5.2130   12.3500 C.2    67  VAL67       0.2260
     35  O         -0.3010   -6.0910   12.1600 O.2    67  VAL67      -0.2867
     36  CB         0.1540   -3.7320   10.3400 C.3    67  VAL67       0.0252
     37  CG1       -0.6740   -2.7970   11.2190 C.3    67  VAL67       0.0019
     38  CG2        0.8280   -2.9680    9.1920 C.3    67  VAL67       0.0019
     39  N         -3.3300   -5.6010   12.5840 N.3    70  TYR70      -0.1241
     40  CA        -4.0960   -6.4110   11.6480 C.3    70  TYR70       0.1605
     41  C         -4.7580   -7.5940   12.3440 C.2    70  TYR70       0.2264
     42  O         -5.6970   -8.1650   11.7990 O.2    70  TYR70      -0.2867
     43  CB        -3.2420   -6.9070   10.4700 C.3    70  TYR70       0.0534
     44  CG        -2.9190   -5.8830    9.3990 C.ar   70  TYR70      -0.0201
     45  CD1       -3.3600   -4.5570    9.4690 C.ar   70  TYR70      -0.0009
     46  CD2       -2.1460   -6.2500    8.3140 C.ar   70  TYR70      -0.0009
     47  CE1       -3.0600   -3.6580    8.4540 C.ar   70  TYR70       0.0417
     48  CE2       -1.8330   -5.3720    7.3280 C.ar   70  TYR70       0.0417
     49  CZ        -2.2890   -4.0740    7.3930 C.ar   70  TYR70       0.1957
     50  OH        -1.9310   -3.2240    6.3640 O.3    70  TYR70      -0.2866
     51  N          5.6220    3.8880   11.2630 N.3   119  HIS119     -0.1241
     52  CA         5.7590    4.8200   10.1650 C.3   119  HIS119      0.1621
     53  C          5.7090    6.2680   10.6520 C.2   119  HIS119      0.2264
     54  O          5.3020    6.5650   11.7710 O.2   119  HIS119     -0.2867
     55  CB         4.7090    4.5180    9.0750 C.3   119  HIS119      0.0745
     56  CG         3.2660    4.5220    9.5230 C.ar  119  HIS119      0.0817
     57  ND1        2.5710    5.6850    9.7700 N.ar  119  HIS119     -0.2268
     58  CD2        2.3610    3.5170    9.6460 C.ar  119  HIS119      0.1154
     59  CE1        1.3150    5.3940   10.0730 C.ar  119  HIS119      0.1986
     60  NE2        1.1520    4.0840    9.9900 N.ar  119  HIS119     -0.2212
     61  N        -11.1110    4.4120    5.6150 N.3   141  ARG141     -0.1245
     62  CA       -10.3770    3.2400    6.0480 C.3   141  ARG141      0.1563
     63  C         -9.2840    3.5840    7.0550 C.2   141  ARG141      0.2260
     64  O         -8.5370    4.5550    6.8940 O.2   141  ARG141     -0.2867
     65  CB        -9.7570    2.5610    4.8310 C.3   141  ARG141      0.0307
     66  CG        -8.8210    1.4000    5.1450 C.3   141  ARG141      0.0489
     67  CD        -7.3640    1.8070    5.3460 C.3   141  ARG141      0.2205
     68  NE        -6.5340    0.6460    5.6340 N.pl3 141  ARG141     -0.0865
     69  CZ        -5.2530    0.6960    5.9840 C.cat 141  ARG141      0.5346
     70  NH1       -4.6040    1.8510    6.1080 N.pl3 141  ARG141      0.1354
     71  NH2       -4.6190   -0.4340    6.2090 N.pl3 141  ARG141      0.1354
     72  N         -6.1910    1.1980    9.5020 N.3   143  PRO143     -0.2116
     73  CA        -5.4810   -0.0940    9.4830 C.3   143  PRO143      0.1372
     74  C         -5.7770   -1.0040   10.6560 C.2   143  PRO143      0.2244
     75  O         -5.4880   -2.1980   10.5660 O.2   143  PRO143     -0.2868
     76  CB        -4.0100    0.3230    9.5400 C.3   143  PRO143      0.0268
     77  CG        -4.0480    1.6490   10.3210 C.3   143  PRO143      0.0207
     78  CD        -5.2780    2.3240    9.7770 C.3   143  PRO143      0.0892
     79  N         -3.8320   -2.8100    4.0350 N.3   161  VAL161     -0.1245
     80  CA        -3.5870   -1.8360    2.9660 C.3   161  VAL161      0.1561
     81  C         -3.7060   -2.4090    1.5520 C.2   161  VAL161      0.2260
     82  O         -4.1510   -1.6700    0.6620 O.2   161  VAL161     -0.2867
     83  CB        -2.2810   -1.0560    3.1900 C.3   161  VAL161      0.0252
     84  CG1       -1.0550   -1.9400    2.9970 C.3   161  VAL161      0.0019
     85  CG2       -2.2290    0.1970    2.2800 C.3   161  VAL161      0.0019
     86  N         -6.6780    6.6930    5.9500 N.3   176  VAL176     -0.1231
     87  CA        -5.4290    7.1630    6.5370 C.3   176  VAL176      0.1692
     88  C         -4.3230    6.1570    6.2260 C.2   176  VAL176      0.2592
     89  O         -4.5050    4.9350    6.3740 O.2   176  VAL176     -0.2718
     90  CB        -5.5420    7.4400    8.0470 C.3   176  VAL176      0.0266
     91  CG1       -6.4410    8.6370    8.2930 C.3   176  VAL176      0.0020
     92  CG2       -6.0140    6.2410    8.8460 C.3   176  VAL176      0.0020
     93  N         -3.1870    6.6820    5.7700 N.am  177  VAL177     -0.1966
     94  CA        -1.9250    5.9660    5.5790 C.3   177  VAL177      0.1712
     95  C         -0.8150    7.0120    5.5890 C.2   177  VAL177      0.2458
     96  O         -1.0720    8.1890    5.2860 O.2   177  VAL177     -0.2730
     97  CB        -1.8410    5.1940    4.2470 C.3   177  VAL177      0.0289
     98  CG1       -2.4910    3.8160    4.3340 C.3   177  VAL177      0.0023
     99  CG2       -2.3920    5.9810    3.0640 C.3   177  VAL177      0.0023
    100  N          0.4190    6.6310    5.9030 N.am  178  PRO178     -0.2727
    101  CA         1.5580    7.4980    5.6050 C.3   178  PRO178      0.1402
    102  C          1.7250    7.5990    4.0950 C.2   178  PRO178      0.2269
    103  O          1.1820    6.7970    3.3290 O.2   178  PRO178     -0.2865
    104  CB         2.7320    6.7670    6.2650 C.3   178  PRO178      0.0296
    105  CG         2.3650    5.3240    6.1270 C.3   178  PRO178      0.0237
    106  CD         0.8640    5.2860    6.3360 C.3   178  PRO178      0.0939
    107  N          4.3440    6.9000    2.4400 N.3   180  GLU180     -0.1231
    108  CA         5.3320    5.9780    1.8860 C.3   180  GLU180      0.1699
    109  C          4.7230    4.7300    1.2670 C.2   180  GLU180      0.2592
    110  O          5.3050    4.1640    0.3340 O.2   180  GLU180     -0.2718
    111  CB         6.3540    5.5890    2.9610 C.3   180  GLU180      0.0402
    112  CG         5.8350    4.8070    4.1860 C.3   180  GLU180      0.1161
    113  CD         5.7640    3.3020    4.0070 C.2   180  GLU180      0.3649
    114  OE1        5.1280    2.6770    4.8770 O.co2 180  GLU180     -0.2457
    115  OE2        6.3260    2.7390    3.0410 O.co2 180  GLU180     -0.2457
    116  N          3.5820    4.2600    1.7950 N.am  181  ILE181     -0.1980
    117  CA         2.9690    3.0180    1.3190 C.3   181  ILE181      0.1595
    118  C          2.1450    3.2320    0.0650 C.2   181  ILE181      0.2287
    119  O          1.7680    2.2640   -0.6020 O.2   181  ILE181     -0.2864
    120  CB         2.1390    2.4110    2.4760 C.3   181  ILE181      0.0276
    121  CG1        1.7190    0.9640    2.1870 C.3   181  ILE181      0.0022
    122  CG2        0.9110    3.2560    2.7770 C.3   181  ILE181      0.0022
    123  CD1        2.8680    0.0040    1.8570 C.3   181  ILE181      0.0001
    124  N         -1.4180   10.1030   13.8800 N.3   203  TYR203     -0.1241
    125  CA        -1.3750    8.7660   14.4640 C.3   203  TYR203      0.1605
    126  C         -0.2290    8.0250   13.7890 C.2   203  TYR203      0.2264
    127  O          0.2870    8.4450   12.7490 O.2   203  TYR203     -0.2867
    128  CB        -2.7010    7.9870   14.2310 C.3   203  TYR203      0.0534
    129  CG        -2.7130    7.4530   12.8210 C.ar  203  TYR203     -0.0201
    130  CD1       -2.9840    8.2830   11.7580 C.ar  203  TYR203     -0.0009
    131  CD2       -2.3420    6.1350   12.5420 C.ar  203  TYR203     -0.0009
    132  CE1       -2.9080    7.8320   10.4620 C.ar  203  TYR203      0.0417
    133  CE2       -2.2820    5.6670   11.2460 C.ar  203  TYR203      0.0417
    134  CZ        -2.5520    6.5360   10.1940 C.ar  203  TYR203      0.1957
    135  OH        -2.4670    6.1380    8.8690 O.3   203  TYR203     -0.2866
    136  N          0.9580    3.4940   13.4490 N.3   205  THR205     -0.1218
    137  CA         0.5920    2.1460   13.8480 C.3   205  THR205      0.1862
    138  C          1.8520    1.2900   13.9220 C.2   205  THR205      0.2287
    139  O          2.7220    1.3790   13.0300 O.2   205  THR205     -0.2866
    140  CB        -0.5060    1.5350   12.9480 C.3   205  THR205      0.1770
    141  OG1       -1.1350    0.4370   13.6230 O.3   205  THR205     -0.2211
    142  CG2        0.0380    1.0760   11.6300 C.3   205  THR205      0.0375
    143  N          4.5820   -1.5200   13.5660 N.3   207  PHE207     -0.1241
    144  CA         5.0160   -2.6320   12.7460 C.3   207  PHE207      0.1605
    145  C          5.7830   -3.6270   13.6190 C.2   207  PHE207      0.2264
    146  O          6.5100   -3.2480   14.5460 O.2   207  PHE207     -0.2867
    147  CB         5.9940   -2.1480   11.6760 C.3   207  PHE207      0.0534
    148  CG         5.4610   -1.1190   10.7140 C.ar  207  PHE207     -0.0203
    149  CD1        4.2360   -1.2660   10.0930 C.ar  207  PHE207     -0.0042
    150  CD2        6.2410   -0.0180   10.3860 C.ar  207  PHE207     -0.0042
    151  CE1        3.7850   -0.3350    9.1700 C.ar  207  PHE207     -0.0003
    152  CE2        5.8050    0.9190    9.4440 C.ar  207  PHE207     -0.0003
    153  CZ         4.5690    0.7610    8.8410 C.ar  207  PHE207     -0.0000
    154  N         11.9230    5.1910    7.6360 N.3   242  TRP242     -0.1241
    155  CA        10.5140    5.4930    7.3940 C.3   242  TRP242      0.1605
    156  C         10.2460    6.9950    7.3430 C.2   242  TRP242      0.2264
    157  O          9.3890    7.4370    6.5760 O.2   242  TRP242     -0.2867
    158  CB         9.6020    4.7680    8.3890 C.3   242  TRP242      0.0550
    159  CG         8.9300    3.5860    7.7480 C.ar  242  TRP242      0.0003
    160  CD1        7.6830    3.5630    7.2020 C.ar  242  TRP242      0.0946
    161  CD2        9.4850    2.2760    7.5310 C.ar  242  TRP242      0.0152
    162  NE1        7.4230    2.3300    6.6640 N.ar  242  TRP242     -0.2442
    163  CE2        8.5060    1.5150    6.8540 C.ar  242  TRP242      0.0810
    164  CE3       10.7140    1.6780    7.8390 C.ar  242  TRP242      0.0012
    165  CZ2        8.7180    0.1810    6.4740 C.ar  242  TRP242      0.0191
    166  CZ3       10.9150    0.3500    7.4670 C.ar  242  TRP242      0.0001
    167  CH2        9.9160   -0.3810    6.8010 C.ar  242  TRP242      0.0015
@<TRIPOS>BOND
     1   119   118    2
     2   118   117    1
     3   110   109    2
     4     4     3    2
     5    82    81    2
     6   109   116   am
     7   109   108    1
     8   117   116    1
     9   117   120    1
    10     3     2    1
    11    81    80    1
    12   123   121    1
    13   108   107    1
    14   108   111    1
    15   121   120    1
    16    85    83    1
    17   120   122    1
    18     2     5    1
    19     2     1    1
    20    12    13    1
    21   111   112    1
    22    80    83    1
    23    80    79    1
    24    84    83    1
    25   115   113   ar
    26    99    97    1
    27    14    13    1
    28    14    15    2
    29   103   102    2
    30     5     6    1
    31    17    16    1
    32     7     6   ar
    33     7     9   ar
    34    13    16    1
    35   113   112    1
    36   113   114   ar
    37   102   101    1
    38     6     8   ar
    39    97    98    1
    40    97    94    1
    41     9    11   ar
    42    65    66    1
    43    65    62    1
    44    66    67    1
    45    96    95    2
    46    67    68    1
    47     8    10   ar
    48    11    10   ar
    49    94    95    1
    50    94    93    1
    51    95   100   am
    52   101   100    1
    53   101   104    1
    54    61    62    1
    55    68    69    2
    56    93    88   am
    57   100   106    1
    58    86    87    1
    59    69    70    1
    60    69    71    1
    61    62    63    1
    62   105   104    1
    63   105   106    1
    64    88    89    2
    65    88    87    1
    66    30    28   ar
    67    30    31   ar
    68    50    49    1
    69   165   167   ar
    70   165   163   ar
    71    87    90    1
    72   157   156    2
    73    28    25   ar
    74   162   163   ar
    75   162   160   ar
    76   167   166   ar
    77    31    29   ar
    78   163   161   ar
    79    64    63    2
    80   160   159   ar
    81    48    49   ar
    82    48    46   ar
    83   156   155    1
    84    49    47   ar
    85   155   154    1
    86   155   158    1
    87   166   164   ar
    88    25    27   ar
    89    25    23   ar
    90   161   159   ar
    91   161   164   ar
    92    21    20    2
    93    29    27   ar
    94   159   158    1
    95    22    23    1
    96    22    19    1
    97    27    26   ar
    98    23    24   ar
    99    90    91    1
   100    90    92    1
   101    46    44   ar
   102    47    45   ar
   103    18    19    1
   104    20    19    1
   105    26    24   ar
   106   153   151   ar
   107   153   152   ar
   108   135   134    1
   109    55    56    1
   110    55    52    1
   111   151   149   ar
   112    38    36    1
   113    44    45   ar
   114    44    43    1
   115   152   150   ar
   116    73    72    1
   117    73    76    1
   118    73    74    1
   119    72    78    1
   120    56    58   ar
   121    56    57   ar
   122    76    77    1
   123    58    60   ar
   124    57    59   ar
   125    78    77    1
   126    60    59   ar
   127   149   148   ar
   128    52    53    1
   129    52    51    1
   130   134   132   ar
   131   134   133   ar
   132    36    33    1
   133    36    37    1
   134    32    33    1
   135   150   148   ar
   136   132   130   ar
   137    43    40    1
   138    75    74    2
   139    53    54    2
   140   148   147    1
   141    33    34    1
   142   133   131   ar
   143   142   140    1
   144    40    41    1
   145    40    39    1
   146   147   144    1
   147   130   129   ar
   148    42    41    2
   149    35    34    2
   150   131   129   ar
   151   144   143    1
   152   144   145    1
   153   127   126    2
   154   129   128    1
   155   140   141    1
   156   140   137    1
   157   139   138    2
   158   136   137    1
   159   145   146    2
   160   126   125    1
   161   137   138    1
   162   124   125    1
   163   128   125    1
