@<TRIPOS>MOLECULE
tmp/5igkA00.pdb
 167 163 0 0 0
SMALL
GASTEIGER

@<TRIPOS>ATOM
      1  N         24.2120   21.3670    1.2910 N.3    40  TRP40      -0.1228
      2  CA        24.0270   20.0370    1.8530 C.3    40  TRP40       0.1722
      3  C         25.3170   19.1720    2.0590 C.2    40  TRP40       0.2437
      4  O         25.4130   18.4560    3.0510 O.2    40  TRP40      -0.2733
      5  CB        22.9020   19.2900    1.0760 C.3    40  TRP40       0.0563
      6  CG        23.2530   19.0050   -0.3390 C.ar   40  TRP40       0.0003
      7  CD1       22.9610   19.7490   -1.4220 C.ar   40  TRP40       0.0946
      8  CD2       23.9530   17.8500   -0.8220 C.ar   40  TRP40       0.0152
      9  NE1       23.4660   19.1630   -2.5570 N.ar   40  TRP40      -0.2442
     10  CE2       24.0960   17.9980   -2.2010 C.ar   40  TRP40       0.0810
     11  CE3       24.5300   16.7330   -0.1930 C.ar   40  TRP40       0.0012
     12  CZ2       24.7730   17.0350   -2.9910 C.ar   40  TRP40       0.0191
     13  CZ3       25.2190   15.8270   -0.9570 C.ar   40  TRP40       0.0001
     14  CH2       25.3190   15.9720   -2.3270 C.ar   40  TRP40       0.0015
     15  N         26.3510   19.2710    1.1790 N.am   41  PRO41      -0.2718
     16  CA        27.5060   18.4010    1.4700 C.3    41  PRO41       0.1535
     17  C         28.3370   18.9120    2.6280 C.2    41  PRO41       0.2598
     18  O         29.2420   18.1790    3.1010 O.2    41  PRO41      -0.2715
     19  CB        28.3800   18.4720    0.2060 C.3    41  PRO41       0.0310
     20  CG        27.5420   19.0990   -0.8200 C.3    41  PRO41       0.0237
     21  CD        26.5140   19.9490   -0.1200 C.3    41  PRO41       0.0939
     22  N         28.0790   20.1660    2.9990 N.am   42  PHE42      -0.1974
     23  CA        28.7940   20.8220    4.0840 C.3    42  PHE42       0.1639
     24  C         28.0530   20.7990    5.4310 C.2    42  PHE42       0.2290
     25  O         28.5250   21.3700    6.4150 O.2    42  PHE42      -0.2864
     26  CB        29.1540   22.2740    3.6750 C.3    42  PHE42       0.0560
     27  CG        29.9130   22.3230    2.4070 C.ar   42  PHE42      -0.0200
     28  CD1       31.2900   22.1570    2.4110 C.ar   42  PHE42      -0.0042
     29  CD2       29.2940   22.4720    1.2100 C.ar   42  PHE42      -0.0042
     30  CE1       32.0260   22.1460    1.2420 C.ar   42  PHE42      -0.0003
     31  CE2       30.0140   22.4450    0.0480 C.ar   42  PHE42      -0.0003
     32  CZ        31.3740   22.2990    0.0430 C.ar   42  PHE42      -0.0000
     33  N         27.3310   18.3160    7.5020 N.3    44  GLN44      -0.1231
     34  CA        27.8610   17.3490    8.4910 C.3    44  GLN44       0.1683
     35  C         29.2550   16.9790    8.0660 C.2    44  GLN44       0.2434
     36  O         29.6910   17.3350    6.9560 O.2    44  GLN44      -0.2733
     37  CB        26.9480   16.0840    8.6010 C.3    44  GLN44       0.0380
     38  CG        26.8670   15.3460    7.2810 C.3    44  GLN44       0.0905
     39  CD        26.0860   14.0290    7.2910 C.2    44  GLN44       0.2608
     40  OE1       26.4310   13.1080    8.0030 O.2    44  GLN44      -0.2717
     41  NE2       25.1160   13.9150    6.4290 N.am   44  GLN44      -0.0878
     42  N         30.0230   16.3510    8.9760 N.am   45  PRO45      -0.2718
     43  CA        31.3990   15.9750    8.6010 C.3    45  PRO45       0.1535
     44  C         31.4730   15.0860    7.4020 C.2    45  PRO45       0.2598
     45  O         30.5550   14.2610    7.1560 O.2    45  PRO45      -0.2715
     46  CB        31.9090   15.2490    9.8430 C.3    45  PRO45       0.0310
     47  CG        31.1540   15.9100   10.9860 C.3    45  PRO45       0.0237
     48  CD        29.7870   16.2150   10.4290 C.3    45  PRO45       0.0939
     49  N         32.5420   15.2390    6.6280 N.am   46  VAL46      -0.1964
     50  CA        32.7480   14.3290    5.5320 C.3    46  VAL46       0.1727
     51  C         32.7060   12.8770    6.0230 C.2    46  VAL46       0.2616
     52  O         33.4140   12.5240    6.9270 O.2    46  VAL46      -0.2715
     53  CB        34.0400   14.6600    4.7700 C.3    46  VAL46       0.0290
     54  CG1       34.4420   13.5340    3.8440 C.3    46  VAL46       0.0023
     55  CG2       33.8460   15.9920    4.0190 C.3    46  VAL46       0.0023
     56  N         31.9120   12.0590    5.3810 N.am   47  ASP47      -0.1971
     57  CA        31.7290   10.6700    5.7550 C.3    47  ASP47       0.1709
     58  C         32.5050    9.8280    4.7750 C.2    47  ASP47       0.2293
     59  O         32.0320    9.4470    3.7100 O.2    47  ASP47      -0.2864
     60  CB        30.2510   10.2880    5.7690 C.3    47  ASP47       0.1436
     61  CG        30.0050    8.9060    6.3400 C.2    47  ASP47       0.3671
     62  OD1       30.9420    8.0540    6.3040 O.co2  47  ASP47      -0.2456
     63  OD2       28.8350    8.6640    6.8530 O.co2  47  ASP47      -0.2456
     64  N         30.9110    6.3540    3.8550 N.3    50  LYS50      -0.1231
     65  CA        29.7670    6.4900    2.9420 C.3    50  LYS50       0.1693
     66  C         30.1630    6.8000    1.5070 C.2    50  LYS50       0.2591
     67  O         29.5890    6.2530    0.5480 O.2    50  LYS50      -0.2718
     68  CB        28.8730    7.6140    3.5040 C.3    50  LYS50       0.0285
     69  CG        27.6530    7.9600    2.6960 C.3    50  LYS50       0.0035
     70  CD        26.6620    8.7080    3.5920 C.3    50  LYS50       0.0206
     71  CE        26.8310   10.1830    3.5320 C.3    50  LYS50       0.1093
     72  NZ        25.7760   10.8640    4.3390 N.3    50  LYS50      -0.1314
     73  N         31.1770    7.6490    1.3470 N.am   51  LEU51      -0.1980
     74  CA        31.6530    8.1030    0.0440 C.3    51  LEU51       0.1596
     75  C         32.7290    7.2720   -0.5340 C.2    51  LEU51       0.2287
     76  O         33.1240    7.5420   -1.6760 O.2    51  LEU51      -0.2864
     77  CB        32.1330    9.5350    0.1860 C.3    51  LEU51       0.0297
     78  CG        31.1420   10.5740    0.6600 C.3    51  LEU51       0.0022
     79  CD1       31.9000   11.8690    0.8920 C.3    51  LEU51       0.0001
     80  CD2       29.9850   10.8030   -0.3130 C.3    51  LEU51       0.0001
     81  N         35.9390    7.1470    0.3920 N.3    53  LEU53      -0.1245
     82  CA        37.0830    8.0380    0.2220 C.3    53  LEU53       0.1561
     83  C         38.0560    7.7260    1.3410 C.2    53  LEU53       0.2260
     84  O         38.2600    8.5130    2.2610 O.2    53  LEU53      -0.2867
     85  CB        36.7080    9.5220    0.2380 C.3    53  LEU53       0.0270
     86  CG        35.7200    9.9100   -0.8620 C.3    53  LEU53       0.0019
     87  CD1       35.3740   11.3500   -0.6810 C.3    53  LEU53       0.0001
     88  CD2       36.3080    9.6520   -2.2410 C.3    53  LEU53       0.0001
     89  N         40.5490   10.4740    2.4760 N.3    56  TYR56      -0.1241
     90  CA        40.1080   11.8270    2.8420 C.3    56  TYR56       0.1605
     91  C         40.8670   12.3100    4.0860 C.2    56  TYR56       0.2264
     92  O         41.4260   13.4030    4.1270 O.2    56  TYR56      -0.2867
     93  CB        38.5620   11.9630    3.0220 C.3    56  TYR56       0.0534
     94  CG        38.1720   13.4110    3.2680 C.ar   56  TYR56      -0.0201
     95  CD1       38.0560   13.8780    4.5710 C.ar   56  TYR56      -0.0009
     96  CD2       38.0220   14.3520    2.2320 C.ar   56  TYR56      -0.0009
     97  CE1       37.7760   15.2110    4.8730 C.ar   56  TYR56       0.0417
     98  CE2       37.7210   15.6810    2.5290 C.ar   56  TYR56       0.0417
     99  CZ        37.5790   16.1080    3.8430 C.ar   56  TYR56       0.1957
    100  OH        37.3390   17.4240    4.1780 O.3    56  TYR56      -0.2866
    101  N         36.5570   20.2690    9.1230 N.3    64  MET64      -0.1245
    102  CA        35.5390   21.1900    9.6260 C.3    64  MET64       0.1570
    103  C         34.3580   21.1660    8.6480 C.2    64  MET64       0.2261
    104  O         34.5200   20.9560    7.4470 O.2    64  MET64      -0.2867
    105  CB        36.0890   22.6310    9.8030 C.3    64  MET64       0.0387
    106  CG        35.1660   23.5990   10.5810 C.3    64  MET64       0.0595
    107  SD        34.4750   22.9990   12.1150 S.3    64  MET64      -0.1393
    108  CE        35.9340   22.6220   13.0340 C.3    64  MET64       0.0692
    109  N         36.9990   24.9640    6.6780 N.3    91  MET91      -0.1245
    110  CA        36.0610   24.2010    5.8550 C.3    91  MET91       0.1570
    111  C         36.2890   24.4280    4.3570 C.2    91  MET91       0.2261
    112  O         36.4090   23.4480    3.5720 O.2    91  MET91      -0.2867
    113  CB        34.6330   24.5720    6.2270 C.3    91  MET91       0.0387
    114  CG        33.5760   23.8040    5.4590 C.3    91  MET91       0.0595
    115  SD        31.8910   24.2320    5.9230 S.3    91  MET91      -0.1393
    116  CE        31.7110   25.7360    5.0100 C.3    91  MET91       0.0692
    117  N         38.3080   21.8200    1.3980 N.3    95  CYS95      -0.1235
    118  CA        37.6140   21.4380    0.1550 C.3    95  CYS95       0.1677
    119  C         38.5500   21.6620   -1.0410 C.2    95  CYS95       0.2270
    120  O         38.7160   20.7950   -1.9360 O.2    95  CYS95      -0.2867
    121  CB        36.2920   22.2020    0.0300 C.3    95  CYS95       0.0956
    122  SG        35.2820   21.6130   -1.3470 S.3    95  CYS95      -0.0801
    123  N         41.5690   19.0180   -0.9710 N.3    98  TYR98      -0.1227
    124  CA        41.3040   17.6280   -1.2530 C.3    98  TYR98       0.1736
    125  C         40.8810   17.4390   -2.7170 C.2    98  TYR98       0.2595
    126  O         41.2620   16.4390   -3.3270 O.2    98  TYR98      -0.2718
    127  CB        40.2450   17.0370   -0.2810 C.3    98  TYR98       0.0548
    128  CG        39.9310   15.6100   -0.6090 C.ar   98  TYR98      -0.0200
    129  CD1       40.7870   14.6140   -0.2380 C.ar   98  TYR98      -0.0009
    130  CD2       38.7850   15.2720   -1.3120 C.ar   98  TYR98      -0.0009
    131  CE1       40.5320   13.2990   -0.5760 C.ar   98  TYR98       0.0417
    132  CE2       38.5150   13.9620   -1.6610 C.ar   98  TYR98       0.0417
    133  CZ        39.4000   12.9670   -1.2540 C.ar   98  TYR98       0.1957
    134  OH        39.2330   11.6660   -1.6290 O.3    98  TYR98      -0.2866
    135  N         40.1450   18.4040   -3.2710 N.am   99  ASN99      -0.1960
    136  CA        39.5200   18.2410   -4.5740 C.3    99  ASN99       0.1819
    137  C         40.2950   18.9830   -5.6530 C.2    99  ASN99       0.2621
    138  O         41.3210   19.5450   -5.3580 O.2    99  ASN99      -0.2715
    139  CB        38.0630   18.6780   -4.5070 C.3    99  ASN99       0.1195
    140  CG        37.2510   17.8390   -3.4720 C.2    99  ASN99       0.2630
    141  OD1       36.8370   16.7200   -3.7400 O.2    99  ASN99      -0.2716
    142  ND2       37.0640   18.3980   -2.2820 N.am   99  ASN99      -0.0877
    143  N         39.7800   18.9750   -6.8800 N.am  100  LYS100     -0.1977
    144  CA        40.4230   19.7020   -8.0000 C.3   100  LYS100      0.1596
    145  C         39.6240   20.8950   -8.5180 C.2   100  LYS100      0.2287
    146  O         38.4000   20.9360   -8.3940 O.2   100  LYS100     -0.2864
    147  CB        40.6620   18.7400   -9.1340 C.3   100  LYS100      0.0298
    148  CG        41.4110   17.4870   -8.7100 C.3   100  LYS100      0.0038
    149  CD        41.6190   16.5210   -9.8640 C.3   100  LYS100      0.0206
    150  CE        40.4220   15.6130  -10.0700 C.3   100  LYS100      0.1093
    151  NZ        40.7210   14.5180  -11.0440 N.3   100  LYS100     -0.1314
    152  N         35.8140   20.9080   -9.9750 N.3   103  ASP103     -0.1239
    153  CA        34.9830   19.8330   -9.4940 C.3   103  ASP103      0.1674
    154  C         33.6970   20.4400   -8.9660 C.2   103  ASP103      0.2266
    155  O         33.6860   21.5260   -8.3960 O.2   103  ASP103     -0.2867
    156  CB        35.6700   19.0950   -8.3460 C.3   103  ASP103      0.1410
    157  CG        36.8120   18.1680   -8.7750 C.2   103  ASP103      0.3668
    158  OD1       37.0550   17.9160   -9.9840 O.co2 103  ASP103     -0.2456
    159  OD2       37.4850   17.6570   -7.8550 O.co2 103  ASP103     -0.2456
    160  N         32.1450   19.8690   -6.2230 N.3   105  ILE105     -0.1245
    161  CA        32.1700   20.2460   -4.7950 C.3   105  ILE105      0.1561
    162  C         32.9080   21.5690   -4.5680 C.2   105  ILE105      0.2260
    163  O         32.5480   22.3430   -3.6820 O.2   105  ILE105     -0.2867
    164  CB        32.7530   19.1140   -3.9250 C.3   105  ILE105      0.0252
    165  CG1       32.5440   19.3620   -2.4220 C.3   105  ILE105      0.0019
    166  CG2       34.2230   18.8600   -4.2820 C.3   105  ILE105      0.0019
    167  CD1       31.1060   19.2220   -1.9320 C.3   105  ILE105      0.0001
@<TRIPOS>BOND
     1   151   150    1
     2   150   149    1
     3   158   157   ar
     4   152   153    1
     5   149   148    1
     6   153   154    1
     7   153   156    1
     8   147   148    1
     9   147   144    1
    10   154   155    2
    11   157   156    1
    12   157   159   ar
    13   145   146    2
    14   145   144    1
    15   144   143    1
    16   143   137   am
    17   160   161    1
    18   137   138    2
    19   137   136    1
    20   161   162    1
    21   161   164    1
    22   136   139    1
    23   136   135    1
    24   162   163    2
    25   139   140    1
    26   166   164    1
    27   164   165    1
    28   141   140    2
    29   140   142   am
    30   126   125    2
    31   135   125   am
    32    12    14   ar
    33    12    10   ar
    34   125   124    1
    35     9    10   ar
    36     9     7   ar
    37   165   167    1
    38    14    13   ar
    39    88    86    1
    40    10     8   ar
    41   120   119    2
    42    76    75    2
    43   132   130   ar
    44   132   133   ar
    45   134   133    1
    46     7     6   ar
    47   122   121    1
    48   130   128   ar
    49   133   131   ar
    50   124   123    1
    51   124   127    1
    52   119   118    1
    53    13    11   ar
    54    86    87    1
    55    86    85    1
    56     8     6   ar
    57     8    11   ar
    58    20    21    1
    59    20    19    1
    60   128   127    1
    61   128   129   ar
    62   131   129   ar
    63    75    74    1
    64     6     5    1
    65    80    78    1
    66    21    15    1
    67   121   118    1
    68    32    31   ar
    69    32    30   ar
    70    74    77    1
    71    74    73    1
    72    31    29   ar
    73   118   117    1
    74    77    78    1
    75    19    16    1
    76    82    85    1
    77    82    81    1
    78    82    83    1
    79    67    66    2
    80    78    79    1
    81     5     2    1
    82    15    16    1
    83    15     3   am
    84    29    27   ar
    85    30    28   ar
    86     1     2    1
    87    83    84    2
    88    73    66   am
    89    16    17    1
    90    66    65    1
    91     2     3    1
    92     3     4    2
    93    96    98   ar
    94    96    94   ar
    95    27    28   ar
    96    27    26    1
    97    89    90    1
    98    98    99   ar
    99    17    22   am
   100    17    18    2
   101    69    68    1
   102    69    70    1
   103    90    93    1
   104    90    91    1
   105    65    68    1
   106    65    64    1
   107    22    23    1
   108    93    94    1
   109    94    95   ar
   110    71    70    1
   111    71    72    1
   112   112   111    2
   113    26    23    1
   114    59    58    2
   115    99   100    1
   116    99    97   ar
   117    54    53    1
   118    55    53    1
   119    23    24    1
   120    91    92    2
   121   111   110    1
   122    95    97   ar
   123    53    50    1
   124    58    57    1
   125   116   115    1
   126    56    57    1
   127    56    51   am
   128    24    25    2
   129   114   115    1
   130   114   113    1
   131    50    51    1
   132    50    49    1
   133    57    60    1
   134    60    61    1
   135   110   113    1
   136   110   109    1
   137    51    52    2
   138    62    61   ar
   139    61    63   ar
   140    41    39   am
   141    49    44   am
   142    36    35    2
   143    45    44    2
   144    38    39    1
   145    38    37    1
   146    39    40    2
   147    44    43    1
   148   104   103    2
   149    33    34    1
   150    35    34    1
   151    35    42   am
   152    34    37    1
   153    43    42    1
   154    43    46    1
   155   103   102    1
   156    42    48    1
   157   101   102    1
   158   102   105    1
   159   105   106    1
   160    46    47    1
   161    48    47    1
   162   106   107    1
   163   107   108    1
