@<TRIPOS>MOLECULE
tmp/5iglA00.pdb
 138 140 0 0 0
SMALL
GASTEIGER

@<TRIPOS>ATOM
      1  N         -1.9130   27.5640   36.0150 N.3    34  TRP34      -0.1228
      2  CA        -1.1620   26.2040   36.1850 C.3    34  TRP34       0.1722
      3  C          0.0420   26.1110   35.3680 C.2    34  TRP34       0.2437
      4  O          1.1020   25.8190   35.9080 O.2    34  TRP34      -0.2733
      5  CB        -2.0080   24.9330   35.9280 C.3    34  TRP34       0.0563
      6  CG        -3.3800   24.9370   36.7160 C.ar   34  TRP34       0.0003
      7  CD1       -4.7080   24.8120   36.2340 C.ar   34  TRP34       0.0946
      8  CD2       -3.5310   25.1140   38.2020 C.ar   34  TRP34       0.0152
      9  NE1       -5.6770   24.8550   37.3490 N.ar   34  TRP34      -0.2442
     10  CE2       -4.9640   25.0780   38.5270 C.ar   34  TRP34       0.0810
     11  CE3       -2.6120   25.2360   39.2590 C.ar   34  TRP34       0.0012
     12  CZ2       -5.4360   25.2180   39.8350 C.ar   34  TRP34       0.0191
     13  CZ3       -3.1280   25.3780   40.6100 C.ar   34  TRP34       0.0001
     14  CH2       -4.5150   25.3540   40.8590 C.ar   34  TRP34       0.0015
     15  N         -0.0510   26.4570   34.0630 N.am   35  PRO35      -0.2718
     16  CA         1.2000   26.2840   33.3650 C.3    35  PRO35       0.1535
     17  C          2.3860   27.0830   33.7490 C.2    35  PRO35       0.2598
     18  O          3.5290   26.6990   33.3290 O.2    35  PRO35      -0.2715
     19  CB         0.8420   26.5950   31.8820 C.3    35  PRO35       0.0310
     20  CG        -0.5370   27.2100   31.9130 C.3    35  PRO35       0.0237
     21  CD        -1.1880   26.5680   33.1150 C.3    35  PRO35       0.0939
     22  N          2.1510   28.1850   34.4680 N.am   36  PHE36      -0.1974
     23  CA         3.2630   28.9770   34.9660 C.3    36  PHE36       0.1639
     24  C          3.8190   28.4960   36.3160 C.2    36  PHE36       0.2290
     25  O          4.9750   28.8490   36.6810 O.2    36  PHE36      -0.2864
     26  CB         2.8910   30.4840   34.9340 C.3    36  PHE36       0.0560
     27  CG         2.5910   31.0080   33.5170 C.ar   36  PHE36      -0.0200
     28  CD1        3.5990   31.4080   32.6640 C.ar   36  PHE36      -0.0042
     29  CD2        1.3550   30.9410   33.0140 C.ar   36  PHE36      -0.0042
     30  CE1        3.3060   31.8230   31.3630 C.ar   36  PHE36      -0.0003
     31  CE2        1.0580   31.3500   31.7080 C.ar   36  PHE36      -0.0003
     32  CZ         2.0340   31.8200   30.9300 C.ar   36  PHE36      -0.0000
     33  N          5.1590   25.6260   37.1730 N.3    38  HIS38      -0.1227
     34  CA         6.3900   24.8500   37.0660 C.3    38  HIS38       0.1737
     35  C          7.1330   25.1080   35.8170 C.2    38  HIS38       0.2438
     36  O          6.5370   25.6330   34.8570 O.2    38  HIS38      -0.2733
     37  CB         6.0630   23.3540   37.1580 C.3    38  HIS38       0.0758
     38  CG         5.2260   23.0150   38.3310 C.ar   38  HIS38       0.0818
     39  ND1        5.7530   22.9340   39.6190 N.ar   38  HIS38      -0.2268
     40  CD2        3.8760   22.8100   38.4350 C.ar   38  HIS38       0.1154
     41  CE1        4.7470   22.6970   40.4640 C.ar   38  HIS38       0.1986
     42  NE2        3.6090   22.6210   39.7740 N.ar   38  HIS38      -0.2212
     43  N          8.4330   24.7430   35.8080 N.am   39  PRO39      -0.2718
     44  CA         9.2190   24.8130   34.5820 C.3    39  PRO39       0.1535
     45  C          8.5350   24.0940   33.4300 C.2    39  PRO39       0.2598
     46  O          7.8170   23.1260   33.6470 O.2    39  PRO39      -0.2715
     47  CB        10.5760   24.1250   34.9510 C.3    39  PRO39       0.0310
     48  CG        10.5770   24.0460   36.5140 C.3    39  PRO39       0.0237
     49  CD         9.1010   23.9280   36.8560 C.3    39  PRO39       0.0939
     50  N          8.7100   24.6380   32.2270 N.am   40  VAL40      -0.1964
     51  CA         7.9890   24.2350   31.0310 C.3    40  VAL40       0.1727
     52  C          8.5740   22.8700   30.7640 C.2    40  VAL40       0.2616
     53  O          9.7940   22.6180   30.9370 O.2    40  VAL40      -0.2715
     54  CB         8.1380   25.2360   29.8310 C.3    40  VAL40       0.0290
     55  CG1        7.7550   24.6230   28.4970 C.3    40  VAL40       0.0023
     56  CG2        7.1720   26.3860   29.9970 C.3    40  VAL40       0.0023
     57  N          7.6940   21.9150   30.5460 N.am   41  ASN41      -0.1972
     58  CA         8.2330   20.5080   30.4830 C.3    41  ASN41       0.1688
     59  C          8.6330   20.1790   29.0350 C.2    41  ASN41       0.2292
     60  O          7.7530   20.2430   28.1810 O.2    41  ASN41      -0.2864
     61  CB         7.2160   19.5160   30.9900 C.3    41  ASN41       0.1181
     62  CG         7.8240   18.0950   31.2350 C.2    41  ASN41       0.2629
     63  OD1        8.7370   17.5920   30.5540 O.2    41  ASN41      -0.2716
     64  ND2        7.3250   17.4790   32.2620 N.am   41  ASN41      -0.0877
     65  N          6.3740   18.0430   26.8830 N.3    44  PHE44      -0.1227
     66  CA         5.1090   18.5380   26.3250 C.3    44  PHE44       0.1736
     67  C          5.3130   19.7480   25.3940 C.2    44  PHE44       0.2595
     68  O          4.3590   20.1500   24.7290 O.2    44  PHE44      -0.2718
     69  CB         4.0510   18.8310   27.4070 C.3    44  PHE44       0.0547
     70  CG         3.8310   17.7110   28.3710 C.ar   44  PHE44      -0.0202
     71  CD1        3.2970   16.4990   27.9490 C.ar   44  PHE44      -0.0042
     72  CD2        4.1610   17.8610   29.7230 C.ar   44  PHE44      -0.0042
     73  CE1        3.0990   15.4350   28.8640 C.ar   44  PHE44      -0.0003
     74  CE2        3.9380   16.8250   30.6440 C.ar   44  PHE44      -0.0003
     75  CZ         3.4430   15.5970   30.2200 C.ar   44  PHE44      -0.0000
     76  N          6.5230   20.3270   25.4000 N.am   45  VAL45      -0.1980
     77  CA         6.9260   21.5370   24.6120 C.3    45  VAL45       0.1595
     78  C          8.4100   21.3580   24.1990 C.2    45  VAL45       0.2287
     79  O          9.3530   21.9780   24.8090 O.2    45  VAL45      -0.2864
     80  CB         6.7580   22.9070   25.3480 C.3    45  VAL45       0.0276
     81  CG1        6.7920   24.0460   24.2990 C.3    45  VAL45       0.0022
     82  CG2        5.4580   22.9740   26.1800 C.3    45  VAL45       0.0022
     83  N         10.6930   24.3950   23.4020 N.3    48  TYR48      -0.1241
     84  CA        10.7400   25.5150   24.4060 C.3    48  TYR48       0.1605
     85  C         12.1060   26.0810   24.6320 C.2    48  TYR48       0.2264
     86  O         12.3410   27.2730   24.3050 O.2    48  TYR48      -0.2867
     87  CB        10.0770   25.2480   25.7790 C.3    48  TYR48       0.0534
     88  CG         9.7720   26.5560   26.5500 C.ar   48  TYR48      -0.0201
     89  CD1        8.6430   27.3030   26.2560 C.ar   48  TYR48      -0.0009
     90  CD2       10.6080   27.0290   27.5590 C.ar   48  TYR48      -0.0009
     91  CE1        8.3400   28.4900   26.9500 C.ar   48  TYR48       0.0417
     92  CE2       10.3360   28.2220   28.2370 C.ar   48  TYR48       0.0417
     93  CZ         9.1960   28.9630   27.9320 C.ar   48  TYR48       0.1957
     94  OH         8.9030   30.2060   28.5310 O.3    48  TYR48      -0.2866
     95  N          6.9020   34.4980   27.4420 N.3    87  SER87      -0.1217
     96  CA         5.6060   34.1850   26.7380 C.3    87  SER87       0.1889
     97  C          5.4170   34.9550   25.4180 C.2    87  SER87       0.2288
     98  O          5.0180   34.3850   24.4120 O.2    87  SER87      -0.2866
     99  CB         4.3530   34.3190   27.6620 C.3    87  SER87       0.2089
    100  OG         3.1240   33.9270   26.9800 O.3    87  SER87      -0.2183
    101  N          8.0700   33.3240   22.9030 N.3    90  TYR90      -0.1227
    102  CA         7.6220   32.0010   22.4310 C.3    90  TYR90       0.1736
    103  C          6.2480   31.9830   21.7350 C.2    90  TYR90       0.2595
    104  O          6.1050   31.2520   20.7810 O.2    90  TYR90      -0.2718
    105  CB         7.6110   30.9670   23.5840 C.3    90  TYR90       0.0548
    106  CG         7.6030   29.5230   23.0670 C.ar   90  TYR90      -0.0200
    107  CD1        8.7720   28.9390   22.6080 C.ar   90  TYR90      -0.0009
    108  CD2        6.4240   28.7700   23.0140 C.ar   90  TYR90      -0.0009
    109  CE1        8.7840   27.6400   22.1110 C.ar   90  TYR90       0.0417
    110  CE2        6.4090   27.4560   22.5150 C.ar   90  TYR90       0.0417
    111  CZ         7.6070   26.8880   22.0530 C.ar   90  TYR90       0.1957
    112  OH         7.7230   25.5580   21.5560 O.3    90  TYR90      -0.2866
    113  N          5.2410   32.7110   22.2590 N.am   91  ASN91      -0.1974
    114  CA         3.8280   32.6660   21.7330 C.3    91  ASN91       0.1688
    115  C          3.3390   33.8560   20.9780 C.2    91  ASN91       0.2292
    116  O          2.2690   33.7760   20.4250 O.2    91  ASN91      -0.2864
    117  CB         2.7500   32.4760   22.8740 C.3    91  ASN91       0.1181
    118  CG         2.5720   31.0170   23.2540 C.2    91  ASN91       0.2629
    119  OD1        1.6260   30.2780   22.8200 O.2    91  ASN91      -0.2716
    120  ND2        3.5820   30.5460   23.9080 N.am   91  ASN91      -0.0877
    121  N         -1.6100   35.3120   22.2000 N.3    95  SER95      -0.1217
    122  CA        -1.9610   34.0100   22.8510 C.3    95  SER95       0.1889
    123  C         -2.4460   33.9870   24.3140 C.2    95  SER95       0.2288
    124  O         -2.1790   34.8970   25.1260 O.2    95  SER95      -0.2866
    125  CB        -0.9140   32.9520   22.5860 C.3    95  SER95       0.2089
    126  OG        -0.1160   32.6600   23.6480 O.3    95  SER95      -0.2183
    127  N         -1.4490   32.0830   26.5850 N.3    97  TYR97      -0.1241
    128  CA        -0.2870   32.0520   27.4160 C.3    97  TYR97       0.1605
    129  C          0.1660   33.4770   27.7400 C.2    97  TYR97       0.2264
    130  O          0.4870   33.7970   28.9150 O.2    97  TYR97      -0.2867
    131  CB         0.8280   31.2290   26.7890 C.3    97  TYR97       0.0534
    132  CG         0.4590   29.7370   26.7410 C.ar   97  TYR97      -0.0201
    133  CD1        0.5370   28.9670   27.9060 C.ar   97  TYR97      -0.0009
    134  CD2        0.0150   29.0920   25.5080 C.ar   97  TYR97      -0.0009
    135  CE1        0.2020   27.6220   27.9070 C.ar   97  TYR97       0.0417
    136  CE2       -0.3240   27.7290   25.5140 C.ar   97  TYR97       0.0417
    137  CZ        -0.2550   27.0050   26.7360 C.ar   97  TYR97       0.1957
    138  OH        -0.6030   25.6910   26.9040 O.3    97  TYR97      -0.2866
@<TRIPOS>BOND
     1   116   115    2
     2   104   103    2
     3   115   114    1
     4   112   111    1
     5   114   113    1
     6   114   117    1
     7   103   113   am
     8   103   102    1
     9   111   109   ar
    10   111   110   ar
    11   109   107   ar
    12   121   122    1
    13   102   101    1
    14   102   105    1
    15   110   108   ar
    16   125   122    1
    17   125   126    1
    18   107   106   ar
    19   119   118    2
    20   122   123    1
    21   117   118    1
    22   108   106   ar
    23   106   105    1
    24   118   120   am
    25    83    84    1
    26    78    77    1
    27    78    79    2
    28    81    80    1
    29    86    85    2
    30   123   124    2
    31    84    85    1
    32    84    87    1
    33    98    97    2
    34    77    80    1
    35    77    76    1
    36    68    67    2
    37    80    82    1
    38    67    76   am
    39    67    66    1
    40    97    96    1
    41   134   136   ar
    42   134   132   ar
    43   136   137   ar
    44    87    88    1
    45    89    88   ar
    46    89    91   ar
    47    66    65    1
    48    66    69    1
    49    88    90   ar
    50   127   128    1
    51   137   138    1
    52   137   135   ar
    53    96    95    1
    54    96    99    1
    55   132   131    1
    56   132   133   ar
    57   131   128    1
    58    91    93   ar
    59   100    99    1
    60    69    70    1
    61   128   129    1
    62    90    92   ar
    63   129   130    2
    64   133   135   ar
    65    93    92   ar
    66    93    94    1
    67    71    70   ar
    68    71    73   ar
    69    60    59    2
    70    70    72   ar
    71    55    54    1
    72    73    75   ar
    73    59    58    1
    74    72    74   ar
    75    54    56    1
    76    54    51    1
    77    75    74   ar
    78    58    57    1
    79    58    61    1
    80    57    52   am
    81    63    62    2
    82    52    53    2
    83    52    51    1
    84    32    30   ar
    85    32    31   ar
    86    61    62    1
    87    51    50    1
    88    62    64   am
    89    30    28   ar
    90    31    29   ar
    91    19    20    1
    92    19    16    1
    93    20    21    1
    94    50    45   am
    95    28    27   ar
    96    29    27   ar
    97    21    15    1
    98    18    17    2
    99    16    17    1
   100    16    15    1
   101    45    46    2
   102    45    44    1
   103    27    26    1
   104    17    22   am
   105    15     3   am
   106    22    23    1
   107    44    47    1
   108    44    43    1
   109    36    35    2
   110    26    23    1
   111    47    48    1
   112    23    24    1
   113     3     4    2
   114     3     2    1
   115    43    35   am
   116    43    49    1
   117    35    34    1
   118     5     2    1
   119     5     6    1
   120     1     2    1
   121     7     6   ar
   122     7     9   ar
   123    24    25    2
   124    48    49    1
   125     6     8   ar
   126    34    37    1
   127    34    33    1
   128    37    38    1
   129     9    10   ar
   130     8    10   ar
   131     8    11   ar
   132    38    40   ar
   133    38    39   ar
   134    40    42   ar
   135    10    12   ar
   136    11    13   ar
   137    39    41   ar
   138    42    41   ar
   139    12    14   ar
   140    13    14   ar
