@<TRIPOS>MOLECULE
tmp/5igmB00.pdb
 109 108 0 0 0
SMALL
GASTEIGER

@<TRIPOS>ATOM
      1  N         73.7260   43.7620   20.5440 N.3    23  PHE23      -0.1227
      2  CA        73.4810   45.1630   20.9080 C.3    23  PHE23       0.1736
      3  C         72.4070   45.2920   21.9970 C.2    23  PHE23       0.2595
      4  O         72.5260   46.1090   22.9130 O.2    23  PHE23      -0.2718
      5  CB        73.0710   45.9900   19.6770 C.3    23  PHE23       0.0547
      6  CG        74.1440   46.0850   18.6130 C.ar   23  PHE23      -0.0202
      7  CD1       75.4720   46.3330   18.9430 C.ar   23  PHE23      -0.0042
      8  CD2       73.8200   45.8910   17.2800 C.ar   23  PHE23      -0.0042
      9  CE1       76.4520   46.4060   17.9610 C.ar   23  PHE23      -0.0003
     10  CE2       74.7960   45.9710   16.2870 C.ar   23  PHE23      -0.0003
     11  CZ        76.1110   46.2260   16.6310 C.ar   23  PHE23      -0.0000
     12  N         71.3810   44.4610   21.9000 N.am   24  PHE24      -0.1976
     13  CA        70.2070   44.5220   22.7970 C.3    24  PHE24       0.1639
     14  C         70.2370   43.5320   23.9470 C.2    24  PHE24       0.2290
     15  O         69.2120   43.2740   24.6000 O.2    24  PHE24      -0.2864
     16  CB        68.9790   44.2370   21.9770 C.3    24  PHE24       0.0560
     17  CG        68.7010   45.2770   20.9560 C.ar   24  PHE24      -0.0200
     18  CD1       68.0650   46.4410   21.3190 C.ar   24  PHE24      -0.0042
     19  CD2       69.1040   45.1260   19.6310 C.ar   24  PHE24      -0.0042
     20  CE1       67.8160   47.4390   20.3950 C.ar   24  PHE24      -0.0003
     21  CE2       68.8440   46.1130   18.6920 C.ar   24  PHE24      -0.0003
     22  CZ        68.2080   47.2740   19.0710 C.ar   24  PHE24      -0.0000
     23  N         71.9080   43.4710   26.9010 N.3    26  PHE26      -0.1241
     24  CA        71.9510   43.9940   28.2610 C.3    26  PHE26       0.1605
     25  C         71.5640   45.4760   28.2800 C.2    26  PHE26       0.2264
     26  O         71.6000   46.1200   27.2200 O.2    26  PHE26      -0.2867
     27  CB        73.3650   43.8850   28.7950 C.3    26  PHE26       0.0534
     28  CG        73.7680   42.4860   29.0620 C.ar   26  PHE26      -0.0203
     29  CD1       73.3990   41.8810   30.2450 C.ar   26  PHE26      -0.0042
     30  CD2       74.4460   41.7620   28.1020 C.ar   26  PHE26      -0.0042
     31  CE1       73.7450   40.5640   30.4990 C.ar   26  PHE26      -0.0003
     32  CE2       74.7830   40.4480   28.3400 C.ar   26  PHE26      -0.0003
     33  CZ        74.4350   39.8540   29.5410 C.ar   26  PHE26      -0.0000
     34  N         71.5280   49.4460   28.3170 N.3    28  VAL28      -0.1245
     35  CA        72.4410   50.4330   27.8160 C.3    28  VAL28       0.1561
     36  C         72.8850   51.3240   28.9780 C.2    28  VAL28       0.2260
     37  O         72.0730   51.8340   29.7650 O.2    28  VAL28      -0.2867
     38  CB        71.7970   51.3080   26.7030 C.3    28  VAL28       0.0252
     39  CG1       72.7720   52.3740   26.2250 C.3    28  VAL28       0.0019
     40  CG2       71.3170   50.4380   25.5600 C.3    28  VAL28       0.0019
     41  N         78.4170   54.4410   27.8320 N.3    32  ILE32      -0.1231
     42  CA        78.4440   54.1740   26.4270 C.3    32  ILE32       0.1692
     43  C         77.6010   55.2400   25.7250 C.2    32  ILE32       0.2592
     44  O         77.9930   55.7190   24.6600 O.2    32  ILE32      -0.2718
     45  CB        77.8990   52.7770   26.1450 C.3    32  ILE32       0.0266
     46  CG1       78.8010   51.7380   26.8290 C.3    32  ILE32       0.0019
     47  CG2       77.7590   52.5350   24.6490 C.3    32  ILE32       0.0020
     48  CD1       80.2730   51.8290   26.4790 C.3    32  ILE32       0.0001
     49  N         76.4570   55.5670   26.3390 N.am   33  ALA33      -0.1966
     50  CA        75.3790   56.3860   25.7140 C.3    33  ALA33       0.1713
     51  C         74.9670   57.5660   26.6030 C.2    33  ALA33       0.2458
     52  O         74.0510   57.4930   27.4280 O.2    33  ALA33      -0.2730
     53  CB        74.1710   55.5020   25.3730 C.3    33  ALA33       0.0333
     54  N         75.6910   58.7020   26.4780 N.am   34  PRO34      -0.2727
     55  CA        75.4120   59.8540   27.3360 C.3    34  PRO34       0.1402
     56  C         73.9170   60.2390   27.3710 C.2    34  PRO34       0.2269
     57  O         73.2580   60.2510   26.3370 O.2    34  PRO34      -0.2865
     58  CB        76.2440   60.9820   26.7050 C.3    34  PRO34       0.0296
     59  CG        77.3250   60.2660   25.9420 C.3    34  PRO34       0.0237
     60  CD        76.7250   58.9810   25.4690 C.3    34  PRO34       0.0939
     61  N         71.3250   58.5950   28.3930 N.3    36  TYR36      -0.1241
     62  CA        70.3950   57.5110   28.1510 C.3    36  TYR36       0.1605
     63  C         69.3400   57.3640   29.2320 C.2    36  TYR36       0.2264
     64  O         68.1420   57.2190   28.9440 O.2    36  TYR36      -0.2867
     65  CB        71.1590   56.1740   27.9130 C.3    36  TYR36       0.0534
     66  CG        70.2600   55.1090   27.3000 C.ar   36  TYR36      -0.0201
     67  CD1       69.4190   54.3530   28.0840 C.ar   36  TYR36      -0.0009
     68  CD2       70.1980   54.9560   25.9280 C.ar   36  TYR36      -0.0009
     69  CE1       68.5630   53.4130   27.5360 C.ar   36  TYR36       0.0417
     70  CE2       69.3720   54.0270   25.3600 C.ar   36  TYR36       0.0417
     71  CZ        68.5200   53.2750   26.1510 C.ar   36  TYR36       0.1957
     72  OH        67.6570   52.3570   25.6340 O.3    36  TYR36      -0.2866
     73  N         65.3770   52.3090   21.3260 N.3    75  ALA75      -0.1245
     74  CA        66.5560   52.4470   20.4690 C.3    75  ALA75       0.1562
     75  C         66.2790   53.4370   19.3440 C.2    75  ALA75       0.2260
     76  O         67.1480   54.2140   18.9430 O.2    75  ALA75      -0.2867
     77  CB        66.9460   51.1230   19.8860 C.3    75  ALA75       0.0290
     78  N         66.3200   57.0820   21.1960 N.3    78  TYR78      -0.1227
     79  CA        67.5780   57.6350   21.6670 C.3    78  TYR78       0.1736
     80  C         68.5510   57.8950   20.5230 C.2    78  TYR78       0.2595
     81  O         69.2070   58.9510   20.5080 O.2    78  TYR78      -0.2718
     82  CB        68.2370   56.7130   22.7060 C.3    78  TYR78       0.0548
     83  CG        69.5750   57.2690   23.1420 C.ar   78  TYR78      -0.0200
     84  CD1       69.6500   58.2030   24.1580 C.ar   78  TYR78      -0.0009
     85  CD2       70.7590   56.7860   22.5700 C.ar   78  TYR78      -0.0009
     86  CE1       70.8810   58.7240   24.5670 C.ar   78  TYR78       0.0417
     87  CE2       71.9850   57.3000   22.9530 C.ar   78  TYR78       0.0417
     88  CZ        72.0380   58.2460   23.9370 C.ar   78  TYR78       0.1957
     89  OH        73.2770   58.7050   24.2740 O.3    78  TYR78      -0.2866
     90  N         68.6480   56.9560   19.5790 N.am   79  ASN79      -0.1974
     91  CA        69.6210   56.9960   18.4990 C.3    79  ASN79       0.1688
     92  C         69.0740   57.6600   17.2710 C.2    79  ASN79       0.2292
     93  O         67.9020   57.5310   16.9630 O.2    79  ASN79      -0.2864
     94  CB        70.1510   55.6370   18.1300 C.3    79  ASN79       0.1181
     95  CG        70.7500   54.8890   19.3260 C.2    79  ASN79       0.2629
     96  OD1       71.9300   55.0920   19.6780 O.2    79  ASN79      -0.2716
     97  ND2       69.9580   54.0150   19.9420 N.am   79  ASN79      -0.0877
     98  N         72.1530   51.2310   15.5140 N.3    85  TYR85      -0.1241
     99  CA        71.1950   50.8190   16.5200 C.3    85  TYR85       0.1605
    100  C         69.7570   51.1380   16.1040 C.2    85  TYR85       0.2264
    101  O         68.8370   50.3070   16.2570 O.2    85  TYR85      -0.2867
    102  CB        71.5340   51.4880   17.8410 C.3    85  TYR85       0.0534
    103  CG        73.0040   51.3870   18.1860 C.ar   85  TYR85      -0.0201
    104  CD1       73.5470   50.1920   18.5790 C.ar   85  TYR85      -0.0009
    105  CD2       73.8480   52.4910   18.1060 C.ar   85  TYR85      -0.0009
    106  CE1       74.8910   50.0690   18.8790 C.ar   85  TYR85       0.0417
    107  CE2       75.1960   52.3800   18.4130 C.ar   85  TYR85       0.0417
    108  CZ        75.7050   51.1560   18.7930 C.ar   85  TYR85       0.1957
    109  OH        77.0200   51.0070   19.1040 O.3    85  TYR85      -0.2866
@<TRIPOS>BOND
     1    98    99    1
     2   100   101    2
     3   100    99    1
     4    10    11   ar
     5    10     8   ar
     6    99   102    1
     7    11     9   ar
     8    93    92    2
     9    92    91    1
    10     8     6   ar
    11   102   103    1
    12     9     7   ar
    13   105   103   ar
    14   105   107   ar
    15    94    91    1
    16    94    95    1
    17   103   104   ar
    18   107   108   ar
    19    91    90    1
    20   104   106   ar
    21     6     7   ar
    22     6     5    1
    23    21    22   ar
    24    21    19   ar
    25   108   106   ar
    26   108   109    1
    27    76    75    2
    28    22    20   ar
    29    95    96    2
    30    95    97   am
    31    75    74    1
    32    90    80   am
    33    19    17   ar
    34     5     2    1
    35    77    74    1
    36    20    18   ar
    37    74    73    1
    38    81    80    2
    39    80    79    1
    40     1     2    1
    41     2     3    1
    42    17    18   ar
    43    17    16    1
    44    78    79    1
    45    79    82    1
    46    12     3   am
    47    12    13    1
    48    16    13    1
    49     3     4    2
    50    85    87   ar
    51    85    83   ar
    52    82    83    1
    53    13    14    1
    54    87    88   ar
    55    83    84   ar
    56    88    89    1
    57    88    86   ar
    58    14    15    2
    59    84    86   ar
    60    47    45    1
    61    44    43    2
    62    70    68   ar
    63    70    71   ar
    64    53    50    1
    65    60    59    1
    66    60    54    1
    67    40    38    1
    68    72    71    1
    69    50    49    1
    70    50    51    1
    71    43    49   am
    72    43    42    1
    73    68    66   ar
    74    59    58    1
    75    45    42    1
    76    45    46    1
    77    71    69   ar
    78    39    38    1
    79    57    56    2
    80    42    41    1
    81    54    51   am
    82    54    55    1
    83    48    46    1
    84    51    52    2
    85    38    35    1
    86    58    55    1
    87    23    24    1
    88    26    25    2
    89    66    65    1
    90    66    67   ar
    91    55    56    1
    92    69    67   ar
    93    35    34    1
    94    35    36    1
    95    65    62    1
    96    30    32   ar
    97    30    28   ar
    98    62    61    1
    99    62    63    1
   100    24    25    1
   101    24    27    1
   102    32    33   ar
   103    27    28    1
   104    64    63    2
   105    36    37    2
   106    28    29   ar
   107    33    31   ar
   108    29    31   ar
