@<TRIPOS>MOLECULE
tmp/5igmA00.pdb
 130 132 0 0 0
SMALL
GASTEIGER

@<TRIPOS>ATOM
      1  N         64.8050    2.9710   31.3200 N.3    21  HIS21      -0.1226
      2  CA        65.3900    1.7730   30.7270 C.3    21  HIS21       0.1752
      3  C         65.3430    1.7900   29.2070 C.2    21  HIS21       0.2597
      4  O         65.9490    0.9400   28.5670 O.2    21  HIS21      -0.2718
      5  CB        64.7210    0.5110   31.2730 C.3    21  HIS21       0.0759
      6  CG        64.9290    0.3190   32.7400 C.ar   21  HIS21       0.0818
      7  ND1       66.0890   -0.2110   33.2620 N.ar   21  HIS21      -0.2268
      8  CD2       64.1380    0.6120   33.8000 C.ar   21  HIS21       0.1154
      9  CE1       66.0030   -0.2430   34.5800 C.ar   21  HIS21       0.1986
     10  NE2       64.8290    0.2490   34.9330 N.ar   21  HIS21      -0.2212
     11  N         64.6280    2.7510   28.6250 N.am   22  GLY22      -0.1942
     12  CA        64.5470    2.8580   27.1920 C.3    22  GLY22       0.2014
     13  C         63.6530    1.8180   26.5140 C.2    22  GLY22       0.2639
     14  O         63.8170    1.5630   25.3280 O.2    22  GLY22      -0.2714
     15  N         62.6980    1.2260   27.2370 N.am   23  PHE23      -0.1959
     16  CA        61.7830    0.2410   26.5930 C.3    23  PHE23       0.1771
     17  C         61.0120    0.8190   25.3990 C.2    23  PHE23       0.2619
     18  O         60.7980    0.1210   24.4270 O.2    23  PHE23      -0.2715
     19  CB        60.7770   -0.3760   27.5990 C.3    23  PHE23       0.0574
     20  CG        61.4220   -1.0320   28.8020 C.ar   23  PHE23      -0.0200
     21  CD1       62.4880   -1.9220   28.6510 C.ar   23  PHE23      -0.0042
     22  CD2       60.9580   -0.7690   30.0850 C.ar   23  PHE23      -0.0042
     23  CE1       63.0890   -2.5060   29.7570 C.ar   23  PHE23      -0.0003
     24  CE2       61.5450   -1.3640   31.1980 C.ar   23  PHE23      -0.0003
     25  CZ        62.6210   -2.2290   31.0280 C.ar   23  PHE23      -0.0000
     26  N         60.6300    2.0950   25.4800 N.am   24  PHE24      -0.1974
     27  CA        59.8450    2.7570   24.4360 C.3    24  PHE24       0.1639
     28  C         60.6700    3.5530   23.4200 C.2    24  PHE24       0.2290
     29  O         60.1100    4.1980   22.5100 O.2    24  PHE24      -0.2864
     30  CB        58.7750    3.6450   25.0910 C.3    24  PHE24       0.0560
     31  CG        57.7320    2.8560   25.8330 C.ar   24  PHE24      -0.0200
     32  CD1       56.6480    2.3510   25.1360 C.ar   24  PHE24      -0.0042
     33  CD2       57.8650    2.5460   27.1670 C.ar   24  PHE24      -0.0042
     34  CE1       55.6650    1.6120   25.7960 C.ar   24  PHE24      -0.0003
     35  CE2       56.9020    1.7820   27.8240 C.ar   24  PHE24      -0.0003
     36  CZ        55.8020    1.3080   27.1240 C.ar   24  PHE24      -0.0000
     37  N         62.7500    2.7450   20.9320 N.3    26  PHE26      -0.1228
     38  CA        62.7680    2.2690   19.5490 C.3    26  PHE26       0.1721
     39  C         61.7050    1.1910   19.2940 C.2    26  PHE26       0.2437
     40  O         61.1500    0.6480   20.2540 O.2    26  PHE26      -0.2733
     41  CB        64.1600    1.7170   19.2210 C.3    26  PHE26       0.0547
     42  CG        65.2630    2.7240   19.4000 C.ar   26  PHE26      -0.0202
     43  CD1       65.4560    3.7260   18.4580 C.ar   26  PHE26      -0.0042
     44  CD2       66.0970    2.6830   20.5210 C.ar   26  PHE26      -0.0042
     45  CE1       66.4630    4.6720   18.6280 C.ar   26  PHE26      -0.0003
     46  CE2       67.1060    3.6260   20.6930 C.ar   26  PHE26      -0.0003
     47  CZ        67.2880    4.6180   19.7390 C.ar   26  PHE26      -0.0000
     48  N         61.4140    0.8890   18.0140 N.am   27  PRO27      -0.2718
     49  CA        60.3740   -0.1130   17.7390 C.3    27  PRO27       0.1535
     50  C         60.6810   -1.4960   18.3620 C.2    27  PRO27       0.2598
     51  O         61.8450   -1.9300   18.4080 O.2    27  PRO27      -0.2715
     52  CB        60.3510   -0.1900   16.2020 C.3    27  PRO27       0.0310
     53  CG        60.8950    1.1270   15.7450 C.3    27  PRO27       0.0237
     54  CD        61.9100    1.5100   16.7680 C.3    27  PRO27       0.0939
     55  N         59.6350   -2.1560   18.8570 N.am   28  VAL28      -0.1978
     56  CA        59.7660   -3.4740   19.4700 C.3    28  VAL28       0.1596
     57  C         59.8950   -4.5060   18.3580 C.2    28  VAL28       0.2287
     58  O         59.0800   -4.5490   17.4300 O.2    28  VAL28      -0.2864
     59  CB        58.5030   -3.8540   20.3030 C.3    28  VAL28       0.0276
     60  CG1       58.6490   -5.2550   20.8910 C.3    28  VAL28       0.0022
     61  CG2       58.2490   -2.8360   21.4110 C.3    28  VAL28       0.0022
     62  N         62.9410   -9.4090   20.2250 N.3    32  ILE32      -0.1231
     63  CA        62.8100   -9.0190   21.6330 C.3    32  ILE32       0.1692
     64  C         61.5210   -9.5590   22.2500 C.2    32  ILE32       0.2592
     65  O         61.5040  -10.0290   23.3780 O.2    32  ILE32      -0.2718
     66  CB        62.8370   -7.4860   21.8040 C.3    32  ILE32       0.0266
     67  CG1       64.1780   -6.9130   21.3320 C.3    32  ILE32       0.0019
     68  CG2       62.5920   -7.0960   23.2620 C.3    32  ILE32       0.0020
     69  CD1       64.1230   -5.4380   20.9870 C.3    32  ILE32       0.0001
     70  N         60.4350   -9.4840   21.5010 N.am   33  ALA33      -0.1966
     71  CA        59.1350   -9.8810   22.0060 C.3    33  ALA33       0.1713
     72  C         58.4980  -10.8130   20.9970 C.2    33  ALA33       0.2458
     73  O         57.9260  -10.3460   20.0070 O.2    33  ALA33      -0.2730
     74  CB        58.2760   -8.6440   22.2180 C.3    33  ALA33       0.0333
     75  N         58.6150  -12.1340   21.2270 N.am   34  PRO34      -0.2727
     76  CA        58.1440  -13.1040   20.2400 C.3    34  PRO34       0.1402
     77  C         56.6840  -12.8940   19.8380 C.2    34  PRO34       0.2269
     78  O         55.8020  -12.6770   20.6870 O.2    34  PRO34      -0.2865
     79  CB        58.3180  -14.4490   20.9500 C.3    34  PRO34       0.0296
     80  CG        59.3810  -14.2200   21.9540 C.3    34  PRO34       0.0237
     81  CD        59.2690  -12.7860   22.3770 C.3    34  PRO34       0.0939
     82  N         55.3270  -10.4780   18.3690 N.3    36  TYR36      -0.1241
     83  CA        54.8540   -9.0870   18.5470 C.3    36  TYR36       0.1605
     84  C         54.1140   -8.5820   17.2930 C.2    36  TYR36       0.2264
     85  O         53.0000   -8.0550   17.3880 O.2    36  TYR36      -0.2867
     86  CB        55.9990   -8.1380   18.8850 C.3    36  TYR36       0.0534
     87  CG        55.5140   -6.7640   19.2950 C.ar   36  TYR36      -0.0201
     88  CD1       55.1840   -6.4820   20.6410 C.ar   36  TYR36      -0.0009
     89  CD2       55.3760   -5.7410   18.3450 C.ar   36  TYR36      -0.0009
     90  CE1       54.7310   -5.2220   21.0120 C.ar   36  TYR36       0.0417
     91  CE2       54.9090   -4.4800   18.7090 C.ar   36  TYR36       0.0417
     92  CZ        54.5930   -4.2330   20.0430 C.ar   36  TYR36       0.1957
     93  OH        54.1590   -3.0020   20.4350 O.3    36  TYR36      -0.2866
     94  N         51.5350   -1.6330   24.2280 N.3    75  ALA75      -0.1245
     95  CA        52.2740   -2.3130   25.2760 C.3    75  ALA75       0.1562
     96  C         51.2830   -3.0300   26.1910 C.2    75  ALA75       0.2260
     97  O         51.5740   -4.1180   26.6710 O.2    75  ALA75      -0.2867
     98  CB        53.0690   -1.3250   26.0560 C.3    75  ALA75       0.0290
     99  N         49.8460   -6.2150   24.1730 N.3    78  TYR78      -0.1227
    100  CA        50.7760   -7.3260   23.9510 C.3    78  TYR78       0.1736
    101  C         51.1760   -7.9830   25.2650 C.2    78  TYR78       0.2595
    102  O         51.1940   -9.2050   25.3550 O.2    78  TYR78      -0.2718
    103  CB        52.0200   -6.8970   23.1730 C.3    78  TYR78       0.0548
    104  CG        53.0530   -8.0200   23.0190 C.ar   78  TYR78      -0.0200
    105  CD1       52.8820   -9.0330   22.0700 C.ar   78  TYR78      -0.0009
    106  CD2       54.1180   -8.1070   23.8650 C.ar   78  TYR78      -0.0009
    107  CE1       53.8040  -10.0670   21.9760 C.ar   78  TYR78       0.0417
    108  CE2       55.0350   -9.1300   23.7650 C.ar   78  TYR78       0.0417
    109  CZ        54.8630  -10.1110   22.8400 C.ar   78  TYR78       0.1957
    110  OH        55.8400  -11.1030   22.8080 O.3    78  TYR78      -0.2866
    111  N         51.5000   -7.1910   26.2690 N.am   79  ASN79      -0.1974
    112  CA        52.0190   -7.7410   27.5250 C.3    79  ASN79       0.1688
    113  C         50.9470   -7.9300   28.5940 C.2    79  ASN79       0.2292
    114  O         50.0420   -7.1410   28.7010 O.2    79  ASN79      -0.2864
    115  CB        53.1010   -6.8130   28.0870 C.3    79  ASN79       0.1181
    116  CG        54.2450   -6.5480   27.1100 C.2    79  ASN79       0.2629
    117  OD1       55.2010   -7.3310   27.0200 O.2    79  ASN79      -0.2716
    118  ND2       54.1730   -5.4310   26.3970 N.am   79  ASN79      -0.0877
    119  N         56.4600   -4.0810   31.4890 N.3    85  TYR85      -0.1241
    120  CA        56.0980   -3.3070   30.2890 C.3    85  TYR85       0.1605
    121  C         54.6730   -2.8250   30.3650 C.2    85  TYR85       0.2264
    122  O         54.3960   -1.6750   30.0340 O.2    85  TYR85      -0.2867
    123  CB        56.3310   -4.0940   29.0130 C.3    85  TYR85       0.0534
    124  CG        57.6670   -4.7500   28.9950 C.ar   85  TYR85      -0.0201
    125  CD1       58.8230   -3.9950   28.9180 C.ar   85  TYR85      -0.0009
    126  CD2       57.7840   -6.1260   29.1140 C.ar   85  TYR85      -0.0009
    127  CE1       60.0740   -4.5960   28.9380 C.ar   85  TYR85       0.0417
    128  CE2       59.0430   -6.7380   29.1520 C.ar   85  TYR85       0.0417
    129  CZ        60.1690   -5.9700   29.0340 C.ar   85  TYR85       0.1957
    130  OH        61.3810   -6.5950   29.0560 O.3    85  TYR85      -0.2866
@<TRIPOS>BOND
     1    53    52    1
     2    53    54    1
     3    52    49    1
     4    54    48    1
     5    84    85    2
     6    84    83    1
     7    58    57    2
     8    49    48    1
     9    49    50    1
    10    48    39   am
    11    89    91   ar
    12    89    87   ar
    13    57    56    1
    14    50    51    2
    15    50    55   am
    16    82    83    1
    17    43    45   ar
    18    43    42   ar
    19    83    86    1
    20    45    47   ar
    21    91    92   ar
    22    55    56    1
    23    86    87    1
    24    41    42    1
    25    41    38    1
    26    39    38    1
    27    39    40    2
    28    87    88   ar
    29    42    44   ar
    30    56    59    1
    31    38    37    1
    32    47    46   ar
    33    77    76    1
    34    77    78    2
    35    73    72    2
    36    92    93    1
    37    92    90   ar
    38    62    63    1
    39    76    79    1
    40    76    75    1
    41    59    60    1
    42    59    61    1
    43    44    46   ar
    44    88    90   ar
    45    79    80    1
    46    69    67    1
    47    72    75   am
    48    72    71    1
    49    75    81    1
    50    67    66    1
    51    70    71    1
    52    70    64   am
    53    63    66    1
    54    63    64    1
    55    66    68    1
    56    80    81    1
    57   107   105   ar
    58   107   109   ar
    59    71    74    1
    60   105   104   ar
    61    64    65    2
    62    29    28    2
    63   110   109    1
    64   109   108   ar
    65   104   103    1
    66   104   106   ar
    67   103   100    1
    68    28    27    1
    69   108   106   ar
    70   100    99    1
    71   100   101    1
    72    94    95    1
    73    18    17    2
    74    27    30    1
    75    27    26    1
    76    30    31    1
    77    32    34   ar
    78    32    31   ar
    79   101   102    2
    80   101   111   am
    81    95    98    1
    82    95    96    1
    83    14    13    2
    84    17    26   am
    85    17    16    1
    86    34    36   ar
    87    31    33   ar
    88    96    97    2
    89   111   112    1
    90   118   116   am
    91    13    12    1
    92    13    15   am
    93    16    15    1
    94    16    19    1
    95   117   116    2
    96   116   115    1
    97    36    35   ar
    98    33    35   ar
    99    12    11    1
   100   112   115    1
   101   112   113    1
   102    19    20    1
   103     4     3    2
   104   113   114    2
   105    11     3   am
   106    21    20   ar
   107    21    23   ar
   108    20    22   ar
   109   125   127   ar
   110   125   124   ar
   111   127   129   ar
   112   124   123    1
   113   124   126   ar
   114   123   120    1
   115   129   130    1
   116   129   128   ar
   117   126   128   ar
   118     3     2    1
   119    23    25   ar
   120   122   121    2
   121    22    24   ar
   122   120   121    1
   123   120   119    1
   124     2     5    1
   125     2     1    1
   126    25    24   ar
   127     5     6    1
   128     6     7   ar
   129     6     8   ar
   130     7     9   ar
   131     8    10   ar
   132     9    10   ar
