@<TRIPOS>MOLECULE
tmp/5ignA00.pdb
 149 153 0 0 0
SMALL
GASTEIGER

@<TRIPOS>ATOM
      1  N         -5.2570   25.3320   35.3660 N.3    20  PRO20      -0.2102
      2  CA        -4.9870   26.2740   34.2790 C.3    20  PRO20       0.1504
      3  C         -4.2200   27.5170   34.6560 C.2    20  PRO20       0.2576
      4  O         -3.5950   28.0990   33.7860 O.2    20  PRO20      -0.2718
      5  CB        -6.3880   26.6670   33.8000 C.3    20  PRO20       0.0282
      6  CG        -7.2850   26.3930   34.9570 C.3    20  PRO20       0.0208
      7  CD        -6.6900   25.1860   35.6380 C.3    20  PRO20       0.0893
      8  N         -4.2570   27.9180   35.9270 N.am   21  HIS21      -0.1962
      9  CA        -3.4810   29.0790   36.3950 C.3    21  HIS21       0.1787
     10  C         -2.0690   28.7090   36.7780 C.2    21  HIS21       0.2621
     11  O         -1.2580   29.5890   37.0560 O.2    21  HIS21      -0.2715
     12  CB        -4.1600   29.7370   37.6020 C.3    21  HIS21       0.0785
     13  CG        -5.5190   30.2450   37.3010 C.ar   21  HIS21       0.0821
     14  ND1       -5.7480   31.1960   36.3360 N.ar   21  HIS21      -0.2267
     15  CD2       -6.7240   29.9210   37.8120 C.ar   21  HIS21       0.1154
     16  CE1       -7.0460   31.4400   36.2610 C.ar   21  HIS21       0.1986
     17  NE2       -7.6580   30.6830   37.1570 N.ar   21  HIS21      -0.2212
     18  N         -1.7550   27.4210   36.7760 N.am   22  GLY22      -0.1940
     19  CA        -0.3830   26.9840   37.0740 C.3    22  GLY22       0.2014
     20  C         -0.0100   27.2420   38.5370 C.2    22  GLY22       0.2639
     21  O          1.1340   27.5900   38.8440 O.2    22  GLY22      -0.2714
     22  N         -0.9750   27.1040   39.4340 N.am   23  PHE23      -0.1959
     23  CA        -0.6830   27.2210   40.8530 C.3    23  PHE23       0.1771
     24  C          0.4110   26.2440   41.2600 C.2    23  PHE23       0.2620
     25  O          1.2430   26.5700   42.0870 O.2    23  PHE23      -0.2715
     26  CB        -1.9370   26.9150   41.6960 C.3    23  PHE23       0.0574
     27  CG        -3.0340   27.9590   41.6160 C.ar   23  PHE23      -0.0200
     28  CD1       -2.7730   29.3230   41.6530 C.ar   23  PHE23      -0.0042
     29  CD2       -4.3520   27.5610   41.5190 C.ar   23  PHE23      -0.0042
     30  CE1       -3.8020   30.2650   41.5830 C.ar   23  PHE23      -0.0003
     31  CE2       -5.3820   28.4930   41.4360 C.ar   23  PHE23      -0.0003
     32  CZ        -5.1120   29.8400   41.4800 C.ar   23  PHE23      -0.0000
     33  N          0.3920   25.0510   40.6840 N.am   24  PHE24      -0.1960
     34  CA         1.3230   23.9870   41.0090 C.3    24  PHE24       0.1771
     35  C          2.3970   23.7670   39.9500 C.2    24  PHE24       0.2619
     36  O          3.0540   22.7640   39.9530 O.2    24  PHE24      -0.2715
     37  CB         0.5110   22.7160   41.3020 C.3    24  PHE24       0.0574
     38  CG        -0.5100   22.9390   42.3990 C.ar   24  PHE24      -0.0200
     39  CD1       -0.0860   23.3100   43.6820 C.ar   24  PHE24      -0.0042
     40  CD2       -1.8550   22.7890   42.1630 C.ar   24  PHE24      -0.0042
     41  CE1       -1.0110   23.5590   44.6850 C.ar   24  PHE24      -0.0003
     42  CE2       -2.7880   23.0360   43.1590 C.ar   24  PHE24      -0.0003
     43  CZ        -2.3570   23.3940   44.4330 C.ar   24  PHE24      -0.0000
     44  N          2.6000   24.7500   39.0790 N.am   25  ALA25      -0.1963
     45  CA         3.4590   24.5490   37.9100 C.3    25  ALA25       0.1728
     46  C          4.9510   24.6320   38.2120 C.2    25  ALA25       0.2616
     47  O          5.7800   24.0640   37.4910 O.2    25  ALA25      -0.2715
     48  CB         3.0680   25.5440   36.8470 C.3    25  ALA25       0.0334
     49  N          5.2940   25.3640   39.2630 N.am   26  PHE26      -0.1960
     50  CA         6.6780   25.6210   39.6250 C.3    26  PHE26       0.1756
     51  C          6.8460   25.6690   41.1370 C.2    26  PHE26       0.2461
     52  O          5.8610   25.8320   41.8480 O.2    26  PHE26      -0.2730
     53  CB         7.1160   26.9360   39.0000 C.3    26  PHE26       0.0574
     54  CG         7.1530   26.8640   37.4800 C.ar   26  PHE26      -0.0200
     55  CD1        8.1920   26.2050   36.8600 C.ar   26  PHE26      -0.0042
     56  CD2        6.1140   27.3540   36.7040 C.ar   26  PHE26      -0.0042
     57  CE1        8.2330   26.0930   35.4770 C.ar   26  PHE26      -0.0003
     58  CE2        6.1510   27.2290   35.3250 C.ar   26  PHE26      -0.0003
     59  CZ         7.2080   26.5960   34.7270 C.ar   26  PHE26      -0.0000
     60  N          8.0770   25.4900   41.6130 N.am   27  PRO27      -0.2716
     61  CA         8.2670   25.4800   43.0680 C.3    27  PRO27       0.1536
     62  C          7.7960   26.7590   43.7750 C.2    27  PRO27       0.2598
     63  O          8.0070   27.8910   43.2820 O.2    27  PRO27      -0.2715
     64  CB         9.7780   25.3270   43.2070 C.3    27  PRO27       0.0310
     65  CG        10.1960   24.6010   41.9920 C.3    27  PRO27       0.0237
     66  CD         9.3490   25.2260   40.9080 C.3    27  PRO27       0.0939
     67  N          7.2120   26.5870   44.9700 N.am   28  VAL28      -0.1964
     68  CA         6.8200   27.6860   45.8040 C.3    28  VAL28       0.1727
     69  C          8.0220   28.2300   46.5520 C.2    28  VAL28       0.2616
     70  O          8.6670   27.4720   47.2500 O.2    28  VAL28      -0.2715
     71  CB         5.7770   27.1760   46.8430 C.3    28  VAL28       0.0290
     72  CG1        5.3430   28.2990   47.7590 C.3    28  VAL28       0.0023
     73  CG2        4.6010   26.5700   46.0820 C.3    28  VAL28       0.0023
     74  N          8.2730   29.5280   46.4620 N.am   29  THR29      -0.1951
     75  CA         9.3600   30.1720   47.2150 C.3    29  THR29       0.1897
     76  C          8.8310   30.7500   48.5010 C.2    29  THR29       0.2313
     77  O          7.6380   30.9920   48.6430 O.2    29  THR29      -0.2863
     78  CB         9.9990   31.3230   46.4230 C.3    29  THR29       0.1794
     79  OG1        9.0390   32.3980   46.2830 O.3    29  THR29      -0.2208
     80  CG2       10.4660   30.8250   45.0780 C.3    29  THR29       0.0378
     81  N          6.9070   34.2230   48.0270 N.3    32  ILE32      -0.1231
     82  CA         5.4760   34.1780   47.6990 C.3    32  ILE32       0.1692
     83  C          4.6150   33.5440   48.8060 C.2    32  ILE32       0.2592
     84  O          3.4130   33.8100   48.9150 O.2    32  ILE32      -0.2718
     85  CB         5.2290   33.4440   46.3480 C.3    32  ILE32       0.0266
     86  CG1        3.9220   33.9430   45.7390 C.3    32  ILE32       0.0019
     87  CG2        5.1990   31.9300   46.4840 C.3    32  ILE32       0.0020
     88  CD1        4.0020   35.4120   45.3400 C.3    32  ILE32       0.0001
     89  N          5.2370   32.6880   49.6140 N.am   33  ALA33      -0.1966
     90  CA         4.5230   31.8900   50.6000 C.3    33  ALA33       0.1713
     91  C          5.3740   31.9400   51.8630 C.2    33  ALA33       0.2458
     92  O          6.1870   31.0500   52.0940 O.2    33  ALA33      -0.2730
     93  CB         4.3560   30.4570   50.1030 C.3    33  ALA33       0.0333
     94  N          5.2200   33.0190   52.6480 N.am   34  PRO34      -0.2727
     95  CA         6.0390   33.1910   53.8490 C.3    34  PRO34       0.1402
     96  C          6.1300   31.9390   54.7170 C.2    34  PRO34       0.2269
     97  O          5.1260   31.2590   54.9930 O.2    34  PRO34      -0.2865
     98  CB         5.3560   34.3500   54.5770 C.3    34  PRO34       0.0296
     99  CG         4.6180   35.1230   53.4920 C.3    34  PRO34       0.0237
    100  CD         4.1880   34.0720   52.5040 C.3    34  PRO34       0.0939
    101  N          7.2330   29.0420   53.9960 N.3    36  TYR36      -0.1241
    102  CA         6.9200   27.7820   53.3810 C.3    36  TYR36       0.1605
    103  C          7.9620   26.6750   53.7430 C.2    36  TYR36       0.2264
    104  O          7.6230   25.5820   54.1510 O.2    36  TYR36      -0.2867
    105  CB         6.8560   27.9660   51.8740 C.3    36  TYR36       0.0534
    106  CG         6.2380   26.7900   51.1580 C.ar   36  TYR36      -0.0201
    107  CD1        4.8740   26.6430   51.0920 C.ar   36  TYR36      -0.0009
    108  CD2        7.0280   25.8120   50.5450 C.ar   36  TYR36      -0.0009
    109  CE1        4.2930   25.5790   50.4260 C.ar   36  TYR36       0.0417
    110  CE2        6.4440   24.7430   49.8670 C.ar   36  TYR36       0.0417
    111  CZ         5.0760   24.6510   49.7910 C.ar   36  TYR36       0.1957
    112  OH         4.4870   23.5650   49.1770 O.3    36  TYR36      -0.2866
    113  N          0.5840   21.2710   49.6870 N.3    75  ALA75      -0.1245
    114  CA        -0.4660   22.2920   49.5240 C.3    75  ALA75       0.1562
    115  C         -1.5190   22.2840   50.6110 C.2    75  ALA75       0.2260
    116  O         -1.9240   23.3180   51.1300 O.2    75  ALA75      -0.2867
    117  CB        -1.1400   22.1350   48.1560 C.3    75  ALA75       0.0290
    118  N          0.2880   23.2730   54.1520 N.3    78  TYR78      -0.1227
    119  CA         0.6810   24.6520   54.3020 C.3    78  TYR78       0.1736
    120  C         -0.4620   25.6120   54.2370 C.2    78  TYR78       0.2595
    121  O         -0.5090   26.5260   55.0340 O.2    78  TYR78      -0.2718
    122  CB         1.7340   25.0480   53.2690 C.3    78  TYR78       0.0548
    123  CG         2.1180   26.4710   53.3340 C.ar   78  TYR78      -0.0200
    124  CD1        3.0940   26.9260   54.2380 C.ar   78  TYR78      -0.0009
    125  CD2        1.5390   27.3980   52.4860 C.ar   78  TYR78      -0.0009
    126  CE1        3.4370   28.2550   54.2800 C.ar   78  TYR78       0.0417
    127  CE2        1.9120   28.7270   52.5130 C.ar   78  TYR78       0.0417
    128  CZ         2.8570   29.1410   53.4150 C.ar   78  TYR78       0.1957
    129  OH         3.2050   30.4480   53.4070 O.3    78  TYR78      -0.2866
    130  N         -1.3550   25.4330   53.2570 N.am   79  ASN79      -0.1974
    131  CA        -2.4390   26.3660   53.0660 C.3    79  ASN79       0.1688
    132  C         -3.6570   26.0130   53.8820 C.2    79  ASN79       0.2292
    133  O         -3.9600   24.8430   54.1010 O.2    79  ASN79      -0.2864
    134  CB        -2.8330   26.3580   51.6160 C.3    79  ASN79       0.1181
    135  CG        -1.6850   26.7820   50.6960 C.2    79  ASN79       0.2629
    136  OD1       -1.3540   27.9480   50.6440 O.2    79  ASN79      -0.2716
    137  ND2       -1.0590   25.8290   50.0170 N.am   79  ASN79      -0.0877
    138  N         -5.6480   27.3300   46.9410 N.3    85  TYR85      -0.1241
    139  CA        -4.5930   26.3470   46.8720 C.3    85  TYR85       0.1605
    140  C         -4.9810   24.9840   47.5030 C.2    85  TYR85       0.2264
    141  O         -4.7850   23.9700   46.9130 O.2    85  TYR85      -0.2867
    142  CB        -3.3210   26.9180   47.5190 C.3    85  TYR85       0.0534
    143  CG        -3.0010   28.3410   47.0520 C.ar   85  TYR85      -0.0201
    144  CD1       -2.7320   28.6080   45.7010 C.ar   85  TYR85      -0.0009
    145  CD2       -3.0110   29.4330   47.9440 C.ar   85  TYR85      -0.0009
    146  CE1       -2.4650   29.8810   45.2700 C.ar   85  TYR85       0.0417
    147  CE2       -2.7420   30.7200   47.4930 C.ar   85  TYR85       0.0417
    148  CZ        -2.4960   30.9230   46.1650 C.ar   85  TYR85       0.1957
    149  OH        -2.2130   32.1710   45.6740 O.3    85  TYR85      -0.2866
@<TRIPOS>BOND
     1     4     3    2
     2     5     2    1
     3     5     6    1
     4     2     3    1
     5     2     1    1
     6     3     8   am
     7    59    58   ar
     8    59    57   ar
     9     6     7    1
    10    58    56   ar
    11     1     7    1
    12    57    55   ar
    13     8     9    1
    14    16    14   ar
    15    16    17   ar
    16    14    13   ar
    17     9    10    1
    18     9    12    1
    19    56    54   ar
    20    18    10   am
    21    18    19    1
    22    10    11    2
    23    48    45    1
    24    55    54   ar
    25    19    20    1
    26    17    15   ar
    27    13    12    1
    28    13    15   ar
    29    54    53    1
    30    47    46    2
    31    45    46    1
    32    45    44    1
    33    46    49   am
    34    20    21    2
    35    20    22   am
    36    53    50    1
    37    44    35   am
    38    49    50    1
    39    22    23    1
    40    50    51    1
    41    35    36    2
    42    35    34    1
    43    33    34    1
    44    33    24   am
    45    23    24    1
    46    23    26    1
    47    66    60    1
    48    66    65    1
    49    34    37    1
    50    51    60   am
    51    51    52    2
    52    24    25    2
    53    37    38    1
    54    31    32   ar
    55    31    29   ar
    56    32    30   ar
    57    29    27   ar
    58    30    28   ar
    59    60    61    1
    60    27    28   ar
    61    27    26    1
    62    65    64    1
    63    40    38   ar
    64    40    42   ar
    65    38    39   ar
    66    61    64    1
    67    61    62    1
    68    42    43   ar
    69    63    62    2
    70    39    41   ar
    71    62    67   am
    72    43    41   ar
    73    67    68    1
    74    80    78    1
    75   146   144   ar
    76   146   148   ar
    77    88    86    1
    78   149   148    1
    79   144   143   ar
    80    86    85    1
    81    68    69    1
    82    68    71    1
    83    73    71    1
    84   148   147   ar
    85    79    78    1
    86    85    87    1
    87    85    82    1
    88    78    75    1
    89    74    69   am
    90    74    75    1
    91    69    70    2
    92    71    72    1
    93   139   138    1
    94   139   140    1
    95   139   142    1
    96   141   140    2
    97   143   142    1
    98   143   145   ar
    99    75    76    1
   100   147   145   ar
   101    82    81    1
   102    82    83    1
   103   117   114    1
   104    76    77    2
   105    83    84    2
   106    83    89   am
   107   112   111    1
   108   114   113    1
   109   114   115    1
   110    89    90    1
   111   111   110   ar
   112   111   109   ar
   113   110   108   ar
   114   137   135   am
   115    93    90    1
   116   109   107   ar
   117   108   106   ar
   118    90    91    1
   119   115   116    2
   120   136   135    2
   121   135   134    1
   122   107   106   ar
   123   106   105    1
   124   134   131    1
   125    91    92    2
   126    91    94   am
   127   105   102    1
   128   125   127   ar
   129   125   123   ar
   130   100    94    1
   131   100    99    1
   132   127   128   ar
   133    94    95    1
   134   131   130    1
   135   131   132    1
   136   130   120   am
   137   122   123    1
   138   122   119    1
   139   123   124   ar
   140   102   103    1
   141   102   101    1
   142   129   128    1
   143   128   126   ar
   144    99    98    1
   145   103   104    2
   146    95    98    1
   147    95    96    1
   148   132   133    2
   149   118   119    1
   150   120   119    1
   151   120   121    2
   152   124   126   ar
   153    96    97    2
