@<TRIPOS>MOLECULE
tmp/5igpA00.pdb
 188 179 0 0 0
SMALL
GASTEIGER

@<TRIPOS>ATOM
      1  N         34.0500   46.6510  282.6840 N.3    29  ASN29      -0.1240
      2  CA        35.0260   45.7870  282.0570 C.3    29  ASN29       0.1653
      3  C         35.7980   46.6380  281.0630 C.2    29  ASN29       0.2266
      4  O         35.2620   47.0910  280.0410 O.2    29  ASN29      -0.2867
      5  CB        34.3390   44.6270  281.3450 C.3    29  ASN29       0.1155
      6  CG        35.3140   43.6150  280.8120 C.2    29  ASN29       0.2627
      7  OD1       36.4260   43.9590  280.4170 O.2    29  ASN29      -0.2716
      8  ND2       34.9050   42.3520  280.7920 N.am   29  ASN29      -0.0877
      9  N         38.4150   45.1440  277.1070 N.3    32  GLY32      -0.1210
     10  CA        38.1820   45.1510  275.6760 C.3    32  GLY32       0.1956
     11  C         39.0740   46.1630  274.9770 C.2    32  GLY32       0.2612
     12  O         39.3520   47.2350  275.5120 O.2    32  GLY32      -0.2717
     13  N         39.5290   45.8300  273.7770 N.am   33  LEU33      -0.1965
     14  CA        40.4530   46.7140  273.0790 C.3    33  LEU33       0.1728
     15  C         39.7230   47.8030  272.3130 C.2    33  LEU33       0.2616
     16  O         40.3050   48.8340  271.9910 O.2    33  LEU33      -0.2715
     17  CB        41.3310   45.9280  272.1130 C.3    33  LEU33       0.0311
     18  CG        42.2220   44.8830  272.7720 C.3    33  LEU33       0.0022
     19  CD1       43.1280   44.2920  271.7070 C.3    33  LEU33       0.0001
     20  CD2       43.0370   45.4830  273.9380 C.3    33  LEU33       0.0001
     21  N         38.4510   47.5730  272.0220 N.am   34  ASP34      -0.1957
     22  CA        37.7060   48.5140  271.1940 C.3    34  ASP34       0.1840
     23  C         36.6110   49.2640  271.9570 C.2    34  ASP34       0.2622
     24  O         36.3250   50.4160  271.6380 O.2    34  ASP34      -0.2715
     25  CB        37.1150   47.7920  269.9880 C.3    34  ASP34       0.1450
     26  CG        38.1850   47.3250  269.0030 C.2    34  ASP34       0.3671
     27  OD1       39.3460   47.7980  269.0920 O.co2  34  ASP34      -0.2456
     28  OD2       37.8590   46.4810  268.1410 O.co2  34  ASP34      -0.2456
     29  N         36.0200   48.6070  272.9580 N.am   35  TYR35      -0.1974
     30  CA        34.9310   49.1740  273.7660 C.3    35  TYR35       0.1639
     31  C         35.2010   49.0200  275.2590 C.2    35  TYR35       0.2290
     32  O         35.8110   48.0470  275.6820 O.2    35  TYR35      -0.2864
     33  CB        33.6060   48.4320  273.5190 C.3    35  TYR35       0.0560
     34  CG        33.0230   48.5540  272.1300 C.ar   35  TYR35      -0.0198
     35  CD1       33.4370   47.7140  271.1160 C.ar   35  TYR35      -0.0009
     36  CD2       32.0430   49.4970  271.8470 C.ar   35  TYR35      -0.0009
     37  CE1       32.8980   47.8110  269.8430 C.ar   35  TYR35       0.0417
     38  CE2       31.4970   49.6050  270.5720 C.ar   35  TYR35       0.0417
     39  CZ        31.9340   48.7650  269.5850 C.ar   35  TYR35       0.1957
     40  OH        31.3990   48.8760  268.3270 O.3    35  TYR35      -0.2866
     41  N         32.9950   48.3360  278.5860 N.3    37  ILE37      -0.1245
     42  CA        31.6820   47.7440  278.7760 C.3    37  ILE37       0.1561
     43  C         31.2870   47.9820  280.2000 C.2    37  ILE37       0.2260
     44  O         32.0180   47.6020  281.1210 O.2    37  ILE37      -0.2867
     45  CB        31.6960   46.2480  278.4980 C.3    37  ILE37       0.0252
     46  CG1       32.1990   45.9720  277.0740 C.3    37  ILE37       0.0019
     47  CG2       30.3100   45.6570  278.7230 C.3    37  ILE37       0.0019
     48  CD1       31.2530   46.3600  275.9820 C.3    37  ILE37       0.0001
     49  N         28.0280   47.6020  282.9240 N.3    39  ILE39      -0.1245
     50  CA        26.6610   47.2020  283.2050 C.3    39  ILE39       0.1561
     51  C         26.2060   48.0450  284.3650 C.2    39  ILE39       0.2260
     52  O         26.8100   47.9890  285.4460 O.2    39  ILE39      -0.2867
     53  CB        26.5220   45.6990  283.4910 C.3    39  ILE39       0.0252
     54  CG1       26.9140   44.8870  282.2490 C.3    39  ILE39       0.0019
     55  CG2       25.0880   45.3910  283.9040 C.3    39  ILE39       0.0019
     56  CD1       26.6270   43.4240  282.3520 C.3    39  ILE39       0.0001
     57  N         23.3000   47.6730  279.5340 N.3    49  VAL49      -0.1245
     58  CA        24.6830   47.5310  279.1140 C.3    49  VAL49       0.1561
     59  C         25.0750   48.7860  278.3520 C.2    49  VAL49       0.2260
     60  O         24.3660   49.1900  277.4260 O.2    49  VAL49      -0.2867
     61  CB        24.8500   46.2900  278.1930 C.3    49  VAL49       0.0252
     62  CG1       26.2790   46.1650  277.6930 C.3    49  VAL49       0.0019
     63  CG2       24.4350   45.0210  278.9280 C.3    49  VAL49       0.0019
     64  N         27.9690   50.1650  276.0440 N.3    51  ARG51      -0.1245
     65  CA        29.0380   49.7060  275.1890 C.3    51  ARG51       0.1563
     66  C         29.6680   50.9760  274.6450 C.2    51  ARG51       0.2260
     67  O         29.0810   51.6380  273.8110 O.2    51  ARG51      -0.2867
     68  CB        28.4170   48.8460  274.0920 C.3    51  ARG51       0.0307
     69  CG        29.3520   48.2890  273.0570 C.3    51  ARG51       0.0489
     70  CD        28.5860   47.3280  272.1570 C.3    51  ARG51       0.2205
     71  NE        29.4640   46.6750  271.2000 N.pl3  51  ARG51      -0.0865
     72  CZ        30.1780   45.5860  271.4620 C.cat  51  ARG51       0.5346
     73  NH1       30.1160   45.0160  272.6560 N.pl3  51  ARG51       0.1354
     74  NH2       30.9580   45.0680  270.5260 N.pl3  51  ARG51       0.1354
     75  N         21.8220   49.2710  275.6890 N.3    93  TYR93      -0.1241
     76  CA        20.6590   48.4170  275.5920 C.3    93  TYR93       0.1605
     77  C         20.2920   47.8420  276.9370 C.2    93  TYR93       0.2264
     78  O         21.1510   47.6060  277.7670 O.2    93  TYR93      -0.2867
     79  CB        20.8660   47.2950  274.6020 C.3    93  TYR93       0.0534
     80  CG        22.0940   46.4160  274.7620 C.ar   93  TYR93      -0.0201
     81  CD1       23.2970   46.7700  274.1870 C.ar   93  TYR93      -0.0009
     82  CD2       22.0260   45.2120  275.4440 C.ar   93  TYR93      -0.0009
     83  CE1       24.4080   45.9480  274.2840 C.ar   93  TYR93       0.0417
     84  CE2       23.1300   44.3730  275.5320 C.ar   93  TYR93       0.0417
     85  CZ        24.3080   44.7470  274.9410 C.ar   93  TYR93       0.1957
     86  OH        25.4200   43.9360  275.0380 O.3    93  TYR93      -0.2866
     87  N         19.8760   45.2430  279.5800 N.3    95  MET95      -0.1230
     88  CA        20.6240   44.0040  279.7150 C.3    95  MET95       0.1702
     89  C         19.6870   42.8440  279.4800 C.2    95  MET95       0.2592
     90  O         18.5480   42.8360  279.9600 O.2    95  MET95      -0.2718
     91  CB        21.2570   43.8610  281.1120 C.3    95  MET95       0.0401
     92  CG        22.3070   42.7400  281.1560 C.3    95  MET95       0.0596
     93  SD        22.7520   42.3820  282.8610 S.3    95  MET95      -0.1393
     94  CE        23.7520   40.9230  282.5250 C.3    95  MET95       0.0692
     95  N         20.1560   41.8870  278.6950 N.am   96  LEU96      -0.1966
     96  CA        19.4890   40.6000  278.5770 C.3    96  LEU96       0.1728
     97  C         19.9720   39.7780  279.7680 C.2    96  LEU96       0.2616
     98  O         21.1110   39.3330  279.8290 O.2    96  LEU96      -0.2715
     99  CB        19.8110   39.9490  277.2260 C.3    96  LEU96       0.0311
    100  CG        19.4730   40.8260  276.0240 C.3    96  LEU96       0.0022
    101  CD1       19.9870   40.1730  274.7370 C.3    96  LEU96       0.0001
    102  CD2       18.0010   41.0670  275.9170 C.3    96  LEU96       0.0001
    103  N         19.1160   39.6260  280.7500 N.am   97  GLU97      -0.1963
    104  CA        19.5670   39.1500  282.0520 C.3    97  GLU97       0.1733
    105  C         19.9700   37.6750  282.1250 C.2    97  GLU97       0.2616
    106  O         20.6620   37.2580  283.0660 O.2    97  GLU97      -0.2715
    107  CB        18.5010   39.4760  283.0900 C.3    97  GLU97       0.0429
    108  CG        18.4100   40.9760  283.3880 C.3    97  GLU97       0.1163
    109  CD        17.3050   41.2980  284.3810 C.2    97  GLU97       0.3649
    110  OE1       16.4400   40.4310  284.6160 O.co2  97  GLU97      -0.2457
    111  OE2       17.3010   42.4180  284.9240 O.co2  97  GLU97      -0.2457
    112  N         19.5710   36.8830  281.1430 N.am   98  ASP98      -0.1957
    113  CA        19.9740   35.4920  281.1070 C.3    98  ASP98       0.1840
    114  C         21.4860   35.3770  281.0220 C.2    98  ASP98       0.2623
    115  O         22.1590   36.1700  280.3300 O.2    98  ASP98      -0.2715
    116  CB        19.3480   34.7770  279.9100 C.3    98  ASP98       0.1450
    117  CG        17.8920   34.4000  280.1290 C.2    98  ASP98       0.3671
    118  OD1       17.3550   34.5670  281.2570 O.co2  98  ASP98      -0.2456
    119  OD2       17.2870   33.8980  279.1650 O.co2  98  ASP98      -0.2456
    120  N         22.0330   34.3520  281.6610 N.am   99  SER99      -0.1936
    121  CA        23.4550   34.1440  281.6760 C.3    99  SER99       0.2055
    122  C         23.9880   33.7780  280.2940 C.2    99  SER99       0.2643
    123  O         23.2900   33.1400  279.5350 O.2    99  SER99      -0.2714
    124  CB        23.8230   33.0050  282.6250 C.3    99  SER99       0.2130
    125  OG        25.2170   32.8350  282.6640 O.3    99  SER99      -0.2179
    126  N         25.2330   34.1420  280.0130 N.am  100  THR100     -0.1950
    127  CA        25.9850   33.5360  278.9250 C.3   100  THR100      0.1897
    128  C         26.1810   32.0510  279.2110 C.2   100  THR100      0.2313
    129  O         26.1160   31.6050  280.3800 O.2   100  THR100     -0.2863
    130  CB        27.3480   34.2320  278.7470 C.3   100  THR100      0.1794
    131  OG1       28.0060   34.3780  280.0180 O.3   100  THR100     -0.2208
    132  CG2       27.1230   35.6040  278.1670 C.3   100  THR100      0.0378
    133  N         30.2930   31.7550  269.8760 N.3   201  TYR201     -0.1241
    134  CA        30.7470   30.6860  270.7570 C.3   201  TYR201      0.1605
    135  C         29.9370   30.8060  272.0350 C.2   201  TYR201      0.2264
    136  O         29.1270   31.7320  272.1720 O.2   201  TYR201     -0.2867
    137  CB        32.2540   30.8030  271.0550 C.3   201  TYR201      0.0534
    138  CG        32.6750   31.8670  272.0560 C.ar  201  TYR201     -0.0201
    139  CD1       32.4730   33.2140  271.8020 C.ar  201  TYR201     -0.0009
    140  CD2       33.2800   31.5090  273.2420 C.ar  201  TYR201     -0.0009
    141  CE1       32.8620   34.1790  272.6990 C.ar  201  TYR201      0.0417
    142  CE2       33.6730   32.4610  274.1450 C.ar  201  TYR201      0.0417
    143  CZ        33.4530   33.7850  273.8690 C.ar  201  TYR201      0.1957
    144  OH        33.8610   34.7230  274.7990 O.3   201  TYR201     -0.2866
    145  N         30.4110   31.9510  274.8680 N.3   203  GLY203     -0.1210
    146  CA        30.4780   33.2380  275.5410 C.3   203  GLY203      0.1956
    147  C         29.5550   34.3000  274.9910 C.2   203  GLY203      0.2611
    148  O         29.3530   35.3270  275.6260 O.2   203  GLY203     -0.2717
    149  N         29.0450   34.0790  273.7760 N.am  204  HIS204     -0.1975
    150  CA        28.1240   35.0340  273.1450 C.3   204  HIS204      0.1656
    151  C         26.6970   34.5020  272.9900 C.2   204  HIS204      0.2291
    152  O         25.8660   35.1160  272.3100 O.2   204  HIS204     -0.2864
    153  CB        28.6770   35.4810  271.7820 C.3   204  HIS204      0.0771
    154  CG        29.8630   36.3850  271.8920 C.ar  204  HIS204      0.0820
    155  ND1       30.7690   36.5650  270.8690 N.ar  204  HIS204     -0.2267
    156  CD2       30.2990   37.1510  272.9190 C.ar  204  HIS204      0.1154
    157  CE1       31.6970   37.4260  271.2510 C.ar  204  HIS204      0.1986
    158  NE2       31.4420   37.7850  272.4960 N.ar  204  HIS204     -0.2212
    159  N         23.2610   33.3500  275.0750 N.3   206  LEU206     -0.1245
    160  CA        22.5580   33.4310  276.3580 C.3   206  LEU206      0.1561
    161  C         21.6280   32.2350  276.5130 C.2   206  LEU206      0.2260
    162  O         21.0260   31.7700  275.5330 O.2   206  LEU206     -0.2867
    163  CB        21.7190   34.7070  276.4500 C.3   206  LEU206      0.0270
    164  CG        22.4700   36.0110  276.1950 C.3   206  LEU206      0.0019
    165  CD1       21.6040   37.2490  276.4940 C.3   206  LEU206      0.0001
    166  CD2       23.7670   36.0670  276.9180 C.3   206  LEU206      0.0001
    167  N         24.5250   37.6010  271.7620 N.3   217  ILE217     -0.1231
    168  CA        25.0490   38.9630  271.9020 C.3   217  ILE217      0.1692
    169  C         26.3150   39.1570  271.0460 C.2   217  ILE217      0.2592
    170  O         26.8290   38.2080  270.4530 O.2   217  ILE217     -0.2718
    171  CB        25.3410   39.2840  273.3860 C.3   217  ILE217      0.0266
    172  CG1       26.4490   38.3820  273.9150 C.3   217  ILE217      0.0019
    173  CG2       24.0690   39.1730  274.2030 C.3   217  ILE217      0.0020
    174  CD1       26.8970   38.7180  275.3090 C.3   217  ILE217      0.0001
    175  N         26.7750   40.3970  270.9490 N.am  218  ASP218     -0.1974
    176  CA        28.0440   40.7310  270.3180 C.3   218  ASP218      0.1709
    177  C         28.0170   40.4380  268.8190 C.2   218  ASP218      0.2293
    178  O         28.7460   39.5660  268.3420 O.2   218  ASP218     -0.2864
    179  CB        29.1990   39.9900  271.0000 C.3   218  ASP218      0.1436
    180  CG        29.3330   40.3420  272.4700 C.2   218  ASP218      0.3671
    181  OD1       28.7510   41.3550  272.9030 O.co2 218  ASP218     -0.2456
    182  OD2       30.0190   39.6020  273.1950 O.co2 218  ASP218     -0.2456
    183  N         28.9890   42.3010  266.2380 N.3   220  SER220     -0.1217
    184  CA        29.8540   43.1820  265.4550 C.3   220  SER220      0.1889
    185  C         30.3980   42.5350  264.1830 C.2   220  SER220      0.2288
    186  O         30.6290   43.2300  263.1840 O.2   220  SER220     -0.2866
    187  CB        31.0190   43.6910  266.3050 C.3   220  SER220      0.2089
    188  OG        31.8860   42.6370  266.6910 O.3   220  SER220     -0.2183
@<TRIPOS>BOND
     1   186   185    2
     2   185   184    1
     3   184   183    1
     4   184   187    1
     5   187   188    1
     6    28    26   ar
     7    40    39    1
     8   178   177    2
     9   177   176    1
    10    26    27   ar
    11    26    25    1
    12    39    37   ar
    13    39    38   ar
    14    37    35   ar
    15   133   134    1
    16    25    22    1
    17   176   175    1
    18   176   179    1
    19   170   169    2
    20    74    72    1
    21    38    36   ar
    22   134   137    1
    23   134   135    1
    24   155   157   ar
    25   155   154   ar
    26   175   169   am
    27   179   180    1
    28   169   168    1
    29   137   138    1
    30    35    34   ar
    31    22    23    1
    32    22    21    1
    33    71    72    2
    34    71    70    1
    35   157   158   ar
    36    72    73    1
    37    24    23    2
    38    19    18    1
    39   167   168    1
    40   153   154    1
    41   153   150    1
    42   139   138   ar
    43   139   141   ar
    44    36    34   ar
    45   154   156   ar
    46   168   171    1
    47    23    29   am
    48    16    15    2
    49    21    15   am
    50   135   136    2
    51   138   140   ar
    52    17    18    1
    53    17    14    1
    54    34    33    1
    55    70    69    1
    56   152   151    2
    57    15    14    1
    58   180   181   ar
    59   180   182   ar
    60   158   156   ar
    61   141   143   ar
    62    18    20    1
    63    29    30    1
    64   151   150    1
    65    69    68    1
    66    14    13    1
    67   150   149    1
    68   140   142   ar
    69   171   172    1
    70   171   173    1
    71    33    30    1
    72    30    31    1
    73   149   147   am
    74    13    11   am
    75    67    66    2
    76   143   142   ar
    77   143   144    1
    78   172   174    1
    79    68    65    1
    80    81    83   ar
    81    81    80   ar
    82    83    85   ar
    83    79    80    1
    84    79    76    1
    85    66    65    1
    86   101   100    1
    87    80    82   ar
    88   145   146    1
    89    85    86    1
    90    85    84   ar
    91    11    12    2
    92    11    10    1
    93   147   146    1
    94   147   148    2
    95   159   160    1
    96    65    64    1
    97    31    32    2
    98    82    84   ar
    99   162   161    2
   100    76    75    1
   101    76    77    1
   102    10     9    1
   103   102   100    1
   104    48    46    1
   105   100    99    1
   106   164   163    1
   107   164   165    1
   108   164   166    1
   109   160   163    1
   110   160   161    1
   111    77    78    2
   112    46    45    1
   113    99    96    1
   114    60    59    2
   115    62    61    1
   116   132   130    1
   117    61    63    1
   118    61    58    1
   119    59    58    1
   120    45    47    1
   121    45    42    1
   122    96    95    1
   123    96    97    1
   124    41    42    1
   125    95    89   am
   126   130   127    1
   127   130   131    1
   128    42    43    1
   129   127   128    1
   130   127   126    1
   131    58    57    1
   132   119   117   ar
   133   128   129    2
   134    89    88    1
   135    89    90    2
   136   123   122    2
   137    87    88    1
   138    88    91    1
   139    97    98    2
   140    97   103   am
   141   116   117    1
   142   116   113    1
   143   126   122   am
   144     4     3    2
   145   117   118   ar
   146    43    44    2
   147   122   121    1
   148   115   114    2
   149     7     6    2
   150   103   104    1
   151     8     6   am
   152     6     5    1
   153   114   113    1
   154   114   120   am
   155     3     2    1
   156   113   112    1
   157    91    92    1
   158   112   105   am
   159    92    93    1
   160     5     2    1
   161   120   121    1
   162   121   124    1
   163   104   105    1
   164   104   107    1
   165     2     1    1
   166   105   106    2
   167    54    56    1
   168    54    53    1
   169    94    93    1
   170   124   125    1
   171    49    50    1
   172   107   108    1
   173    50    53    1
   174    50    51    1
   175   108   109    1
   176    53    55    1
   177    51    52    2
   178   109   110   ar
   179   109   111   ar
