@<TRIPOS>MOLECULE
tmp/5igpA01.pdb
 204 194 0 0 0
SMALL
GASTEIGER

@<TRIPOS>ATOM
      1  N         28.7790   30.4270  279.0430 N.3   102  MET102     -0.1245
      2  CA        30.0130   30.2270  279.7420 C.3   102  MET102      0.1570
      3  C         30.1900   31.4290  280.6380 C.2   102  MET102      0.2261
      4  O         29.7980   32.5490  280.3020 O.2   102  MET102     -0.2867
      5  CB        31.1490   30.1040  278.7630 C.3   102  MET102      0.0387
      6  CG        31.3700   31.3420  277.9800 C.3   102  MET102      0.0595
      7  SD        33.0950   31.5100  277.6570 S.3   102  MET102     -0.1393
      8  CE        33.6700   31.7520  279.3350 C.3   102  MET102      0.0692
      9  N         33.0340   33.5190  282.8970 N.3   104  ILE104     -0.1245
     10  CA        34.4650   33.7300  283.1010 C.3   104  ILE104      0.1561
     11  C         34.6900   35.0800  283.7510 C.2   104  ILE104      0.2260
     12  O         34.0370   36.0730  283.3900 O.2   104  ILE104     -0.2867
     13  CB        35.2210   33.6320  281.7480 C.3   104  ILE104      0.0252
     14  CG1       36.7260   33.6230  281.9530 C.3   104  ILE104      0.0019
     15  CG2       34.8190   34.7620  280.8010 C.3   104  ILE104      0.0019
     16  CD1       37.4790   33.0860  280.7470 C.3   104  ILE104      0.0001
     17  N         40.6470   36.5870  283.4090 N.3   108  SER108     -0.1202
     18  CA        40.9970   35.1850  283.5630 C.3   108  SER108      0.2020
     19  C         41.1450   34.4990  282.2210 C.2   108  SER108      0.2619
     20  O         40.4850   34.8690  281.2490 O.2   108  SER108     -0.2717
     21  CB        39.9260   34.4620  284.3840 C.3   108  SER108      0.2103
     22  OG        40.2490   33.0870  284.5320 O.3   108  SER108     -0.2182
     23  N         42.0120   33.4930  282.1660 N.am  109  SER109     -0.1951
     24  CA        42.1550   32.6710  280.9690 C.3   109  SER109      0.1924
     25  C         41.3700   31.3620  281.0870 C.2   109  SER109      0.2314
     26  O         41.3740   30.5450  280.1710 O.2   109  SER109     -0.2863
     27  CB        43.6330   32.3670  280.7190 C.3   109  SER109      0.2116
     28  OG        44.3590   33.5590  280.4640 O.3   109  SER109     -0.2180
     29  N         37.5390   29.7800  282.2050 N.3   111  PRO111     -0.2116
     30  CA        36.1550   29.9740  282.6510 C.3   111  PRO111      0.1372
     31  C         35.8960   29.3560  284.0010 C.2   111  PRO111      0.2244
     32  O         36.5240   28.3480  284.3600 O.2   111  PRO111     -0.2868
     33  CB        35.3270   29.2040  281.6200 C.3   111  PRO111      0.0268
     34  CG        36.2270   29.0120  280.4490 C.3   111  PRO111      0.0207
     35  CD        37.6010   28.9060  281.0220 C.3   111  PRO111      0.0892
     36  N         31.1870   26.2230  281.9440 N.3   114  VAL114     -0.1245
     37  CA        30.6600   26.1770  280.5800 C.3   114  VAL114      0.1561
     38  C         29.4800   25.2160  280.6110 C.2   114  VAL114      0.2260
     39  O         29.5400   24.1830  281.2890 O.2   114  VAL114     -0.2867
     40  CB        31.7230   25.6500  279.6030 C.3   114  VAL114      0.0252
     41  CG1       31.1560   25.5370  278.1910 C.3   114  VAL114      0.0019
     42  CG2       32.9730   26.5470  279.5950 C.3   114  VAL114      0.0019
     43  N         29.2400   35.4720  263.0960 N.3   198  GLY198     -0.1210
     44  CA        30.6220   35.8690  262.8560 C.3   198  GLY198      0.1956
     45  C         31.6020   35.7700  264.0210 C.2   198  GLY198      0.2612
     46  O         32.8230   35.7760  263.8510 O.2   198  GLY198     -0.2717
     47  N         31.0580   35.7330  265.2230 N.am  199  ASP199     -0.1959
     48  CA        31.9000   35.5880  266.4200 C.3   199  ASP199      0.1840
     49  C         31.1870   34.7380  267.4500 C.2   199  ASP199      0.2622
     50  O         31.0910   35.0950  268.6290 O.2   199  ASP199     -0.2715
     51  CB        32.2310   36.9730  266.9530 C.3   199  ASP199      0.1450
     52  CG        33.4220   36.9900  267.9070 C.2   199  ASP199      0.3671
     53  OD1       34.2130   36.0230  267.9420 O.co2 199  ASP199     -0.2456
     54  OD2       33.5350   38.0120  268.6210 O.co2 199  ASP199     -0.2456
     55  N         30.7050   33.5840  267.0110 N.am  200  LEU200     -0.1963
     56  CA        29.7210   32.8210  267.7950 C.3   200  LEU200      0.1728
     57  C         30.4020   31.7040  268.5500 C.2   200  LEU200      0.2616
     58  O         31.0500   30.8430  267.9590 O.2   200  LEU200     -0.2715
     59  CB        28.6370   32.2660  266.8710 C.3   200  LEU200      0.0311
     60  CG        27.4290   31.6600  267.5830 C.3   200  LEU200      0.0022
     61  CD1       26.7920   32.6600  268.5150 C.3   200  LEU200      0.0001
     62  CD2       26.4400   31.1240  266.5210 C.3   200  LEU200      0.0001
     63  N         30.2930   31.7550  269.8760 N.am  201  TYR201     -0.1960
     64  CA        30.7470   30.6860  270.7570 C.3   201  TYR201      0.1771
     65  C         29.9370   30.8060  272.0350 C.2   201  TYR201      0.2619
     66  O         29.1270   31.7320  272.1720 O.2   201  TYR201     -0.2715
     67  CB        32.2540   30.8030  271.0550 C.3   201  TYR201      0.0574
     68  CG        32.6750   31.8670  272.0560 C.ar  201  TYR201     -0.0198
     69  CD1       32.4730   33.2140  271.8020 C.ar  201  TYR201     -0.0009
     70  CD2       33.2800   31.5090  273.2420 C.ar  201  TYR201     -0.0009
     71  CE1       32.8620   34.1790  272.6990 C.ar  201  TYR201      0.0417
     72  CE2       33.6730   32.4610  274.1450 C.ar  201  TYR201      0.0417
     73  CZ        33.4530   33.7850  273.8690 C.ar  201  TYR201      0.1957
     74  OH        33.8610   34.7230  274.7990 O.3   201  TYR201     -0.2866
     75  N         30.1370   29.8700  272.9540 N.am  202  VAL202     -0.1977
     76  CA        29.3530   29.8470  274.1900 C.3   202  VAL202      0.1596
     77  C         29.3340   31.1800  274.9490 C.2   202  VAL202      0.2287
     78  O         28.3330   31.5180  275.5820 O.2   202  VAL202     -0.2864
     79  CB        29.8060   28.7160  275.1440 C.3   202  VAL202      0.0276
     80  CG1       29.2590   27.4050  274.6700 C.3   202  VAL202      0.0022
     81  CG2       31.3370   28.6560  275.2660 C.3   202  VAL202      0.0022
     82  N         29.0450   34.0790  273.7760 N.3   204  HIS204     -0.1241
     83  CA        28.1240   35.0340  273.1450 C.3   204  HIS204      0.1621
     84  C         26.6970   34.5020  272.9900 C.2   204  HIS204      0.2264
     85  O         25.8660   35.1160  272.3100 O.2   204  HIS204     -0.2867
     86  CB        28.6770   35.4810  271.7820 C.3   204  HIS204      0.0745
     87  CG        29.8630   36.3850  271.8920 C.ar  204  HIS204      0.0817
     88  ND1       30.7690   36.5650  270.8690 N.ar  204  HIS204     -0.2268
     89  CD2       30.2990   37.1510  272.9190 C.ar  204  HIS204      0.1154
     90  CE1       31.6970   37.4260  271.2510 C.ar  204  HIS204      0.1986
     91  NE2       31.4420   37.7850  272.4960 N.ar  204  HIS204     -0.2212
     92  N         28.9890   42.3010  266.2380 N.3   220  SER220     -0.1202
     93  CA        29.8540   43.1820  265.4550 C.3   220  SER220      0.2020
     94  C         30.3980   42.5350  264.1830 C.2   220  SER220      0.2618
     95  O         30.6290   43.2300  263.1840 O.2   220  SER220     -0.2717
     96  CB        31.0190   43.6910  266.3050 C.3   220  SER220      0.2103
     97  OG        31.8860   42.6370  266.6910 O.3   220  SER220     -0.2182
     98  N         30.5710   41.2150  264.2010 N.am  221  GLU221     -0.1979
     99  CA        31.1660   40.5020  263.0510 C.3   221  GLU221      0.1602
    100  C         30.1320   39.9130  262.0810 C.2   221  GLU221      0.2287
    101  O         30.4890   39.2090  261.1240 O.2   221  GLU221     -0.2864
    102  CB        32.1120   39.3860  263.5210 C.3   221  GLU221      0.0415
    103  CG        33.2150   39.8540  264.4800 C.3   221  GLU221      0.1163
    104  CD        34.0650   40.9760  263.9340 C.2   221  GLU221      0.3649
    105  OE1       34.5690   40.8390  262.8080 O.co2 221  GLU221     -0.2457
    106  OE2       34.1930   41.9990  264.6400 O.co2 221  GLU221     -0.2457
    107  N         31.5040   29.2690  259.5650 N.3   229  ILE229     -0.1245
    108  CA        32.0990   30.2420  260.4640 C.3   229  ILE229      0.1561
    109  C         31.4550   30.1280  261.8460 C.2   229  ILE229      0.2260
    110  O         32.1390   30.2750  262.8640 O.2   229  ILE229     -0.2867
    111  CB        31.9060   31.6680  259.9130 C.3   229  ILE229      0.0252
    112  CG1       32.8290   31.9080  258.7250 C.3   229  ILE229      0.0019
    113  CG2       32.1010   32.7230  260.9820 C.3   229  ILE229      0.0019
    114  CD1       32.3880   33.0330  257.8090 C.3   229  ILE229      0.0001
    115  N         32.5510   26.5840  264.0450 N.3   232  ALA232     -0.1231
    116  CA        33.9230   26.2500  264.4300 C.3   232  ALA232      0.1694
    117  C         34.1010   26.1920  265.9450 C.2   232  ALA232      0.2591
    118  O         34.7300   25.2790  266.4590 O.2   232  ALA232     -0.2718
    119  CB        34.9140   27.2430  263.7950 C.3   232  ALA232      0.0304
    120  N         33.4950   27.1440  266.6440 N.am  233  ALA233     -0.1980
    121  CA        33.6910   27.2250  268.0800 C.3   233  ALA233      0.1597
    122  C         32.9360   26.1080  268.7810 C.2   233  ALA233      0.2287
    123  O         33.3460   25.7000  269.8670 O.2   233  ALA233     -0.2864
    124  CB        33.2680   28.5850  268.6030 C.3   233  ALA233      0.0319
    125  N         35.2780   23.3260  268.7320 N.3   236  MET236     -0.1230
    126  CA        36.3470   23.5630  269.6990 C.3   236  MET236      0.1702
    127  C         35.9160   23.1910  271.1250 C.2   236  MET236      0.2592
    128  O         36.6870   22.5550  271.8800 O.2   236  MET236     -0.2718
    129  CB        36.7900   25.0270  269.6660 C.3   236  MET236      0.0401
    130  CG        37.9500   25.3810  270.6230 C.3   236  MET236      0.0596
    131  SD        38.7970   26.8830  270.0670 S.3   236  MET236     -0.1393
    132  CE        40.2340   26.1470  269.2760 C.3   236  MET236      0.0692
    133  N         34.6880   23.5450  271.4860 N.am  237  VAL237     -0.1980
    134  CA        34.2350   23.4450  272.8890 C.3   237  VAL237      0.1595
    135  C         33.6280   22.0790  273.2140 C.2   237  VAL237      0.2287
    136  O         33.8540   21.5320  274.3140 O.2   237  VAL237     -0.2864
    137  CB        33.2380   24.5910  273.2270 C.3   237  VAL237      0.0276
    138  CG1       32.5800   24.3870  274.5720 C.3   237  VAL237      0.0022
    139  CG2       33.9590   25.9180  273.2250 C.3   237  VAL237      0.0022
    140  N         37.9980   25.3830  259.1940 N.3   268  ARG268     -0.1231
    141  CA        37.6890   26.7400  259.6370 C.3   268  ARG268      0.1694
    142  C         38.2240   26.9730  261.0450 C.2   268  ARG268      0.2591
    143  O         38.7530   28.0370  261.3500 O.2   268  ARG268     -0.2718
    144  CB        36.1880   26.9420  259.6850 C.3   268  ARG268      0.0321
    145  CG        35.6440   27.5150  258.4490 C.3   268  ARG268      0.0489
    146  CD        35.8020   29.0340  258.4470 C.3   268  ARG268      0.2205
    147  NE        35.3200   29.5330  257.1780 N.pl3 268  ARG268     -0.0865
    148  CZ        35.4900   30.7750  256.7360 C.cat 268  ARG268      0.5346
    149  NH1       36.1020   31.6920  257.4740 N.pl3 268  ARG268      0.1354
    150  NH2       35.0000   31.0790  255.5640 N.pl3 268  ARG268      0.1354
    151  N         38.1090   25.9750  261.8920 N.am  269  LEU269     -0.1980
    152  CA        38.6240   26.1060  263.2530 C.3   269  LEU269      0.1596
    153  C         40.1460   26.2570  263.2190 C.2   269  LEU269      0.2287
    154  O         40.7090   27.1190  263.9030 O.2   269  LEU269     -0.2864
    155  CB        38.2180   24.9120  264.1150 C.3   269  LEU269      0.0297
    156  CG        38.7390   24.9310  265.5500 C.3   269  LEU269      0.0022
    157  CD1       38.2870   26.1910  266.2490 C.3   269  LEU269      0.0001
    158  CD2       38.2280   23.6970  266.2710 C.3   269  LEU269      0.0001
    159  N         41.2720   29.6070  262.6090 N.3   272  GLY272     -0.1225
    160  CA        41.2090   30.5150  263.7340 C.3   272  GLY272      0.1811
    161  C         42.5680   31.0790  264.1260 C.2   272  GLY272      0.2280
    162  O         42.6630   32.1650  264.7030 O.2   272  GLY272     -0.2866
    163  N         42.8970   34.2530  262.1550 N.3   275  THR275     -0.1203
    164  CA        42.0580   35.2820  262.7390 C.3   275  THR275      0.1994
    165  C         42.7030   35.8940  263.9870 C.2   275  THR275      0.2617
    166  O         42.7280   37.1160  264.1590 O.2   275  THR275     -0.2717
    167  CB        40.6820   34.6830  263.0910 C.3   275  THR275      0.1784
    168  OG1       40.1290   34.1020  261.8980 O.3   275  THR275     -0.2211
    169  CG2       39.7260   35.7570  263.6450 C.3   275  THR275      0.0376
    170  N         43.1920   35.0340  264.8570 N.am  276  TYR276     -0.1975
    171  CA        43.8350   35.4970  266.0790 C.3   276  TYR276      0.1639
    172  C         45.0700   36.3350  265.7550 C.2   276  TYR276      0.2290
    173  O         45.2680   37.4100  266.3200 O.2   276  TYR276     -0.2864
    174  CB        44.2210   34.3100  266.9590 C.3   276  TYR276      0.0560
    175  CG        44.7510   34.7140  268.3060 C.ar  276  TYR276     -0.0198
    176  CD1       43.8920   35.0090  269.3510 C.ar  276  TYR276     -0.0009
    177  CD2       46.1120   34.8400  268.5150 C.ar  276  TYR276     -0.0009
    178  CE1       44.3980   35.4150  270.6090 C.ar  276  TYR276      0.0417
    179  CE2       46.6130   35.2240  269.7430 C.ar  276  TYR276      0.0417
    180  CZ        45.7480   35.5070  270.7810 C.ar  276  TYR276      0.1957
    181  OH        46.2710   35.8800  272.0120 O.3   276  TYR276     -0.2866
    182  N         44.0930   39.7440  264.4910 N.3   279  PHE279     -0.1241
    183  CA        43.6070   40.5300  265.6190 C.3   279  PHE279      0.1605
    184  C         44.7780   41.0770  266.4310 C.2   279  PHE279      0.2264
    185  O         44.8320   42.2730  266.7590 O.2   279  PHE279     -0.2867
    186  CB        42.6990   39.6480  266.4710 C.3   279  PHE279      0.0534
    187  CG        42.1570   40.3210  267.6910 C.ar  279  PHE279     -0.0203
    188  CD1       40.9390   40.9750  267.6480 C.ar  279  PHE279     -0.0042
    189  CD2       42.8620   40.2930  268.8690 C.ar  279  PHE279     -0.0042
    190  CE1       40.4260   41.5840  268.7770 C.ar  279  PHE279     -0.0003
    191  CE2       42.3530   40.9070  270.0100 C.ar  279  PHE279     -0.0003
    192  CZ        41.1350   41.5520  269.9540 C.ar  279  PHE279     -0.0000
    193  N         49.3810   39.7600  272.9340 N.3   288  TYR288     -0.1241
    194  CA        48.6180   39.0200  271.9400 C.3   288  TYR288      0.1605
    195  C         49.5600   38.6290  270.8040 C.2   288  TYR288      0.2264
    196  O         49.4830   37.5020  270.3070 O.2   288  TYR288     -0.2867
    197  CB        47.4120   39.8050  271.3920 C.3   288  TYR288      0.0534
    198  CG        46.3170   40.0730  272.4080 C.ar  288  TYR288     -0.0201
    199  CD1       45.3050   39.1500  272.6470 C.ar  288  TYR288     -0.0009
    200  CD2       46.2970   41.2550  273.1100 C.ar  288  TYR288     -0.0009
    201  CE1       44.3130   39.4130  273.5850 C.ar  288  TYR288      0.0417
    202  CE2       45.3260   41.5280  274.0390 C.ar  288  TYR288      0.0417
    203  CZ        44.3390   40.6090  274.2750 C.ar  288  TYR288      0.1957
    204  OH        43.3710   40.8970  275.2060 O.3   288  TYR288     -0.2866
@<TRIPOS>BOND
     1   150   148    1
     2   148   147    2
     3   148   149    1
     4   147   146    1
     5   114   112    1
     6   146   145    1
     7   145   144    1
     8   112   111    1
     9   140   141    1
    10   107   108    1
    11   141   144    1
    12   141   142    1
    13   111   108    1
    14   111   113    1
    15   108   109    1
    16   142   143    2
    17   142   151   am
    18   101   100    2
    19   109   110    2
    20   151   152    1
    21   168   167    1
    22   100    99    1
    23   163   164    1
    24   159   160    1
    25   164   167    1
    26   164   165    1
    27   105   104   ar
    28    44    43    1
    29    44    45    1
    30    99   102    1
    31    99    98    1
    32   167   169    1
    33    95    94    2
    34   153   152    1
    35   153   154    2
    36   152   155    1
    37   102   103    1
    38   160   161    1
    39   119   116    1
    40    46    45    2
    41   104   103    1
    42   104   106   ar
    43   165   166    2
    44   165   170   am
    45    45    47   am
    46   115   116    1
    47   155   156    1
    48   161   162    2
    49    94    98   am
    50    94    93    1
    51   116   117    1
    52   182   183    1
    53   170   171    1
    54    47    48    1
    55    93    92    1
    56    93    96    1
    57   156   157    1
    58   156   158    1
    59   183   184    1
    60   183   186    1
    61   172   171    1
    62   172   173    2
    63   117   118    2
    64   117   120   am
    65   171   174    1
    66    96    97    1
    67    48    51    1
    68    48    49    1
    69   184   185    2
    70   186   187    1
    71    62    60    1
    72   120   121    1
    73    59    60    1
    74    59    56    1
    75    51    52    1
    76   174   175    1
    77    55    49   am
    78    55    56    1
    79    49    50    2
    80    60    61    1
    81   188   187   ar
    82   188   190   ar
    83   187   189   ar
    84    56    57    1
    85    52    53   ar
    86    52    54   ar
    87    58    57    2
    88   121   124    1
    89   121   122    1
    90   175   177   ar
    91   175   176   ar
    92   177   179   ar
    93    57    63   am
    94   125   126    1
    95   190   192   ar
    96   122   123    2
    97   189   191   ar
    98   132   131    1
    99   176   178   ar
   100   129   126    1
   101   129   130    1
   102   126   127    1
   103   179   180   ar
   104    63    64    1
   105   192   191   ar
   106   131   130    1
   107   196   195    2
   108   178   180   ar
   109    64    67    1
   110    64    65    1
   111   180   181    1
   112   195   194    1
   113    88    90   ar
   114    88    87   ar
   115    67    68    1
   116   127   133   am
   117   127   128    2
   118    90    91   ar
   119   197   194    1
   120   197   198    1
   121   133   134    1
   122    86    87    1
   123    86    83    1
   124    69    68   ar
   125    69    71   ar
   126    87    89   ar
   127   194   193    1
   128    65    66    2
   129    65    75   am
   130    68    70   ar
   131    85    84    2
   132   198   199   ar
   133   198   200   ar
   134    91    89   ar
   135   199   201   ar
   136    71    73   ar
   137   134   135    1
   138   134   137    1
   139    75    76    1
   140    84    83    1
   141   200   202   ar
   142    83    82    1
   143   135   136    2
   144   139   137    1
   145   137   138    1
   146    70    72   ar
   147   201   203   ar
   148    73    72   ar
   149    73    74    1
   150   202   203   ar
   151    76    77    1
   152    76    79    1
   153   203   204    1
   154    80    79    1
   155    77    78    2
   156    79    81    1
   157     7     6    1
   158     7     8    1
   159     6     5    1
   160    41    40    1
   161     5     2    1
   162     1     2    1
   163    42    40    1
   164    40    37    1
   165     2     3    1
   166    26    25    2
   167     4     3    2
   168    34    35    1
   169    34    33    1
   170    28    27    1
   171    37    38    1
   172    37    36    1
   173    38    39    2
   174    27    24    1
   175    16    14    1
   176    15    13    1
   177    24    25    1
   178    24    23    1
   179    35    29    1
   180    20    19    2
   181    33    30    1
   182    13    14    1
   183    13    10    1
   184    23    19   am
   185    29    30    1
   186    19    18    1
   187    30    31    1
   188     9    10    1
   189    10    11    1
   190    12    11    2
   191    17    18    1
   192    18    21    1
   193    31    32    2
   194    21    22    1
