@<TRIPOS>MOLECULE
tmp/5igqK00.pdb
 239 228 0 0 0
SMALL
GASTEIGER

@<TRIPOS>ATOM
      1  N        -50.5270  -97.3160  -38.4550 N.3    29  SER29      -0.1217
      2  CA       -51.3700  -97.0290  -37.3030 C.3    29  SER29       0.1889
      3  C        -51.6100  -98.2970  -36.4940 C.2    29  SER29       0.2288
      4  O        -51.9170  -99.3550  -37.0530 O.2    29  SER29      -0.2866
      5  CB       -52.6990  -96.4270  -37.7530 C.3    29  SER29       0.2089
      6  OG       -53.5010  -96.0820  -36.6380 O.3    29  SER29      -0.2183
      7  N        -53.5090  -98.0070  -33.3190 N.3    31  ILE31      -0.1245
      8  CA       -54.3670  -97.5170  -32.2470 C.3    31  ILE31       0.1561
      9  C        -55.1740  -98.6690  -31.6670 C.2    31  ILE31       0.2260
     10  O        -55.8190  -99.4310  -32.3980 O.2    31  ILE31      -0.2867
     11  CB       -55.2800  -96.4000  -32.7730 C.3    31  ILE31       0.0252
     12  CG1      -54.4470  -95.2040  -33.2450 C.3    31  ILE31       0.0019
     13  CG2      -56.2820  -95.9770  -31.7110 C.3    31  ILE31       0.0019
     14  CD1      -55.1600  -94.3190  -34.2460 C.3    31  ILE31       0.0001
     15  N        -58.2890  -99.9910  -29.8900 N.3    33  SER33      -0.1217
     16  CA       -59.6600  -99.5220  -29.7410 C.3    33  SER33       0.1889
     17  C        -60.3890 -100.1430  -28.5570 C.2    33  SER33       0.2288
     18  O        -61.3370  -99.5330  -28.0480 O.2    33  SER33      -0.2866
     19  CB       -60.4580  -99.7980  -31.0200 C.3    33  SER33       0.2089
     20  OG       -60.6640 -101.1870  -31.2080 O.3    33  SER33      -0.2183
     21  N        -56.8760 -101.0970  -34.7640 N.3    49  VAL49      -0.1245
     22  CA       -56.9360 -100.7630  -36.1850 C.3    49  VAL49       0.1561
     23  C        -56.1050 -101.6900  -37.0600 C.2    49  VAL49       0.2260
     24  O        -56.2230 -101.6270  -38.2940 O.2    49  VAL49      -0.2867
     25  CB       -56.4830  -99.3090  -36.4280 C.3    49  VAL49       0.0252
     26  CG1      -57.3820  -98.3400  -35.6760 C.3    49  VAL49       0.0019
     27  CG2      -55.0320  -99.1300  -36.0150 C.3    49  VAL49       0.0019
     28  N        -60.9180 -103.3480  -39.6220 N.3    78  LYS78      -0.1231
     29  CA       -60.4800 -102.7180  -38.3850 C.3    78  LYS78       0.1693
     30  C        -61.5410 -102.8870  -37.3050 C.2    78  LYS78       0.2592
     31  O        -62.7390 -102.7470  -37.5620 O.2    78  LYS78      -0.2718
     32  CB       -60.2020 -101.2350  -38.6250 C.3    78  LYS78       0.0285
     33  CG       -59.3150 -100.9590  -39.8270 C.3    78  LYS78       0.0035
     34  CD       -59.2170  -99.4690  -40.1090 C.3    78  LYS78       0.0206
     35  CE       -58.2110  -99.1760  -41.2100 C.3    78  LYS78       0.1093
     36  NZ       -58.1300  -97.7190  -41.5150 N.3    78  LYS78      -0.1314
     37  N        -61.0940 -103.1780  -36.0890 N.am   79  ILE79      -0.1966
     38  CA       -61.9810 -103.5110  -34.9820 C.3    79  ILE79       0.1727
     39  C        -62.1660 -102.2830  -34.1030 C.2    79  ILE79       0.2616
     40  O        -61.2080 -101.5500  -33.8240 O.2    79  ILE79      -0.2715
     41  CB       -61.4230 -104.6950  -34.1720 C.3    79  ILE79       0.0290
     42  CG1      -61.1730 -105.8860  -35.0960 C.3    79  ILE79       0.0022
     43  CG2      -62.3930 -105.0920  -33.0720 C.3    79  ILE79       0.0023
     44  CD1      -59.9300 -106.6660  -34.7560 C.3    79  ILE79       0.0001
     45  N        -63.4060 -102.0570  -33.6610 N.am   80  SER80      -0.1950
     46  CA       -63.7280 -100.9290  -32.8010 C.3    80  SER80       0.1924
     47  C        -64.0590 -101.3230  -31.3700 C.2    80  SER80       0.2314
     48  O        -63.9310 -100.4820  -30.4750 O.2    80  SER80      -0.2863
     49  CB       -64.9130 -100.1410  -33.3790 C.3    80  SER80       0.2116
     50  OG       -66.0530 -100.9710  -33.5240 O.3    80  SER80      -0.2180
     51  N        -65.4570 -102.2720  -38.6700 N.3    97  TYR97      -0.1241
     52  CA       -65.9300 -101.1530  -39.4760 C.3    97  TYR97       0.1605
     53  C        -66.8750 -101.5870  -40.5900 C.2    97  TYR97       0.2264
     54  O        -67.5450 -100.7330  -41.1800 O.2    97  TYR97      -0.2867
     55  CB       -64.7460 -100.3840  -40.0720 C.3    97  TYR97       0.0534
     56  CG       -64.0580  -99.4460  -39.1020 C.ar   97  TYR97      -0.0201
     57  CD1      -64.2550  -99.5610  -37.7320 C.ar   97  TYR97      -0.0009
     58  CD2      -63.2180  -98.4410  -39.5600 C.ar   97  TYR97      -0.0009
     59  CE1      -63.6320  -98.7000  -36.8440 C.ar   97  TYR97       0.0417
     60  CE2      -62.5890  -97.5790  -38.6830 C.ar   97  TYR97       0.0417
     61  CZ       -62.7990  -97.7110  -37.3270 C.ar   97  TYR97       0.1957
     62  OH       -62.1730  -96.8520  -36.4500 O.3    97  TYR97      -0.2866
     63  N        -70.5120  -98.5640  -40.2680 N.3   121  ARG121     -0.1245
     64  CA       -69.5020  -98.9250  -39.2810 C.3   121  ARG121      0.1563
     65  C        -70.1230  -99.1430  -37.9060 C.2   121  ARG121      0.2260
     66  O        -70.9260  -98.3320  -37.4350 O.2   121  ARG121     -0.2867
     67  CB       -68.4330  -97.8330  -39.2170 C.3   121  ARG121      0.0307
     68  CG       -67.6340  -97.7990  -37.9270 C.3   121  ARG121      0.0489
     69  CD       -66.4580  -96.8410  -38.0400 C.3   121  ARG121      0.2205
     70  NE       -66.8540  -95.5350  -38.5590 N.pl3 121  ARG121     -0.0865
     71  CZ       -65.9990  -94.5670  -38.8710 C.cat 121  ARG121      0.5346
     72  NH1      -66.4440  -93.4090  -39.3390 N.pl3 121  ARG121      0.1354
     73  NH2      -64.6960  -94.7560  -38.7170 N.pl3 121  ARG121      0.1354
     74  N        -69.6550  -99.4130  -33.8750 N.3   123  TRP123     -0.1241
     75  CA       -68.7590  -98.8420  -32.8780 C.3   123  TRP123      0.1605
     76  C        -68.6670  -99.6480  -31.5900 C.2   123  TRP123      0.2264
     77  O        -67.6500  -99.5470  -30.8960 O.2   123  TRP123     -0.2867
     78  CB       -69.1870  -97.4110  -32.5260 C.3   123  TRP123      0.0550
     79  CG       -68.8230  -96.3710  -33.5490 C.ar  123  TRP123      0.0003
     80  CD1      -69.6860  -95.6050  -34.2800 C.ar  123  TRP123      0.0946
     81  CD2      -67.5020  -95.9610  -33.9310 C.ar  123  TRP123      0.0152
     82  NE1      -68.9860  -94.7560  -35.1020 N.ar  123  TRP123     -0.2442
     83  CE2      -67.6440  -94.9540  -34.9070 C.ar  123  TRP123      0.0810
     84  CE3      -66.2150  -96.3530  -33.5480 C.ar  123  TRP123      0.0012
     85  CZ2      -66.5480  -94.3330  -35.5040 C.ar  123  TRP123      0.0191
     86  CZ3      -65.1280  -95.7370  -34.1440 C.ar  123  TRP123      0.0001
     87  CH2      -65.3020  -94.7380  -35.1110 C.ar  123  TRP123      0.0015
     88  N        -73.2550  -96.8760  -36.8920 N.3   140  ASP140     -0.1239
     89  CA       -73.4840  -95.5760  -37.5150 C.3   140  ASP140      0.1674
     90  C        -74.7760  -95.5280  -38.3170 C.2   140  ASP140      0.2266
     91  O        -75.1960  -94.4370  -38.7160 O.2   140  ASP140     -0.2867
     92  CB       -72.3090  -95.2090  -38.4290 C.3   140  ASP140      0.1410
     93  CG       -71.1710  -94.5380  -37.6840 C.2   140  ASP140      0.3668
     94  OD1      -71.3920  -94.0680  -36.5490 O.co2 140  ASP140     -0.2456
     95  OD2      -70.0540  -94.4730  -38.2400 O.co2 140  ASP140     -0.2456
     96  N        -81.9320  -91.6040  -33.2290 N.3   161  LYS161     -0.1231
     97  CA       -82.0540  -90.4450  -34.1040 C.3   161  LYS161      0.1693
     98  C        -80.7960  -90.1880  -34.9220 C.2   161  LYS161      0.2592
     99  O        -80.8730  -89.5100  -35.9520 O.2   161  LYS161     -0.2718
    100  CB       -82.3980  -89.1990  -33.2850 C.3   161  LYS161      0.0285
    101  CG       -83.5750  -89.4370  -32.3880 C.3   161  LYS161      0.0035
    102  CD       -84.1310  -88.1570  -31.8600 C.3   161  LYS161      0.0206
    103  CE       -85.1330  -88.4710  -30.7710 C.3   161  LYS161      0.1093
    104  NZ       -84.4680  -89.3150  -29.6940 N.3   161  LYS161     -0.1314
    105  N        -79.6500  -90.7110  -34.4960 N.am  162  ALA162     -0.1966
    106  CA       -78.3940  -90.4910  -35.2020 C.3   162  ALA162      0.1728
    107  C        -77.4490  -91.6470  -34.8780 C.2   162  ALA162      0.2616
    108  O        -77.8830  -92.6930  -34.3820 O.2   162  ALA162     -0.2715
    109  CB       -77.8020  -89.1210  -34.8340 C.3   162  ALA162      0.0334
    110  N        -76.1600  -91.4510  -35.1500 N.am  163  ASN163     -0.1972
    111  CA       -75.1720  -92.5070  -34.9680 C.3   163  ASN163      0.1688
    112  C        -75.1050  -92.9480  -33.5120 C.2   163  ASN163      0.2292
    113  O        -75.2110  -92.1330  -32.5920 O.2   163  ASN163     -0.2864
    114  CB       -73.7930  -92.0250  -35.4260 C.3   163  ASN163      0.1181
    115  CG       -73.8520  -91.1990  -36.6960 C.2   163  ASN163      0.2629
    116  OD1      -74.4480  -90.1200  -36.7220 O.2   163  ASN163     -0.2716
    117  ND2      -73.2240  -91.6970  -37.7570 N.am  163  ASN163     -0.0877
    118  N        -72.6460  -94.6200  -30.7930 N.3   165  CYS165     -0.1235
    119  CA       -71.2100  -94.7800  -30.6060 C.3   165  CYS165      0.1677
    120  C        -70.8380  -95.7960  -29.5370 C.2   165  CYS165      0.2270
    121  O        -69.7290  -96.3400  -29.5860 O.2   165  CYS165     -0.2867
    122  CB       -70.5710  -93.4320  -30.2490 C.3   165  CYS165      0.0956
    123  SG       -70.9220  -92.1070  -31.4280 S.3   165  CYS165     -0.0801
    124  N        -74.9190  -89.9310  -31.2310 N.3   182  ALA182     -0.1231
    125  CA       -74.3240  -88.7280  -31.7980 C.3   182  ALA182      0.1694
    126  C        -75.1610  -87.4800  -31.5510 C.2   182  ALA182      0.2592
    127  O        -74.7190  -86.3800  -31.8980 O.2   182  ALA182     -0.2718
    128  CB       -74.1020  -88.9070  -33.3000 C.3   182  ALA182      0.0304
    129  N        -76.3480  -87.6210  -30.9640 N.am  183  ASP183     -0.1960
    130  CA       -77.2160  -86.5000  -30.6380 C.3   183  ASP183      0.1840
    131  C        -76.8400  -85.8180  -29.3290 C.2   183  ASP183      0.2622
    132  O        -77.6630  -85.0770  -28.7770 O.2   183  ASP183     -0.2715
    133  CB       -78.6720  -86.9720  -30.5920 C.3   183  ASP183      0.1450
    134  CG       -78.8980  -88.0890  -29.5870 C.2   183  ASP183      0.3671
    135  OD1      -78.0080  -88.3460  -28.7480 O.co2 183  ASP183     -0.2456
    136  OD2      -79.9710  -88.7230  -29.6420 O.co2 183  ASP183     -0.2456
    137  N        -75.6270  -86.0640  -28.8230 N.am  184  HIS184     -0.1973
    138  CA       -75.1170  -85.4770  -27.5910 C.3   184  HIS184      0.1656
    139  C        -75.8570  -85.9520  -26.3490 C.2   184  HIS184      0.2291
    140  O        -75.7220  -85.3480  -25.2770 O.2   184  HIS184     -0.2864
    141  CB       -75.1250  -83.9410  -27.6440 C.3   184  HIS184      0.0771
    142  CG       -74.6130  -83.3700  -28.9320 C.ar  184  HIS184      0.0820
    143  ND1      -73.6610  -84.0090  -29.7020 N.ar  184  HIS184     -0.2267
    144  CD2      -74.8870  -82.2070  -29.5660 C.ar  184  HIS184      0.1154
    145  CE1      -73.3900  -83.2720  -30.7640 C.ar  184  HIS184      0.1986
    146  NE2      -74.1200  -82.1730  -30.7060 N.ar  184  HIS184     -0.2212
    147  N        -71.0120  -82.4150  -27.3520 N.3   206  LYS206     -0.1231
    148  CA       -70.5530  -83.2180  -28.4720 C.3   206  LYS206      0.1693
    149  C        -71.0680  -84.6410  -28.3030 C.2   206  LYS206      0.2591
    150  O        -71.6510  -84.9960  -27.2750 O.2   206  LYS206     -0.2718
    151  CB       -69.0230  -83.2010  -28.5820 C.3   206  LYS206      0.0285
    152  CG       -68.4280  -81.8140  -28.7630 C.3   206  LYS206      0.0035
    153  CD       -68.7820  -81.2320  -30.1220 C.3   206  LYS206      0.0206
    154  CE       -68.5590  -79.7290  -30.1520 C.3   206  LYS206      0.1093
    155  NZ       -67.2330  -79.3490  -29.5890 N.3   206  LYS206     -0.1314
    156  N        -70.8550  -85.4540  -29.3360 N.am  207  ALA207     -0.1980
    157  CA       -71.3900  -86.8100  -29.3460 C.3   207  ALA207      0.1597
    158  C        -70.8320  -87.6300  -28.1900 C.2   207  ALA207      0.2287
    159  O        -69.6590  -87.5090  -27.8260 O.2   207  ALA207     -0.2864
    160  CB       -71.0700  -87.4950  -30.6720 C.3   207  ALA207      0.0319
    161  N        -69.1490  -90.3880  -26.7530 N.3   209  SER209     -0.1202
    162  CA       -68.2510  -91.4450  -27.2020 C.3   209  SER209      0.2020
    163  C        -68.3820  -92.6910  -26.3410 C.2   209  SER209      0.2618
    164  O        -68.4000  -93.8080  -26.8690 O.2   209  SER209     -0.2717
    165  CB       -66.8090  -90.9500  -27.1990 C.3   209  SER209      0.2103
    166  OG       -66.4620  -90.3860  -25.9470 O.3   209  SER209     -0.2182
    167  N        -68.4680  -92.5270  -25.0210 N.am  210  TYR210     -0.1975
    168  CA       -68.5000  -93.6670  -24.1150 C.3   210  TYR210      0.1639
    169  C        -69.6150  -93.5200  -23.0910 C.2   210  TYR210      0.2290
    170  O        -70.0250  -92.4100  -22.7430 O.2   210  TYR210     -0.2864
    171  CB       -67.1600  -93.8500  -23.3990 C.3   210  TYR210      0.0560
    172  CG       -66.0350  -94.2580  -24.3190 C.ar  210  TYR210     -0.0198
    173  CD1      -65.2520  -93.3090  -24.9600 C.ar  210  TYR210     -0.0009
    174  CD2      -65.7510  -95.6000  -24.5360 C.ar  210  TYR210     -0.0009
    175  CE1      -64.2250  -93.6850  -25.7990 C.ar  210  TYR210      0.0417
    176  CE2      -64.7230  -95.9850  -25.3720 C.ar  210  TYR210      0.0417
    177  CZ       -63.9650  -95.0260  -26.0000 C.ar  210  TYR210      0.1957
    178  OH       -62.9410  -95.4140  -26.8300 O.3   210  TYR210     -0.2866
    179  N        -66.6930  -85.8020  -26.4260 N.3   224  THR224     -0.1218
    180  CA       -65.6050  -85.0040  -26.9960 C.3   224  THR224      0.1862
    181  C        -65.7370  -83.5140  -26.7060 C.2   224  THR224      0.2287
    182  O        -65.4090  -82.6780  -27.5520 O.2   224  THR224     -0.2866
    183  CB       -65.5110  -85.2570  -28.4990 C.3   224  THR224      0.1770
    184  OG1      -66.8230  -85.2990  -29.0720 O.3   224  THR224     -0.2211
    185  CG2      -64.7970  -86.5670  -28.7730 C.3   224  THR224      0.0375
    186  N        -61.3250  -83.9980  -27.1130 N.3   248  GLU248     -0.1231
    187  CA       -62.1330  -83.1790  -28.0030 C.3   248  GLU248      0.1699
    188  C        -62.4050  -83.8260  -29.3540 C.2   248  GLU248      0.2592
    189  O        -63.1450  -83.2460  -30.1590 O.2   248  GLU248     -0.2718
    190  CB       -61.4540  -81.8170  -28.2270 C.3   248  GLU248      0.0402
    191  CG       -61.4040  -80.9190  -27.0040 C.3   248  GLU248      0.1161
    192  CD       -62.7550  -80.3140  -26.6650 C.2   248  GLU248      0.3649
    193  OE1      -63.4030  -79.7490  -27.5730 O.co2 248  GLU248     -0.2457
    194  OE2      -63.1670  -80.3950  -25.4880 O.co2 248  GLU248     -0.2457
    195  N        -61.8410  -85.0010  -29.6330 N.am  249  LYS249     -0.1966
    196  CA       -61.9300  -85.5470  -30.9820 C.3   249  LYS249      0.1728
    197  C        -62.0560  -87.0670  -31.0130 C.2   249  LYS249      0.2616
    198  O        -62.9640  -87.6040  -31.6580 O.2   249  LYS249     -0.2715
    199  CB       -60.7070  -85.1120  -31.7970 C.3   249  LYS249      0.0311
    200  CG       -60.5000  -85.8960  -33.0820 C.3   249  LYS249      0.0038
    201  CD       -59.4390  -85.2490  -33.9570 C.3   249  LYS249      0.0206
    202  CE       -58.1550  -85.0010  -33.1790 C.3   249  LYS249      0.1093
    203  NZ       -57.1130  -84.3280  -34.0050 N.3   249  LYS249     -0.1314
    204  N        -61.1640  -87.7700  -30.3240 N.am  250  ASN250     -0.1958
    205  CA       -61.0010  -89.2060  -30.5020 C.3   250  ASN250      0.1819
    206  C        -61.7470  -89.9990  -29.4320 C.2   250  ASN250      0.2621
    207  O        -62.2360  -89.4600  -28.4360 O.2   250  ASN250     -0.2715
    208  CB       -59.5140  -89.5730  -30.4760 C.3   250  ASN250      0.1195
    209  CG       -58.7140  -88.8440  -31.5360 C.2   250  ASN250      0.2630
    210  OD1      -58.0910  -87.8190  -31.2610 O.2   250  ASN250     -0.2716
    211  ND2      -58.7260  -89.3700  -32.7550 N.am  250  ASN250     -0.0877
    212  N        -61.8320  -91.3080  -29.6680 N.am  251  PHE251     -0.1974
    213  CA       -62.2740  -92.2750  -28.6660 C.3   251  PHE251      0.1639
    214  C        -61.0890  -92.5600  -27.7540 C.2   251  PHE251      0.2290
    215  O        -60.1600  -93.2790  -28.1260 O.2   251  PHE251     -0.2864
    216  CB       -62.7790  -93.5530  -29.3270 C.3   251  PHE251      0.0560
    217  CG       -64.1470  -93.4360  -29.9360 C.ar  251  PHE251     -0.0200
    218  CD1      -65.2780  -93.5720  -29.1490 C.ar  251  PHE251     -0.0042
    219  CD2      -64.3060  -93.2190  -31.2960 C.ar  251  PHE251     -0.0042
    220  CE1      -66.5430  -93.4810  -29.7010 C.ar  251  PHE251     -0.0003
    221  CE2      -65.5700  -93.1280  -31.8540 C.ar  251  PHE251     -0.0003
    222  CZ       -66.6890  -93.2570  -31.0560 C.ar  251  PHE251     -0.0000
    223  N        -52.6410  -90.0300  -28.4320 N.3   292  PHE292     -0.1241
    224  CA       -53.7340  -90.0080  -27.4730 C.3   292  PHE292      0.1605
    225  C        -53.9610  -91.4020  -26.9120 C.2   292  PHE292      0.2264
    226  O        -53.9030  -92.3920  -27.6470 O.2   292  PHE292     -0.2867
    227  CB       -55.0330  -89.4820  -28.1090 C.3   292  PHE292      0.0534
    228  CG       -55.5000  -90.2780  -29.3000 C.ar  292  PHE292     -0.0203
    229  CD1      -54.9980  -90.0210  -30.5650 C.ar  292  PHE292     -0.0042
    230  CD2      -56.4490  -91.2800  -29.1540 C.ar  292  PHE292     -0.0042
    231  CE1      -55.4280  -90.7460  -31.6600 C.ar  292  PHE292     -0.0003
    232  CE2      -56.8820  -92.0110  -30.2480 C.ar  292  PHE292     -0.0003
    233  CZ       -56.3690  -91.7420  -31.5030 C.ar  292  PHE292     -0.0000
    234  N        -56.0530  -94.4540  -25.9610 N.3   294  SER294     -0.1217
    235  CA       -57.1390  -94.9340  -26.8030 C.3   294  SER294      0.1889
    236  C        -58.0020  -96.0330  -26.1940 C.2   294  SER294      0.2288
    237  O        -59.0990  -96.2700  -26.7120 O.2   294  SER294     -0.2866
    238  CB       -56.5840  -95.4300  -28.1480 C.3   294  SER294      0.2089
    239  OG       -55.8480  -96.6290  -27.9880 O.3   294  SER294     -0.2183
@<TRIPOS>BOND
     1    36    35    1
     2    35    34    1
     3    54    53    2
     4    53    52    1
     5    63    64    1
     6    34    33    1
     7    55    52    1
     8    55    56    1
     9    33    32    1
    10    28    29    1
    11    58    56   ar
    12    58    60   ar
    13    52    51    1
    14    72    71    1
    15    64    67    1
    16    64    65    1
    17    67    68    1
    18    56    57   ar
    19    71    73    1
    20    71    70    2
    21    91    90    2
    22    60    61   ar
    23    32    29    1
    24    70    69    1
    25     1     2    1
    26    92    93    1
    27    92    89    1
    28    29    30    1
    29    90    89    1
    30    24    23    2
    31    95    93   ar
    32    69    68    1
    33    65    66    2
    34   117   115   am
    35     5     2    1
    36     5     6    1
    37    57    59   ar
    38    93    94   ar
    39    31    30    2
    40    89    88    1
    41    61    59   ar
    42    61    62    1
    43    30    37   am
    44     2     3    1
    45    23    22    1
    46     4     3    2
    47   116   115    2
    48   115   114    1
    49    25    22    1
    50    25    27    1
    51    25    26    1
    52    22    21    1
    53    37    38    1
    54    99    98    2
    55    85    87   ar
    56    85    83   ar
    57   114   111    1
    58   106   107    1
    59   106   109    1
    60   106   105    1
    61   110   111    1
    62   110   107   am
    63    87    86   ar
    64    82    83   ar
    65    82    80   ar
    66    42    44    1
    67    42    41    1
    68    38    41    1
    69    38    39    1
    70   111   112    1
    71    98   105   am
    72    98    97    1
    73    83    81   ar
    74   107   108    2
    75    80    79   ar
    76    14    12    1
    77    41    43    1
    78    86    84   ar
    79    97   100    1
    80    97    96    1
    81    39    40    2
    82    39    45   am
    83   203   202    1
    84   201   202    1
    85   201   200    1
    86    81    79   ar
    87    81    84   ar
    88    74    75    1
    89    45    46    1
    90    79    78    1
    91    50    49    1
    92   112   113    2
    93    49    46    1
    94     7     8    1
    95   128   125    1
    96   100   101    1
    97    12    11    1
    98   200   199    1
    99    75    78    1
   100    75    76    1
   101    46    47    1
   102    11     8    1
   103    11    13    1
   104   211   209   am
   105    10     9    2
   106   101   102    1
   107     8     9    1
   108   127   126    2
   109   102   103    1
   110   221   219   ar
   111   221   222   ar
   112   125   126    1
   113   125   124    1
   114   199   196    1
   115   231   233   ar
   116   231   229   ar
   117   198   197    2
   118    76    77    2
   119   126   129   am
   120   209   210    2
   121   209   208    1
   122   233   232   ar
   123   123   122    1
   124    47    48    2
   125   219   217   ar
   126    20    19    1
   127   222   220   ar
   128    19    16    1
   129   197   196    1
   130   197   204   am
   131   196   195    1
   132   129   130    1
   133   118   119    1
   134   103   104    1
   135   145   146   ar
   136   145   143   ar
   137   146   144   ar
   138   160   157    1
   139   130   133    1
   140   130   131    1
   141   119   122    1
   142   119   120    1
   143   133   134    1
   144   229   228   ar
   145   205   208    1
   146   205   204    1
   147   205   206    1
   148   232   230   ar
   149   189   188    2
   150   154   153    1
   151   154   155    1
   152   153   152    1
   153   217   216    1
   154   217   218   ar
   155    15    16    1
   156    16    17    1
   157   143   142   ar
   158   220   218   ar
   159   212   206   am
   160   212   213    1
   161   136   134   ar
   162   195   188   am
   163   134   135   ar
   164   121   120    2
   165   144   142   ar
   166   206   207    2
   167   188   187    1
   168   157   156    1
   169   157   158    1
   170   156   149   am
   171   131   137   am
   172   131   132    2
   173   216   213    1
   174   228   230   ar
   175   228   227    1
   176   184   183    1
   177   142   141    1
   178   137   138    1
   179   185   183    1
   180   152   151    1
   181   213   214    1
   182   151   148    1
   183    17    18    2
   184   183   180    1
   185   148   149    1
   186   148   147    1
   187   223   224    1
   188   149   150    2
   189   190   187    1
   190   190   191    1
   191   158   159    2
   192   238   239    1
   193   238   235    1
   194   215   214    2
   195   227   224    1
   196   187   186    1
   197   226   225    2
   198   141   138    1
   199   138   139    1
   200   193   192   ar
   201   182   181    2
   202   224   225    1
   203   162   165    1
   204   162   161    1
   205   162   163    1
   206   165   166    1
   207   191   192    1
   208   180   181    1
   209   180   179    1
   210   164   163    2
   211   178   177    1
   212   235   236    1
   213   235   234    1
   214   237   236    2
   215   192   194   ar
   216   139   140    2
   217   163   167   am
   218   177   175   ar
   219   177   176   ar
   220   175   173   ar
   221   176   174   ar
   222   167   168    1
   223   173   172   ar
   224   174   172   ar
   225   172   171    1
   226   168   171    1
   227   168   169    1
   228   169   170    2
