@<TRIPOS>MOLECULE
tmp/5igqA00.pdb
 237 227 0 0 0
SMALL
GASTEIGER

@<TRIPOS>ATOM
      1  N        -24.6840  -52.5830   22.7660 N.3    29  SER29      -0.1217
      2  CA       -25.0790  -53.3930   23.9090 C.3    29  SER29       0.1889
      3  C        -23.8890  -53.6290   24.8290 C.2    29  SER29       0.2288
      4  O        -22.7870  -53.9500   24.3740 O.2    29  SER29      -0.2866
      5  CB       -25.6600  -54.7250   23.4350 C.3    29  SER29       0.2089
      6  OG       -26.2200  -55.4500   24.5150 O.3    29  SER29      -0.2183
      7  N        -24.3800  -55.4620   28.0360 N.3    31  ILE31      -0.1231
      8  CA       -24.9750  -56.2710   29.0930 C.3    31  ILE31       0.1692
      9  C        -23.8920  -57.0980   29.7700 C.2    31  ILE31       0.2592
     10  O        -23.0380  -57.6990   29.1050 O.2    31  ILE31      -0.2718
     11  CB       -26.0860  -57.1620   28.5200 C.3    31  ILE31       0.0266
     12  CG1      -27.1460  -56.3060   27.8250 C.3    31  ILE31       0.0019
     13  CG2      -26.7100  -58.0160   29.6100 C.3    31  ILE31       0.0020
     14  CD1      -28.0090  -57.0780   26.8430 C.3    31  ILE31       0.0001
     15  N        -23.9180  -57.1290   31.1000 N.am   32  VAL32      -0.1966
     16  CA       -22.9220  -57.8530   31.8830 C.3    32  VAL32       0.1727
     17  C        -23.4800  -59.2370   32.1900 C.2    32  VAL32       0.2616
     18  O        -24.4850  -59.3730   32.8920 O.2    32  VAL32      -0.2715
     19  CB       -22.5580  -57.1010   33.1670 C.3    32  VAL32       0.0290
     20  CG1      -21.7350  -57.9920   34.0860 C.3    32  VAL32       0.0023
     21  CG2      -21.8030  -55.8350   32.8310 C.3    32  VAL32       0.0023
     22  N        -22.8250  -60.2720   31.6660 N.am   33  SER33      -0.1950
     23  CA       -23.3580  -61.6180   31.8230 C.3    33  SER33       0.1924
     24  C        -22.8900  -62.2750   33.1160 C.2    33  SER33       0.2314
     25  O        -23.6380  -63.0590   33.7110 O.2    33  SER33      -0.2863
     26  CB       -22.9630  -62.4860   30.6220 C.3    33  SER33       0.2116
     27  OG       -21.5680  -62.7350   30.6080 O.3    33  SER33      -0.2180
     28  N        -21.2830  -58.9350   26.8500 N.3    49  VAL49      -0.1245
     29  CA       -21.4910  -59.0320   25.4090 C.3    49  VAL49       0.1561
     30  C        -20.4280  -58.3060   24.5900 C.2    49  VAL49       0.2260
     31  O        -20.3020  -58.5710   23.3860 O.2    49  VAL49      -0.2867
     32  CB       -22.8830  -58.4960   25.0260 C.3    49  VAL49       0.0252
     33  CG1      -23.9700  -59.3510   25.6590 C.3    49  VAL49       0.0019
     34  CG2      -23.0270  -57.0450   25.4500 C.3    49  VAL49       0.0019
     35  N        -18.7330  -63.1570   22.2230 N.3    78  LYS78      -0.1231
     36  CA       -19.4430  -62.6970   23.4070 C.3    78  LYS78       0.1693
     37  C        -19.3990  -63.7600   24.4970 C.2    78  LYS78       0.2592
     38  O        -19.5430  -64.9550   24.2280 O.2    78  LYS78      -0.2718
     39  CB       -20.8900  -62.3630   23.0490 C.3    78  LYS78       0.0285
     40  CG       -21.0200  -61.4370   21.8530 C.3    78  LYS78       0.0035
     41  CD       -22.4630  -61.3000   21.4050 C.3    78  LYS78       0.0206
     42  CE       -22.5880  -60.3150   20.2540 C.3    78  LYS78       0.1093
     43  NZ       -23.9910  -60.1940   19.7700 N.3    78  LYS78      -0.1314
     44  N        -19.2110  -63.3170   25.7350 N.am   79  ILE79      -0.1966
     45  CA       -18.9730  -64.2040   26.8680 C.3    79  ILE79       0.1727
     46  C        -20.2520  -64.3410   27.6800 C.2    79  ILE79       0.2616
     47  O        -20.9740  -63.3600   27.9020 O.2    79  ILE79      -0.2715
     48  CB       -17.8140  -63.6760   27.7330 C.3    79  ILE79       0.0290
     49  CG1      -16.5480  -63.5610   26.8860 C.3    79  ILE79       0.0022
     50  CG2      -17.5640  -64.5950   28.9160 C.3    79  ILE79       0.0023
     51  CD1      -15.6460  -62.4290   27.2940 C.3    79  ILE79       0.0001
     52  N        -20.5340  -65.5660   28.1310 N.am   80  SER80      -0.1950
     53  CA       -21.7340  -65.8550   28.9020 C.3    80  SER80       0.1924
     54  C        -21.4750  -66.1250   30.3770 C.2    80  SER80       0.2314
     55  O        -22.3900  -65.9390   31.1860 O.2    80  SER80      -0.2863
     56  CB       -22.4720  -67.0620   28.3030 C.3    80  SER80       0.2116
     57  OG       -21.5980  -68.1650   28.1370 O.3    80  SER80      -0.2180
     58  N        -20.0460  -67.6840   23.2030 N.3    97  TYR97      -0.1241
     59  CA       -21.1160  -68.1320   22.3180 C.3    97  TYR97       0.1605
     60  C        -20.6280  -69.1100   21.2560 C.2    97  TYR97       0.2264
     61  O        -21.4510  -69.8050   20.6500 O.2    97  TYR97      -0.2867
     62  CB       -21.7880  -66.9300   21.6470 C.3    97  TYR97       0.0534
     63  CG       -22.7410  -66.1580   22.5410 C.ar   97  TYR97      -0.0201
     64  CD1      -22.6730  -66.2630   23.9250 C.ar   97  TYR97      -0.0009
     65  CD2      -23.7130  -65.3270   21.9970 C.ar   97  TYR97      -0.0009
     66  CE1      -23.5400  -65.5620   24.7410 C.ar   97  TYR97       0.0417
     67  CE2      -24.5860  -64.6200   22.8070 C.ar   97  TYR97       0.0417
     68  CZ       -24.4940  -64.7420   24.1780 C.ar   97  TYR97       0.1957
     69  OH       -25.3570  -64.0440   24.9920 O.3    97  TYR97      -0.2866
     70  N        -23.8020  -72.6600   21.3130 N.3   121  ARG121     -0.1245
     71  CA       -23.5090  -71.6410   22.3130 C.3   121  ARG121      0.1563
     72  C        -23.3670  -72.2540   23.7010 C.2   121  ARG121      0.2260
     73  O        -24.1910  -73.0710   24.1230 O.2   121  ARG121     -0.2867
     74  CB       -24.6110  -70.5790   22.3100 C.3   121  ARG121      0.0307
     75  CG       -24.7290  -69.7910   23.6050 C.3   121  ARG121      0.0489
     76  CD       -25.5910  -68.5530   23.4200 C.3   121  ARG121      0.2205
     77  NE       -26.8850  -68.8650   22.8210 N.pl3 121  ARG121     -0.0865
     78  CZ       -27.8000  -67.9540   22.5060 C.cat 121  ARG121      0.5346
     79  NH1      -28.9530  -68.3260   21.9670 N.pl3 121  ARG121      0.1354
     80  NH2      -27.5650  -66.6690   22.7320 N.pl3 121  ARG121      0.1354
     81  N        -23.3650  -71.7080   27.7350 N.3   123  TRP123     -0.1241
     82  CA       -24.0000  -70.8080   28.6890 C.3   123  TRP123      0.1605
     83  C        -23.2840  -70.7200   30.0290 C.2   123  TRP123      0.2264
     84  O        -23.3880  -69.6860   30.6970 O.2   123  TRP123     -0.2867
     85  CB       -25.4530  -71.2320   28.9440 C.3   123  TRP123      0.0550
     86  CG       -26.4250  -70.8650   27.8560 C.ar  123  TRP123      0.0003
     87  CD1      -27.1630  -71.7260   27.0960 C.ar  123  TRP123      0.0946
     88  CD2      -26.7850  -69.5440   27.4280 C.ar  123  TRP123      0.0152
     89  NE1      -27.9490  -71.0270   26.2130 N.ar  123  TRP123     -0.2442
     90  CE2      -27.7370  -69.6850   26.3960 C.ar  123  TRP123      0.0810
     91  CE3      -26.3910  -68.2570   27.8100 C.ar  123  TRP123      0.0012
     92  CZ2      -28.3010  -68.5900   25.7450 C.ar  123  TRP123      0.0191
     93  CZ3      -26.9500  -67.1710   27.1610 C.ar  123  TRP123      0.0001
     94  CH2      -27.8960  -67.3450   26.1390 C.ar  123  TRP123      0.0015
     95  N        -25.7960  -75.2560   24.6610 N.3   140  ASP140     -0.1239
     96  CA       -27.0560  -75.4160   23.9410 C.3   140  ASP140      0.1674
     97  C        -27.1160  -76.7010   23.1310 C.2   140  ASP140      0.2266
     98  O        -28.1670  -76.9940   22.5530 O.2   140  ASP140     -0.2867
     99  CB       -27.2910  -74.2200   23.0120 C.3   140  ASP140      0.1410
    100  CG       -27.9730  -73.0580   23.7100 C.2   140  ASP140      0.3668
    101  OD1      -28.6030  -73.2810   24.7650 O.co2 140  ASP140     -0.2456
    102  OD2      -27.8860  -71.9220   23.1980 O.co2 140  ASP140     -0.2456
    103  N        -31.6540  -83.7440   27.8440 N.3   161  LYS161     -0.1231
    104  CA       -32.7740  -83.8160   26.9160 C.3   161  LYS161      0.1693
    105  C        -33.0410  -82.5040   26.1910 C.2   161  LYS161      0.2592
    106  O        -33.7810  -82.5040   25.2020 O.2   161  LYS161     -0.2718
    107  CB       -34.0460  -84.2530   27.6520 C.3   161  LYS161      0.0285
    108  CG       -33.9340  -85.5390   28.4760 C.3   161  LYS161      0.0035
    109  CD       -33.6760  -86.7670   27.6260 C.3   161  LYS161      0.0206
    110  CE       -33.5710  -88.0040   28.4850 C.3   161  LYS161      0.1093
    111  NZ       -32.4480  -87.9160   29.4600 N.3   161  LYS161     -0.1314
    112  N        -32.4630  -81.3980   26.6480 N.am  162  ALA162     -0.1966
    113  CA       -32.6740  -80.0980   26.0230 C.3   162  ALA162      0.1728
    114  C        -31.4830  -79.2060   26.3620 C.2   162  ALA162      0.2616
    115  O        -30.4630  -79.6750   26.8770 O.2   162  ALA162     -0.2715
    116  CB       -34.0050  -79.4860   26.4710 C.3   162  ALA162      0.0334
    117  N        -31.6200  -77.9110   26.0760 N.am  163  ASN163     -0.1972
    118  CA       -30.5230  -76.9720   26.2740 C.3   163  ASN163      0.1688
    119  C        -30.1180  -76.9030   27.7410 C.2   163  ASN163      0.2292
    120  O        -30.9630  -76.9370   28.6390 O.2   163  ASN163     -0.2864
    121  CB       -30.9240  -75.5800   25.7840 C.3   163  ASN163      0.1181
    122  CG       -31.7050  -75.6170   24.4850 C.2   163  ASN163      0.2629
    123  OD1      -32.8040  -76.1710   24.4230 O.2   163  ASN163     -0.2716
    124  ND2      -31.1470  -75.0090   23.4420 N.am  163  ASN163     -0.0877
    125  N        -28.4910  -74.5220   30.5120 N.3   165  CYS165     -0.1235
    126  CA       -28.3470  -73.0880   30.7040 C.3   165  CYS165      0.1677
    127  C        -27.4510  -72.7030   31.8720 C.2   165  CYS165      0.2270
    128  O        -26.9680  -71.5670   31.9040 O.2   165  CYS165     -0.2867
    129  CB       -29.7240  -72.4380   30.9050 C.3   165  CYS165      0.0956
    130  SG       -30.9410  -72.8650   29.6350 S.3   165  CYS165     -0.0801
    131  N        -33.3100  -76.6800   29.7130 N.3   182  ALA182     -0.1231
    132  CA       -34.4320  -76.0350   29.0440 C.3   182  ALA182      0.1694
    133  C        -35.7420  -76.7780   29.2640 C.2   182  ALA182      0.2592
    134  O        -36.8100  -76.2110   29.0120 O.2   182  ALA182     -0.2718
    135  CB       -34.1530  -75.9070   27.5470 C.3   182  ALA182      0.0304
    136  N        -35.6870  -78.0220   29.7380 N.am  183  ASP183     -0.1960
    137  CA       -36.8780  -78.8170   30.0060 C.3   183  ASP183      0.1840
    138  C        -37.5790  -78.4280   31.3090 C.2   183  ASP183      0.2622
    139  O        -38.3230  -79.2480   31.8600 O.2   183  ASP183     -0.2715
    140  CB       -36.5180  -80.3070   30.0190 C.3   183  ASP183      0.1450
    141  CG       -35.4560  -80.6540   31.0520 C.2   183  ASP183      0.3671
    142  OD1      -35.2620  -79.8840   32.0160 O.co2 183  ASP183     -0.2456
    143  OD2      -34.8070  -81.7090   30.8980 O.co2 183  ASP183     -0.2456
    144  N        -37.3300  -77.2170   31.8100 N.am  184  HIS184     -0.1973
    145  CA       -37.9950  -76.6370   32.9750 C.3   184  HIS184      0.1656
    146  C        -37.6340  -77.3430   34.2770 C.2   184  HIS184      0.2291
    147  O        -38.3280  -77.1670   35.2840 O.2   184  HIS184     -0.2864
    148  CB       -39.5210  -76.6390   32.8030 C.3   184  HIS184      0.0771
    149  CG       -39.9850  -76.0980   31.4840 C.ar  184  HIS184      0.0820
    150  ND1      -39.1980  -75.2970   30.6850 N.ar  184  HIS184     -0.2267
    151  CD2      -41.1570  -76.2510   30.8230 C.ar  184  HIS184      0.1154
    152  CE1      -39.8650  -74.9780   29.5890 C.ar  184  HIS184      0.1986
    153  NE2      -41.0570  -75.5430   29.6500 N.ar  184  HIS184     -0.2212
    154  N        -40.9670  -72.5820   32.8180 N.3   206  LYS206     -0.1231
    155  CA       -40.0420  -72.1690   31.7770 C.3   206  LYS206      0.1693
    156  C        -38.6510  -72.7040   32.0970 C.2   206  LYS206      0.2591
    157  O        -38.4130  -73.2900   33.1570 O.2   206  LYS206     -0.2718
    158  CB       -40.0140  -70.6430   31.6300 C.3   206  LYS206      0.0285
    159  CG       -41.3480  -70.0250   31.2480 C.3   206  LYS206      0.0035
    160  CD       -41.6600  -70.2560   29.7780 C.3   206  LYS206      0.0206
    161  CE       -43.0680  -69.7970   29.4360 C.3   206  LYS206      0.1093
    162  NZ       -43.3650  -68.4600   30.0180 N.3   206  LYS206     -0.1314
    163  N        -37.7350  -72.5020   31.1530 N.am  207  ALA207     -0.1980
    164  CA       -36.3830  -73.0300   31.2820 C.3   207  ALA207      0.1597
    165  C        -35.7020  -72.4920   32.5340 C.2   207  ALA207      0.2287
    166  O        -35.8210  -71.3100   32.8680 O.2   207  ALA207     -0.2864
    167  CB       -35.5600  -72.6740   30.0430 C.3   207  ALA207      0.0319
    168  N        -33.0580  -70.9040   34.1810 N.3   209  SER209     -0.1202
    169  CA       -31.9390  -70.0690   33.7600 C.3   209  SER209      0.2020
    170  C        -30.7580  -70.1810   34.7150 C.2   209  SER209      0.2618
    171  O        -29.6060  -70.2420   34.2710 O.2   209  SER209     -0.2717
    172  CB       -32.3870  -68.6140   33.6320 C.3   209  SER209      0.2103
    173  OG       -32.8930  -68.1270   34.8620 O.3   209  SER209     -0.2182
    174  N        -31.0140  -70.2160   36.0220 N.am  210  TYR210     -0.1975
    175  CA       -29.9440  -70.2360   37.0100 C.3   210  TYR210      0.1639
    176  C        -30.1650  -71.3350   38.0390 C.2   210  TYR210      0.2290
    177  O        -31.2890  -71.7820   38.2800 O.2   210  TYR210     -0.2864
    178  CB       -29.8070  -68.8850   37.7170 C.3   210  TYR210      0.0560
    179  CG       -29.2720  -67.7840   36.8340 C.ar  210  TYR210     -0.0198
    180  CD1      -30.1280  -66.9550   36.1250 C.ar  210  TYR210     -0.0009
    181  CD2      -27.9040  -67.5670   36.7230 C.ar  210  TYR210     -0.0009
    182  CE1      -29.6380  -65.9490   35.3210 C.ar  210  TYR210      0.0417
    183  CE2      -27.4050  -66.5610   35.9240 C.ar  210  TYR210      0.0417
    184  CZ       -28.2740  -65.7560   35.2250 C.ar  210  TYR210      0.1957
    185  OH       -27.7710  -64.7540   34.4320 O.3   210  TYR210     -0.2866
    186  N        -37.5300  -68.3850   34.0120 N.3   224  THR224     -0.1218
    187  CA       -38.2280  -67.2760   33.3720 C.3   224  THR224      0.1862
    188  C        -39.7390  -67.3840   33.5440 C.2   224  THR224      0.2287
    189  O        -40.4970  -67.2080   32.5850 O.2   224  THR224     -0.2866
    190  CB       -37.8660  -67.1910   31.8840 C.3   224  THR224      0.1770
    191  OG1      -37.8020  -68.5080   31.3230 O.3   224  THR224     -0.2211
    192  CG2      -36.5240  -66.5030   31.7010 C.3   224  THR224      0.0375
    193  N        -37.9180  -63.4180   30.8850 N.3   249  LYS249     -0.1231
    194  CA       -37.2450  -63.4820   29.5930 C.3   249  LYS249      0.1693
    195  C        -35.7310  -63.6560   29.6920 C.2   249  LYS249      0.2592
    196  O        -35.1660  -64.5290   29.0270 O.2   249  LYS249     -0.2718
    197  CB       -37.5670  -62.2250   28.7810 C.3   249  LYS249      0.0285
    198  CG       -36.8380  -62.1410   27.4510 C.3   249  LYS249      0.0035
    199  CD       -37.4660  -61.0980   26.5440 C.3   249  LYS249      0.0206
    200  CE       -37.5510  -59.7450   27.2310 C.3   249  LYS249      0.1093
    201  NZ       -38.1130  -58.7020   26.3280 N.3   249  LYS249     -0.1314
    202  N        -35.0650  -62.8440   30.5060 N.am  250  ASN250     -0.1960
    203  CA       -33.6180  -62.7110   30.4390 C.3   250  ASN250      0.1819
    204  C        -32.9120  -63.4620   31.5610 C.2   250  ASN250      0.2621
    205  O        -33.4910  -63.7790   32.6040 O.2   250  ASN250     -0.2715
    206  CB       -33.2130  -61.2360   30.4920 C.3   250  ASN250      0.1195
    207  CG       -33.7060  -60.4530   29.2910 C.2   250  ASN250      0.2630
    208  OD1      -34.7700  -59.8350   29.3320 O.2   250  ASN250     -0.2716
    209  ND2      -32.9360  -60.4810   28.2090 N.am  250  ASN250     -0.0877
    210  N        -31.6290  -63.7390   31.3240 N.am  251  PHE251     -0.1974
    211  CA       -30.7040  -64.1450   32.3760 C.3   251  PHE251      0.1639
    212  C        -30.4500  -62.9680   33.3060 C.2   251  PHE251      0.2290
    213  O        -29.5880  -62.1300   33.0250 O.2   251  PHE251     -0.2864
    214  CB       -29.3860  -64.6360   31.7780 C.3   251  PHE251      0.0560
    215  CG       -29.4480  -66.0230   31.2020 C.ar  251  PHE251     -0.0200
    216  CD1      -29.3020  -67.1310   32.0230 C.ar  251  PHE251     -0.0042
    217  CD2      -29.6320  -66.2220   29.8440 C.ar  251  PHE251     -0.0042
    218  CE1      -29.3480  -68.4100   31.5000 C.ar  251  PHE251     -0.0003
    219  CE2      -29.6780  -67.4950   29.3180 C.ar  251  PHE251     -0.0003
    220  CZ       -29.5360  -68.5900   30.1430 C.ar  251  PHE251     -0.0000
    221  N        -32.7370  -54.4360   32.3300 N.3   292  PHE292     -0.1241
    222  CA       -32.8360  -55.5140   33.3000 C.3   292  PHE292      0.1605
    223  C        -31.4880  -55.7320   33.9660 C.2   292  PHE292      0.2264
    224  O        -30.4440  -55.6680   33.3100 O.2   292  PHE292     -0.2867
    225  CB       -33.3100  -56.8220   32.6410 C.3   292  PHE292      0.0534
    226  CG       -32.4170  -57.3090   31.5290 C.ar  292  PHE292     -0.0203
    227  CD1      -32.6080  -56.8780   30.2270 C.ar  292  PHE292     -0.0042
    228  CD2      -31.3990  -58.2160   31.7860 C.ar  292  PHE292     -0.0042
    229  CE1      -31.7950  -57.3290   29.2050 C.ar  292  PHE292     -0.0003
    230  CE2      -30.5810  -58.6700   30.7650 C.ar  292  PHE292     -0.0003
    231  CZ       -30.7820  -58.2250   29.4730 C.ar  292  PHE292     -0.0000
    232  N        -28.5940  -57.9430   35.1340 N.3   294  SER294     -0.1217
    233  CA       -28.0990  -59.0790   34.3680 C.3   294  SER294      0.1889
    234  C        -27.1010  -59.9660   35.1000 C.2   294  SER294      0.2288
    235  O        -26.9290  -61.1200   34.6870 O.2   294  SER294     -0.2866
    236  CB       -27.4630  -58.5950   33.0560 C.3   294  SER294      0.2089
    237  OG       -26.5530  -57.5350   33.2890 O.3   294  SER294     -0.2183
@<TRIPOS>BOND
     1    43    42    1
     2    42    41    1
     3    61    60    2
     4    60    59    1
     5    70    71    1
     6    41    40    1
     7    62    59    1
     8    62    63    1
     9    40    39    1
    10    79    78    1
    11    65    63   ar
    12    65    67   ar
    13    35    36    1
    14    74    71    1
    15    74    75    1
    16    71    72    1
    17    59    58    1
    18    78    80    1
    19    78    77    2
    20    63    64   ar
    21    98    97    2
    22     1     2    1
    23    67    68   ar
    24    77    76    1
    25    99   100    1
    26    99    96    1
    27    39    36    1
    28    97    96    1
    29   102   100   ar
    30    31    30    2
    31    36    37    1
    32    76    75    1
    33     5     2    1
    34     5     6    1
    35   124   122   am
    36    72    73    2
    37   100   101   ar
    38     2     3    1
    39    64    66   ar
    40    96    95    1
    41    68    66   ar
    42    68    69    1
    43    38    37    2
    44     4     3    2
    45   123   122    2
    46   122   121    1
    47    37    44   am
    48    30    29    1
    49    32    29    1
    50    32    34    1
    51    32    33    1
    52   106   105    2
    53    29    28    1
    54    44    45    1
    55    92    94   ar
    56    92    90   ar
    57   121   118    1
    58   113   114    1
    59   113   116    1
    60   113   112    1
    61   117   118    1
    62   117   114   am
    63    94    93   ar
    64   105   112   am
    65   105   104    1
    66    89    90   ar
    67    89    87   ar
    68   118   119    1
    69   201   200    1
    70   114   115    2
    71    90    88   ar
    72   199   200    1
    73   199   198    1
    74    14    12    1
    75    45    46    1
    76    45    48    1
    77    49    51    1
    78    49    48    1
    79   104   107    1
    80   104   103    1
    81    87    86   ar
    82    93    91   ar
    83    88    91   ar
    84    88    86   ar
    85   198   197    1
    86   135   132    1
    87   109   108    1
    88   109   110    1
    89   107   108    1
    90    46    47    2
    91    46    52   am
    92    48    50    1
    93    81    82    1
    94   119   120    2
    95    12    11    1
    96    86    85    1
    97     7     8    1
    98    52    53    1
    99    57    56    1
   100   209   207   am
   101    56    53    1
   102   110   111    1
   103    11     8    1
   104    11    13    1
   105    82    85    1
   106    82    83    1
   107   197   194    1
   108    53    54    1
   109   134   133    2
   110   196   195    2
   111   132   133    1
   112   132   131    1
   113     8     9    1
   114    10     9    2
   115   229   231   ar
   116   229   227   ar
   117   133   136   am
   118   207   208    2
   119   207   206    1
   120   219   217   ar
   121   219   220   ar
   122   161   160    1
   123   161   162    1
   124   231   230   ar
   125   152   153   ar
   126   152   150   ar
   127   194   195    1
   128   194   193    1
   129   130   129    1
   130   153   151   ar
   131   195   202   am
   132   136   137    1
   133     9    15   am
   134   160   159    1
   135   217   215   ar
   136   137   140    1
   137   137   138    1
   138   140   141    1
   139    83    84    2
   140   167   164    1
   141   220   218   ar
   142   227   226   ar
   143    54    55    2
   144   203   206    1
   145   203   202    1
   146   203   204    1
   147   125   126    1
   148    27    26    1
   149    26    23    1
   150   150   149   ar
   151   126   129    1
   152   126   127    1
   153   230   228   ar
   154   151   149   ar
   155   143   141   ar
   156   141   142   ar
   157    15    16    1
   158   163   164    1
   159   163   156   am
   160   215   214    1
   161   215   216   ar
   162   159   158    1
   163   164   165    1
   164   138   144   am
   165   138   139    2
   166   191   190    1
   167   210   204   am
   168   210   211    1
   169   149   148    1
   170   218   216   ar
   171   226   228   ar
   172   226   225    1
   173   204   205    2
   174   158   155    1
   175    22    23    1
   176    22    17   am
   177   192   190    1
   178   155   156    1
   179   155   154    1
   180   214   211    1
   181   144   145    1
   182    23    24    1
   183   127   128    2
   184    16    17    1
   185    16    19    1
   186   190   187    1
   187   156   157    2
   188    17    18    2
   189   221   222    1
   190   211   212    1
   191   165   166    2
   192   189   188    2
   193   225   222    1
   194   148   145    1
   195    21    19    1
   196   145   146    1
   197   213   212    2
   198   236   237    1
   199   236   233    1
   200    24    25    2
   201    19    20    1
   202   222   223    1
   203   224   223    2
   204   187   188    1
   205   187   186    1
   206   172   169    1
   207   172   173    1
   208   169   168    1
   209   169   170    1
   210   171   170    2
   211   146   147    2
   212   233   234    1
   213   233   232    1
   214   185   184    1
   215   235   234    2
   216   170   174   am
   217   184   182   ar
   218   184   183   ar
   219   182   180   ar
   220   183   181   ar
   221   174   175    1
   222   180   179   ar
   223   181   179   ar
   224   179   178    1
   225   175   178    1
   226   175   176    1
   227   176   177    2
