@<TRIPOS>MOLECULE
tmp/5igsA00.pdb
 200 190 0 0 0
SMALL
GASTEIGER

@<TRIPOS>ATOM
      1  N         28.8920   30.5140  278.9260 N.3   102  MET102     -0.1245
      2  CA        30.1720   30.4020  279.5970 C.3   102  MET102      0.1570
      3  C         30.2750   31.5880  280.5290 C.2   102  MET102      0.2261
      4  O         30.0030   32.7230  280.1330 O.2   102  MET102     -0.2867
      5  CB        31.3250   30.4230  278.5970 C.3   102  MET102      0.0387
      6  CG        32.6970   30.4940  279.2760 C.3   102  MET102      0.0595
      7  SD        34.0280   30.7950  278.1370 S.3   102  MET102     -0.1393
      8  CE        33.6520   32.4930  277.7060 C.3   102  MET102      0.0692
      9  N         32.9630   33.6680  282.8660 N.3   104  ILE104     -0.1245
     10  CA        34.3880   33.8630  283.0740 C.3   104  ILE104      0.1561
     11  C         34.5800   35.2240  283.7150 C.2   104  ILE104      0.2260
     12  O         33.8630   36.1810  283.3880 O.2   104  ILE104     -0.2867
     13  CB        35.1690   33.7270  281.7460 C.3   104  ILE104      0.0252
     14  CG1       36.6720   33.7190  282.0010 C.3   104  ILE104      0.0019
     15  CG2       34.7930   34.8410  280.7650 C.3   104  ILE104      0.0019
     16  CD1       37.4840   33.2500  280.8230 C.3   104  ILE104      0.0001
     17  N         40.5970   36.7880  283.6610 N.3   108  SER108     -0.1202
     18  CA        40.9260   35.3720  283.7620 C.3   108  SER108      0.2020
     19  C         40.9830   34.7130  282.3890 C.2   108  SER108      0.2619
     20  O         40.2500   35.0940  281.4770 O.2   108  SER108     -0.2717
     21  CB        39.8870   34.6530  284.6240 C.3   108  SER108      0.2103
     22  OG        39.7720   35.2600  285.8990 O.3   108  SER108     -0.2182
     23  N         41.8590   33.7230  282.2520 N.am  109  SER109     -0.1951
     24  CA        41.9340   32.9250  281.0300 C.3   109  SER109      0.1924
     25  C         41.2140   31.5790  281.2020 C.2   109  SER109      0.2314
     26  O         41.1200   30.7900  280.2640 O.2   109  SER109     -0.2863
     27  CB        43.3890   32.6900  280.6410 C.3   109  SER109      0.2116
     28  OG        44.0470   31.9480  281.6500 O.3   109  SER109     -0.2180
     29  N         37.5410   29.8890  282.3620 N.3   111  PRO111     -0.2116
     30  CA        36.1600   30.1570  282.7710 C.3   111  PRO111      0.1372
     31  C         35.8450   29.4960  284.1000 C.2   111  PRO111      0.2244
     32  O         36.4580   28.4770  284.4630 O.2   111  PRO111     -0.2868
     33  CB        35.3290   29.5340  281.6570 C.3   111  PRO111      0.0268
     34  CG        36.2570   28.7060  280.8410 C.3   111  PRO111      0.0207
     35  CD        37.6420   29.1090  281.1230 C.3   111  PRO111      0.0892
     36  N         31.1670   26.3570  282.0460 N.3   114  VAL114     -0.1245
     37  CA        30.6470   26.3070  280.6710 C.3   114  VAL114      0.1561
     38  C         29.4920   25.3330  280.7070 C.2   114  VAL114      0.2260
     39  O         29.5530   24.3100  281.3980 O.2   114  VAL114     -0.2867
     40  CB        31.7240   25.8390  279.6590 C.3   114  VAL114      0.0252
     41  CG1       31.1450   25.6910  278.2330 C.3   114  VAL114      0.0019
     42  CG2       32.9420   26.7880  279.6600 C.3   114  VAL114      0.0019
     43  N         30.9620   35.8370  265.3550 N.3   199  ASP199     -0.1225
     44  CA        31.7610   35.7180  266.5880 C.3   199  ASP199      0.1805
     45  C         31.0290   34.8360  267.5930 C.2   199  ASP199      0.2598
     46  O         30.8620   35.1680  268.7730 O.2   199  ASP199     -0.2718
     47  CB        32.0420   37.1020  267.1590 C.3   199  ASP199      0.1424
     48  CG        33.2080   37.1310  268.1520 C.2   199  ASP199      0.3668
     49  OD1       33.9190   36.1250  268.3550 O.co2 199  ASP199     -0.2456
     50  OD2       33.4100   38.2040  268.7430 O.co2 199  ASP199     -0.2456
     51  N         30.5870   33.6810  267.1340 N.am  200  LEU200     -0.1966
     52  CA        29.6380   32.8710  267.8900 C.3   200  LEU200      0.1728
     53  C         30.3390   31.7600  268.6320 C.2   200  LEU200      0.2616
     54  O         30.9780   30.8980  268.0320 O.2   200  LEU200     -0.2715
     55  CB        28.5630   32.2980  266.9690 C.3   200  LEU200      0.0311
     56  CG        27.3480   31.7090  267.6820 C.3   200  LEU200      0.0022
     57  CD1       26.6700   32.7400  268.5860 C.3   200  LEU200      0.0001
     58  CD2       26.3690   31.1840  266.6480 C.3   200  LEU200      0.0001
     59  N         30.2080   31.7930  269.9600 N.am  201  TYR201     -0.1960
     60  CA        30.7320   30.7490  270.8440 C.3   201  TYR201      0.1771
     61  C         29.9280   30.8890  272.1190 C.2   201  TYR201      0.2619
     62  O         29.1260   31.8120  272.2680 O.2   201  TYR201     -0.2715
     63  CB        32.2500   30.8820  271.0900 C.3   201  TYR201      0.0574
     64  CG        32.7010   31.9010  272.0840 C.ar  201  TYR201     -0.0198
     65  CD1       32.5060   33.2600  271.8590 C.ar  201  TYR201     -0.0009
     66  CD2       33.3490   31.5160  273.2240 C.ar  201  TYR201     -0.0009
     67  CE1       32.9640   34.1950  272.7640 C.ar  201  TYR201      0.0417
     68  CE2       33.7910   32.4280  274.1310 C.ar  201  TYR201      0.0417
     69  CZ        33.5970   33.7630  273.8840 C.ar  201  TYR201      0.1957
     70  OH        34.0690   34.6460  274.8220 O.3   201  TYR201     -0.2866
     71  N         30.1480   29.9740  273.0450 N.am  202  VAL202     -0.1977
     72  CA        29.3690   29.9640  274.2720 C.3   202  VAL202      0.1596
     73  C         29.3720   31.2930  275.0300 C.2   202  VAL202      0.2287
     74  O         28.3840   31.6170  275.6800 O.2   202  VAL202     -0.2864
     75  CB        29.8300   28.8070  275.2030 C.3   202  VAL202      0.0276
     76  CG1       29.2750   27.4740  274.6910 C.3   202  VAL202      0.0022
     77  CG2       31.3770   28.7640  275.3410 C.3   202  VAL202      0.0022
     78  N         29.0230   34.1910  273.8720 N.3   204  HIS204     -0.1241
     79  CA        28.1180   35.1460  273.2410 C.3   204  HIS204      0.1621
     80  C         26.7230   34.5940  273.0520 C.2   204  HIS204      0.2264
     81  O         25.8970   35.1870  272.3640 O.2   204  HIS204     -0.2867
     82  CB        28.6850   35.6050  271.9020 C.3   204  HIS204      0.0745
     83  CG        29.9140   36.4400  272.0420 C.ar  204  HIS204      0.0817
     84  ND1       30.8180   36.6470  271.0140 N.ar  204  HIS204     -0.2268
     85  CD2       30.4020   37.1250  273.1010 C.ar  204  HIS204      0.1154
     86  CE1       31.7910   37.4270  271.4330 C.ar  204  HIS204      0.1986
     87  NE2       31.5710   37.7220  272.7020 N.ar  204  HIS204     -0.2212
     88  N         29.0100   42.3130  266.2750 N.3   220  SER220     -0.1202
     89  CA        29.8350   43.2050  265.4680 C.3   220  SER220      0.2020
     90  C         30.3130   42.5430  264.1830 C.2   220  SER220      0.2618
     91  O         30.4730   43.2150  263.1650 O.2   220  SER220     -0.2717
     92  CB        31.0380   43.7160  266.2620 C.3   220  SER220      0.2103
     93  OG        31.8660   42.6480  266.7050 O.3   220  SER220     -0.2182
     94  N         30.5430   41.2330  264.2220 N.am  221  GLU221     -0.1979
     95  CA        31.1130   40.5170  263.0890 C.3   221  GLU221      0.1602
     96  C         30.0750   39.9510  262.1130 C.2   221  GLU221      0.2287
     97  O         30.4260   39.2470  261.1610 O.2   221  GLU221     -0.2864
     98  CB        32.0380   39.4050  263.5850 C.3   221  GLU221      0.0415
     99  CG        33.1020   39.8970  264.5830 C.3   221  GLU221      0.1163
    100  CD        33.9500   41.0310  264.0740 C.2   221  GLU221      0.3649
    101  OE1       34.5660   40.8660  263.0110 O.co2 221  GLU221     -0.2457
    102  OE2       33.9880   42.0850  264.7470 O.co2 221  GLU221     -0.2457
    103  N         31.4800   29.3350  259.6960 N.3   229  ILE229     -0.1245
    104  CA        32.0420   30.3260  260.5870 C.3   229  ILE229      0.1561
    105  C         31.3890   30.2310  261.9660 C.2   229  ILE229      0.2260
    106  O         32.0620   30.4090  262.9970 O.2   229  ILE229     -0.2867
    107  CB        31.8360   31.7220  260.0030 C.3   229  ILE229      0.0252
    108  CG1       32.7820   31.9140  258.8050 C.3   229  ILE229      0.0019
    109  CG2       32.0370   32.8050  261.0670 C.3   229  ILE229      0.0019
    110  CD1       32.3760   33.0280  257.8600 C.3   229  ILE229      0.0001
    111  N         32.5430   26.5490  264.0700 N.3   232  ALA232     -0.1231
    112  CA        33.8900   26.1540  264.4820 C.3   232  ALA232      0.1694
    113  C         34.0900   26.2050  265.9970 C.2   232  ALA232      0.2591
    114  O         34.7760   25.3510  266.5630 O.2   232  ALA232     -0.2718
    115  CB        34.9100   27.0570  263.8060 C.3   232  ALA232      0.0304
    116  N         33.5290   27.2160  266.6560 N.am  233  ALA233     -0.1980
    117  CA        33.7460   27.3210  268.0830 C.3   233  ALA233      0.1597
    118  C         32.9570   26.2540  268.8210 C.2   233  ALA233      0.2287
    119  O         33.3350   25.8720  269.9310 O.2   233  ALA233     -0.2864
    120  CB        33.3610   28.6780  268.5740 C.3   233  ALA233      0.0319
    121  N         35.2880   23.4140  268.8360 N.3   236  MET236     -0.1230
    122  CA        36.3160   23.6650  269.8350 C.3   236  MET236      0.1702
    123  C         35.8460   23.2030  271.2190 C.2   236  MET236      0.2592
    124  O         36.4870   22.3850  271.8900 O.2   236  MET236     -0.2718
    125  CB        36.6360   25.1590  269.8610 C.3   236  MET236      0.0401
    126  CG        37.6960   25.5490  270.8690 C.3   236  MET236      0.0596
    127  SD        39.2960   24.8510  270.4530 S.3   236  MET236     -0.1393
    128  CE        40.0990   26.3010  269.7850 C.3   236  MET236      0.0692
    129  N         34.6990   23.7240  271.6210 N.am  237  VAL237     -0.1980
    130  CA        34.2310   23.6240  272.9920 C.3   237  VAL237      0.1595
    131  C         33.6360   22.2610  273.3220 C.2   237  VAL237      0.2287
    132  O         33.8290   21.7470  274.4310 O.2   237  VAL237     -0.2864
    133  CB        33.2260   24.7470  273.2940 C.3   237  VAL237      0.0276
    134  CG1       32.5750   24.5280  274.6740 C.3   237  VAL237      0.0022
    135  CG2       33.9390   26.0800  273.2860 C.3   237  VAL237      0.0022
    136  N         38.0070   25.4210  259.3130 N.3   268  ARG268     -0.1231
    137  CA        37.7040   26.7570  259.8140 C.3   268  ARG268      0.1694
    138  C         38.2430   26.9470  261.2300 C.2   268  ARG268      0.2591
    139  O         38.7280   28.0140  261.5710 O.2   268  ARG268     -0.2718
    140  CB        36.1930   26.9680  259.8210 C.3   268  ARG268      0.0321
    141  CG        35.6300   27.4640  258.5300 C.3   268  ARG268      0.0489
    142  CD        35.7720   28.9850  258.4560 C.3   268  ARG268      0.2205
    143  NE        35.2740   29.4690  257.1870 N.pl3 268  ARG268     -0.0865
    144  CZ        35.4380   30.7100  256.7660 C.cat 268  ARG268      0.5346
    145  NH1       36.0390   31.6250  257.5210 N.pl3 268  ARG268      0.1354
    146  NH2       34.9500   31.0320  255.5990 N.pl3 268  ARG268      0.1354
    147  N         38.1660   25.9160  262.0400 N.am  269  LEU269     -0.1980
    148  CA        38.7040   26.0010  263.3850 C.3   269  LEU269      0.1596
    149  C         40.2260   26.2050  263.3250 C.2   269  LEU269      0.2287
    150  O         40.7700   27.0870  264.0080 O.2   269  LEU269     -0.2864
    151  CB        38.3180   24.7850  264.2210 C.3   269  LEU269      0.0297
    152  CG        38.8360   24.8170  265.6590 C.3   269  LEU269      0.0022
    153  CD1       38.4180   26.0870  266.3870 C.3   269  LEU269      0.0001
    154  CD2       38.3020   23.6110  266.4140 C.3   269  LEU269      0.0001
    155  N         41.3000   29.6000  262.7020 N.3   272  GLY272     -0.1225
    156  CA        41.2750   30.5010  263.8410 C.3   272  GLY272      0.1811
    157  C         42.6390   31.0800  264.2200 C.2   272  GLY272      0.2280
    158  O         42.7070   32.1770  264.7560 O.2   272  GLY272     -0.2866
    159  N         42.9050   34.2460  262.2010 N.3   275  THR275     -0.1203
    160  CA        42.0760   35.2880  262.7520 C.3   275  THR275      0.1994
    161  C         42.7110   35.8830  264.0030 C.2   275  THR275      0.2617
    162  O         42.7480   37.0980  264.1810 O.2   275  THR275     -0.2717
    163  CB        40.6940   34.7160  263.0910 C.3   275  THR275      0.1784
    164  OG1       40.1490   34.1190  261.8990 O.3   275  THR275     -0.2211
    165  CG2       39.7410   35.7750  263.6090 C.3   275  THR275      0.0376
    166  N         43.1970   35.0100  264.8870 N.am  276  TYR276     -0.1975
    167  CA        43.8540   35.4780  266.1130 C.3   276  TYR276      0.1639
    168  C         45.0860   36.3260  265.7960 C.2   276  TYR276      0.2290
    169  O         45.2700   37.3980  266.3520 O.2   276  TYR276     -0.2864
    170  CB        44.2560   34.3160  267.0030 C.3   276  TYR276      0.0560
    171  CG        44.7780   34.7480  268.3580 C.ar  276  TYR276     -0.0198
    172  CD1       43.8950   35.0580  269.3930 C.ar  276  TYR276     -0.0009
    173  CD2       46.1370   34.8480  268.6090 C.ar  276  TYR276     -0.0009
    174  CE1       44.3660   35.4570  270.6320 C.ar  276  TYR276      0.0417
    175  CE2       46.6130   35.2490  269.8340 C.ar  276  TYR276      0.0417
    176  CZ        45.7230   35.5400  270.8350 C.ar  276  TYR276      0.1957
    177  OH        46.2130   35.9260  272.0640 O.3   276  TYR276     -0.2866
    178  N         44.0240   39.7600  264.5090 N.3   279  PHE279     -0.1241
    179  CA        43.5290   40.5430  265.6340 C.3   279  PHE279      0.1605
    180  C         44.7050   41.0840  266.4310 C.2   279  PHE279      0.2264
    181  O         44.7640   42.2810  266.7780 O.2   279  PHE279     -0.2867
    182  CB        42.6670   39.6360  266.5100 C.3   279  PHE279      0.0534
    183  CG        42.0190   40.3310  267.6660 C.ar  279  PHE279     -0.0203
    184  CD1       40.7710   40.9040  267.5320 C.ar  279  PHE279     -0.0042
    185  CD2       42.6610   40.3920  268.8800 C.ar  279  PHE279     -0.0042
    186  CE1       40.1650   41.5240  268.6030 C.ar  279  PHE279     -0.0003
    187  CE2       42.0730   41.0190  269.9620 C.ar  279  PHE279     -0.0003
    188  CZ        40.8130   41.5800  269.8210 C.ar  279  PHE279     -0.0000
    189  N         49.2860   39.8810  272.9690 N.3   288  TYR288     -0.1241
    190  CA        48.5470   39.1530  271.9460 C.3   288  TYR288      0.1605
    191  C         49.4880   38.7550  270.8230 C.2   288  TYR288      0.2264
    192  O         49.4450   37.6290  270.3430 O.2   288  TYR288     -0.2867
    193  CB        47.3820   39.9920  271.4240 C.3   288  TYR288      0.0534
    194  CG        46.2880   40.1720  272.4600 C.ar  288  TYR288     -0.0201
    195  CD1       46.2180   39.3440  273.5780 C.ar  288  TYR288     -0.0009
    196  CD2       45.3420   41.1690  272.3340 C.ar  288  TYR288     -0.0009
    197  CE1       45.2320   39.5000  274.5270 C.ar  288  TYR288      0.0417
    198  CE2       44.3430   41.3260  273.2770 C.ar  288  TYR288      0.0417
    199  CZ        44.2970   40.4940  274.3710 C.ar  288  TYR288      0.1957
    200  OH        43.3040   40.6570  275.3120 O.3   288  TYR288     -0.2866
@<TRIPOS>BOND
     1   146   144    1
     2   144   143    2
     3   144   145    1
     4   143   142    1
     5   110   108    1
     6   142   141    1
     7   141   140    1
     8   108   107    1
     9   136   137    1
    10   103   104    1
    11   137   140    1
    12   137   138    1
    13   107   104    1
    14   107   109    1
    15   104   105    1
    16    97    96    2
    17   138   139    2
    18   138   147   am
    19   164   163    1
    20   105   106    2
    21   147   148    1
    22    96    95    1
    23   159   160    1
    24   155   156    1
    25   160   163    1
    26   160   161    1
    27   101   100   ar
    28    95    98    1
    29    95    94    1
    30   163   165    1
    31    91    90    2
    32   149   148    1
    33   149   150    2
    34   148   151    1
    35    98    99    1
    36   115   112    1
    37   156   157    1
    38   161   162    2
    39   161   166   am
    40   111   112    1
    41   100    99    1
    42   100   102   ar
    43    90    94   am
    44    90    89    1
    45   157   158    2
    46   151   152    1
    47   112   113    1
    48   178   179    1
    49   166   167    1
    50    43    44    1
    51    89    92    1
    52    89    88    1
    53   179   180    1
    54   179   182    1
    55   152   153    1
    56   152   154    1
    57   168   167    1
    58   168   169    2
    59   113   114    2
    60   113   116   am
    61   167   170    1
    62    92    93    1
    63   180   181    2
    64   182   183    1
    65    44    47    1
    66    44    45    1
    67    58    56    1
    68   116   117    1
    69    55    56    1
    70    55    52    1
    71   170   171    1
    72    51    45   am
    73    51    52    1
    74    47    48    1
    75   184   183   ar
    76   184   186   ar
    77    45    46    2
    78   183   185   ar
    79    56    57    1
    80    52    53    1
    81    54    53    2
    82   117   120    1
    83   117   118    1
    84    48    49   ar
    85    48    50   ar
    86   171   173   ar
    87   171   172   ar
    88   186   188   ar
    89   173   175   ar
    90    53    59   am
    91   118   119    2
    92   121   122    1
    93   185   187   ar
    94   172   174   ar
    95   128   127    1
    96   188   187   ar
    97   175   176   ar
    98   122   125    1
    99   122   123    1
   100   125   126    1
   101    59    60    1
   102   192   191    2
   103   127   126    1
   104   174   176   ar
   105   191   190    1
   106   176   177    1
   107    60    63    1
   108    60    61    1
   109    84    86   ar
   110    84    83   ar
   111    63    64    1
   112   123   129   am
   113   123   124    2
   114   193   190    1
   115   193   194    1
   116    86    87   ar
   117   129   130    1
   118    65    64   ar
   119    65    67   ar
   120    82    83    1
   121    82    79    1
   122   190   189    1
   123    83    85   ar
   124    64    66   ar
   125    61    62    2
   126    61    71   am
   127   196   194   ar
   128   196   198   ar
   129    81    80    2
   130   194   195   ar
   131    87    85   ar
   132    67    69   ar
   133   130   133    1
   134   130   131    1
   135    71    72    1
   136    80    79    1
   137    66    68   ar
   138    79    78    1
   139   198   199   ar
   140   135   133    1
   141   133   134    1
   142   131   132    2
   143   195   197   ar
   144    69    68   ar
   145    69    70    1
   146    72    73    1
   147    72    75    1
   148   199   197   ar
   149   199   200    1
   150    76    75    1
   151    73    74    2
   152    75    77    1
   153     8     7    1
   154     7     6    1
   155    41    40    1
   156     5     6    1
   157     5     2    1
   158     1     2    1
   159     2     3    1
   160    40    42    1
   161    40    37    1
   162     4     3    2
   163    26    25    2
   164    27    24    1
   165    27    28    1
   166    37    38    1
   167    37    36    1
   168    38    39    2
   169    15    13    1
   170    16    14    1
   171    34    35    1
   172    34    33    1
   173    24    25    1
   174    24    23    1
   175    35    29    1
   176    20    19    2
   177    33    30    1
   178    13    14    1
   179    13    10    1
   180    23    19   am
   181    29    30    1
   182    19    18    1
   183    30    31    1
   184     9    10    1
   185    10    11    1
   186    12    11    2
   187    17    18    1
   188    18    21    1
   189    31    32    2
   190    21    22    1
