@<TRIPOS>MOLECULE
tmp/5igsA01.pdb
 150 142 0 0 0
SMALL
GASTEIGER

@<TRIPOS>ATOM
      1  N         33.9960   46.8150  282.7670 N.3    29  ASN29      -0.1240
      2  CA        34.9950   45.9680  282.1380 C.3    29  ASN29       0.1653
      3  C         35.7910   46.8200  281.1600 C.2    29  ASN29       0.2266
      4  O         35.2790   47.2280  280.1070 O.2    29  ASN29      -0.2867
      5  CB        34.3260   44.7930  281.4300 C.3    29  ASN29       0.1155
      6  CG        35.3230   43.8340  280.8180 C.2    29  ASN29       0.2627
      7  OD1       36.4320   44.2180  280.4660 O.2    29  ASN29      -0.2716
      8  ND2       34.9280   42.5750  280.6870 N.am   29  ASN29      -0.0877
      9  N         32.9040   48.3680  278.6530 N.3    37  ILE37      -0.1245
     10  CA        31.5770   47.7790  278.8440 C.3    37  ILE37       0.1561
     11  C         31.1990   47.9990  280.2820 C.2    37  ILE37       0.2260
     12  O         31.8900   47.5370  281.1910 O.2    37  ILE37      -0.2867
     13  CB        31.5650   46.2680  278.5150 C.3    37  ILE37       0.0252
     14  CG1       32.1370   46.0300  277.1110 C.3    37  ILE37       0.0019
     15  CG2       30.1520   45.6820  278.6720 C.3    37  ILE37       0.0019
     16  CD1       31.2780   46.5440  275.9950 C.3    37  ILE37       0.0001
     17  N         27.9300   47.7150  283.0140 N.3    39  ILE39      -0.1245
     18  CA        26.5610   47.3100  283.2830 C.3    39  ILE39       0.1561
     19  C         26.0960   48.1740  284.4390 C.2    39  ILE39       0.2260
     20  O         26.6950   48.1260  285.5360 O.2    39  ILE39      -0.2867
     21  CB        26.4480   45.7970  283.5770 C.3    39  ILE39       0.0252
     22  CG1       26.8920   45.0100  282.3440 C.3    39  ILE39       0.0019
     23  CG2       25.0110   45.4470  283.9350 C.3    39  ILE39       0.0019
     24  CD1       26.8340   43.5030  282.5130 C.3    39  ILE39       0.0001
     25  N         23.2860   47.8090  279.6030 N.3    49  VAL49      -0.1245
     26  CA        24.6670   47.6850  279.1570 C.3    49  VAL49       0.1561
     27  C         25.0540   48.9410  278.4040 C.2    49  VAL49       0.2260
     28  O         24.3460   49.3400  277.4670 O.2    49  VAL49      -0.2867
     29  CB        24.8150   46.4660  278.2210 C.3    49  VAL49       0.0252
     30  CG1       26.2410   46.3240  277.7420 C.3    49  VAL49       0.0019
     31  CG2       24.3510   45.2230  278.9420 C.3    49  VAL49       0.0019
     32  N         27.8870   50.2790  276.1440 N.3    51  ARG51      -0.1245
     33  CA        28.9450   49.8270  275.2550 C.3    51  ARG51       0.1563
     34  C         29.5790   51.1000  274.7000 C.2    51  ARG51       0.2260
     35  O         29.0040   51.7740  273.8460 O.2    51  ARG51      -0.2867
     36  CB        28.2940   48.9500  274.1890 C.3    51  ARG51       0.0307
     37  CG        29.1540   48.4590  273.1030 C.3    51  ARG51       0.0489
     38  CD        28.3320   47.4750  272.2440 C.3    51  ARG51       0.2205
     39  NE        29.1740   46.8410  271.2540 N.pl3  51  ARG51      -0.0865
     40  CZ        30.0000   45.8380  271.5160 C.cat  51  ARG51       0.5346
     41  NH1       30.0670   45.3260  272.7390 N.pl3  51  ARG51       0.1354
     42  NH2       30.7600   45.3480  270.5460 N.pl3  51  ARG51       0.1354
     43  N         21.7760   49.3860  275.7280 N.3    93  TYR93      -0.1241
     44  CA        20.6320   48.5000  275.5980 C.3    93  TYR93       0.1605
     45  C         20.2670   47.9550  276.9550 C.2    93  TYR93       0.2264
     46  O         21.1390   47.7720  277.8060 O.2    93  TYR93      -0.2867
     47  CB        20.9090   47.3810  274.6010 C.3    93  TYR93       0.0534
     48  CG        22.1340   46.5190  274.7970 C.ar   93  TYR93      -0.0201
     49  CD1       23.3410   46.8520  274.2210 C.ar   93  TYR93      -0.0009
     50  CD2       22.0640   45.3190  275.4980 C.ar   93  TYR93      -0.0009
     51  CE1       24.4490   46.0560  274.3400 C.ar   93  TYR93       0.0417
     52  CE2       23.1820   44.5020  275.6210 C.ar   93  TYR93       0.0417
     53  CZ        24.3620   44.8600  275.0140 C.ar   93  TYR93       0.1957
     54  OH        25.4660   44.0310  275.1400 O.3    93  TYR93      -0.2866
     55  N         19.8880   45.3500  279.6390 N.3    95  MET95      -0.1230
     56  CA        20.5980   44.0970  279.7830 C.3    95  MET95       0.1702
     57  C         19.6570   42.9470  279.5260 C.2    95  MET95       0.2592
     58  O         18.5090   42.9470  279.9690 O.2    95  MET95      -0.2718
     59  CB        21.2260   43.9410  281.1760 C.3    95  MET95       0.0401
     60  CG        22.1980   42.7620  281.2300 C.3    95  MET95       0.0596
     61  SD        22.8610   42.4920  282.8680 S.3    95  MET95      -0.1393
     62  CE        23.8170   41.0130  282.5670 C.3    95  MET95       0.0692
     63  N         20.1680   41.9580  278.8090 N.am   96  LEU96      -0.1966
     64  CA        19.4940   40.6730  278.6740 C.3    96  LEU96       0.1728
     65  C         19.9780   39.8500  279.8590 C.2    96  LEU96       0.2616
     66  O         21.1350   39.4270  279.9290 O.2    96  LEU96      -0.2715
     67  CB        19.8300   40.0200  277.3180 C.3    96  LEU96       0.0311
     68  CG        19.4020   40.8440  276.0910 C.3    96  LEU96       0.0022
     69  CD1       19.9680   40.2630  274.7990 C.3    96  LEU96       0.0001
     70  CD2       17.8890   40.9630  276.0210 C.3    96  LEU96       0.0001
     71  N         19.1240   39.6860  280.8510 N.am   97  GLU97      -0.1963
     72  CA        19.6250   39.2170  282.1430 C.3    97  GLU97       0.1733
     73  C         20.0120   37.7470  282.1970 C.2    97  GLU97       0.2616
     74  O         20.7250   37.3230  283.1090 O.2    97  GLU97      -0.2715
     75  CB        18.6460   39.5690  283.2620 C.3    97  GLU97       0.0429
     76  CG        18.5730   41.0690  283.5150 C.3    97  GLU97       0.1163
     77  CD        19.7740   41.5860  284.3110 C.2    97  GLU97       0.3649
     78  OE1       20.6840   40.7840  284.6250 O.co2  97  GLU97      -0.2457
     79  OE2       19.8180   42.7980  284.6090 O.co2  97  GLU97      -0.2457
     80  N         19.5610   36.9630  281.2310 N.am   98  ASP98      -0.1957
     81  CA        19.9570   35.5620  281.1870 C.3    98  ASP98       0.1840
     82  C         21.4830   35.4440  281.1020 C.2    98  ASP98       0.2623
     83  O         22.1620   36.2360  280.4330 O.2    98  ASP98      -0.2715
     84  CB        19.3390   34.8370  279.9920 C.3    98  ASP98       0.1450
     85  CG        17.8820   34.4820  280.1880 C.2    98  ASP98       0.3671
     86  OD1       17.3460   34.7090  281.2850 O.co2  98  ASP98      -0.2456
     87  OD2       17.2530   33.9740  279.2320 O.co2  98  ASP98      -0.2456
     88  N         22.0200   34.4170  281.7310 N.am   99  SER99      -0.1936
     89  CA        23.4530   34.1840  281.7290 C.3    99  SER99       0.2055
     90  C         23.9960   33.8540  280.3590 C.2    99  SER99       0.2643
     91  O         23.3170   33.2160  279.5550 O.2    99  SER99      -0.2714
     92  CB        23.7520   33.0020  282.6450 C.3    99  SER99       0.2130
     93  OG        25.1290   32.7370  282.7760 O.3    99  SER99      -0.2179
     94  N         25.2430   34.2310  280.1150 N.am  100  THR100     -0.1950
     95  CA        25.9890   33.6320  279.0290 C.3   100  THR100      0.1897
     96  C         26.1970   32.1260  279.3050 C.2   100  THR100      0.2313
     97  O         26.1460   31.6680  280.4610 O.2   100  THR100     -0.2863
     98  CB        27.3380   34.3580  278.8410 C.3   100  THR100      0.1794
     99  OG1       27.9870   34.4980  280.1150 O.3   100  THR100     -0.2208
    100  CG2       27.1010   35.7590  278.2860 C.3   100  THR100      0.0378
    101  N         30.2080   31.7930  269.9600 N.3   201  TYR201     -0.1241
    102  CA        30.7320   30.7490  270.8440 C.3   201  TYR201      0.1605
    103  C         29.9280   30.8890  272.1190 C.2   201  TYR201      0.2264
    104  O         29.1260   31.8120  272.2680 O.2   201  TYR201     -0.2867
    105  CB        32.2500   30.8820  271.0900 C.3   201  TYR201      0.0534
    106  CG        32.7010   31.9010  272.0840 C.ar  201  TYR201     -0.0201
    107  CD1       32.5060   33.2600  271.8590 C.ar  201  TYR201     -0.0009
    108  CD2       33.3490   31.5160  273.2240 C.ar  201  TYR201     -0.0009
    109  CE1       32.9640   34.1950  272.7640 C.ar  201  TYR201      0.0417
    110  CE2       33.7910   32.4280  274.1310 C.ar  201  TYR201      0.0417
    111  CZ        33.5970   33.7630  273.8840 C.ar  201  TYR201      0.1957
    112  OH        34.0690   34.6460  274.8220 O.3   201  TYR201     -0.2866
    113  N         30.4550   32.0650  274.9500 N.3   203  GLY203     -0.1210
    114  CA        30.4950   33.3500  275.6330 C.3   203  GLY203      0.1956
    115  C         29.5640   34.4100  275.0770 C.2   203  GLY203      0.2611
    116  O         29.3400   35.4310  275.7270 O.2   203  GLY203     -0.2717
    117  N         29.0230   34.1910  273.8720 N.am  204  HIS204     -0.1975
    118  CA        28.1180   35.1460  273.2410 C.3   204  HIS204      0.1656
    119  C         26.7230   34.5940  273.0520 C.2   204  HIS204      0.2291
    120  O         25.8970   35.1870  272.3640 O.2   204  HIS204     -0.2864
    121  CB        28.6850   35.6050  271.9020 C.3   204  HIS204      0.0771
    122  CG        29.9140   36.4400  272.0420 C.ar  204  HIS204      0.0820
    123  ND1       30.8180   36.6470  271.0140 N.ar  204  HIS204     -0.2267
    124  CD2       30.4020   37.1250  273.1010 C.ar  204  HIS204      0.1154
    125  CE1       31.7910   37.4270  271.4330 C.ar  204  HIS204      0.1986
    126  NE2       31.5710   37.7220  272.7020 N.ar  204  HIS204     -0.2212
    127  N         23.2850   33.4000  275.1800 N.3   206  LEU206     -0.1245
    128  CA        22.5720   33.5020  276.4360 C.3   206  LEU206      0.1561
    129  C         21.6430   32.3140  276.5750 C.2   206  LEU206      0.2260
    130  O         21.0380   31.8590  275.5930 O.2   206  LEU206     -0.2867
    131  CB        21.7340   34.7830  276.5300 C.3   206  LEU206      0.0270
    132  CG        22.4770   36.0790  276.2500 C.3   206  LEU206      0.0019
    133  CD1       21.6090   37.2890  276.5370 C.3   206  LEU206      0.0001
    134  CD2       23.7970   36.1380  277.0670 C.3   206  LEU206      0.0001
    135  N         24.5380   37.6980  271.7980 N.3   217  ILE217     -0.1231
    136  CA        25.0400   39.0540  271.9510 C.3   217  ILE217      0.1692
    137  C         26.2960   39.2440  271.0960 C.2   217  ILE217      0.2592
    138  O         26.8220   38.2840  270.5300 O.2   217  ILE217     -0.2718
    139  CB        25.3460   39.3750  273.4360 C.3   217  ILE217      0.0266
    140  CG1       26.3920   38.3980  273.9730 C.3   217  ILE217      0.0019
    141  CG2       24.0660   39.3450  274.2690 C.3   217  ILE217      0.0020
    142  CD1       26.8880   38.7280  275.3680 C.3   217  ILE217      0.0001
    143  N         26.7720   40.4790  271.0310 N.am  218  ASP218     -0.1974
    144  CA        28.0670   40.8050  270.4240 C.3   218  ASP218      0.1709
    145  C         28.0750   40.4580  268.9190 C.2   218  ASP218      0.2293
    146  O         28.8100   39.5840  268.4620 O.2   218  ASP218     -0.2864
    147  CB        29.2240   40.1320  271.1670 C.3   218  ASP218      0.1436
    148  CG        29.5350   40.7670  272.5340 C.2   218  ASP218      0.3671
    149  OD1       28.7930   41.6330  273.0260 O.co2 218  ASP218     -0.2456
    150  OD2       30.5730   40.3970  273.1330 O.co2 218  ASP218     -0.2456
@<TRIPOS>BOND
     1   146   145    2
     2   145   144    1
     3   101   102    1
     4   144   143    1
     5   144   147    1
     6   138   137    2
     7    42    40    1
     8   102   105    1
     9   102   103    1
    10   123   125   ar
    11   123   122   ar
    12   143   137   am
    13   105   106    1
    14   137   136    1
    15   147   148    1
    16    39    40    2
    17    39    38    1
    18   125   126   ar
    19    40    41    1
    20   135   136    1
    21   107   106   ar
    22   107   109   ar
    23   121   122    1
    24   121   118    1
    25   136   139    1
    26   122   124   ar
    27   106   108   ar
    28   103   104    2
    29    38    37    1
    30   120   119    2
    31   148   149   ar
    32   148   150   ar
    33   126   124   ar
    34   109   111   ar
    35   119   118    1
    36    37    36    1
    37   108   110   ar
    38   118   117    1
    39   139   140    1
    40   139   141    1
    41    35    34    2
    42   117   115   am
    43   111   110   ar
    44   111   112    1
    45   140   142    1
    46    36    33    1
    47    49    51   ar
    48    49    48   ar
    49    51    53   ar
    50    47    48    1
    51    47    44    1
    52    34    33    1
    53    48    50   ar
    54    69    68    1
    55   113   114    1
    56    53    54    1
    57    53    52   ar
    58   115   114    1
    59   115   116    2
    60   127   128    1
    61    33    32    1
    62    50    52   ar
    63   130   129    2
    64    44    43    1
    65    44    45    1
    66    16    14    1
    67    70    68    1
    68    68    67    1
    69   132   131    1
    70   132   133    1
    71   132   134    1
    72   128   131    1
    73   128   129    1
    74    45    46    2
    75    14    13    1
    76    67    64    1
    77    28    27    2
    78    30    29    1
    79    29    31    1
    80    29    26    1
    81   100    98    1
    82    27    26    1
    83    13    15    1
    84    13    10    1
    85     9    10    1
    86    64    63    1
    87    64    65    1
    88    63    57   am
    89    98    95    1
    90    98    99    1
    91    10    11    1
    92    95    96    1
    93    95    94    1
    94    26    25    1
    95    87    85   ar
    96    96    97    2
    97    57    56    1
    98    57    58    2
    99    91    90    2
   100    55    56    1
   101    56    59    1
   102    65    66    2
   103    65    71   am
   104    84    85    1
   105    84    81    1
   106     4     3    2
   107    94    90   am
   108    85    86   ar
   109    11    12    2
   110    90    89    1
   111    83    82    2
   112     7     6    2
   113     8     6   am
   114     6     5    1
   115    71    72    1
   116    82    81    1
   117    82    88   am
   118     3     2    1
   119    59    60    1
   120    81    80    1
   121    60    61    1
   122    80    73   am
   123     5     2    1
   124    89    88    1
   125    89    92    1
   126     2     1    1
   127    72    73    1
   128    72    75    1
   129    73    74    2
   130    22    24    1
   131    22    21    1
   132    62    61    1
   133    92    93    1
   134    17    18    1
   135    75    76    1
   136    18    21    1
   137    18    19    1
   138    76    77    1
   139    21    23    1
   140    77    79   ar
   141    77    78   ar
   142    19    20    2
