@<TRIPOS>MOLECULE
tmp/5igyA01.pdb
 229 223 0 0 0
SMALL
GASTEIGER

@<TRIPOS>ATOM
      1  N         -1.4700  -14.9730   34.8240 N.3    28  LEU28      -0.1245
      2  CA        -1.2950  -16.4000   34.5750 C.3    28  LEU28       0.1561
      3  C          0.1780  -16.7970   34.5930 C.2    28  LEU28       0.2260
      4  O          0.5000  -17.9790   34.7210 O.2    28  LEU28      -0.2867
      5  CB        -1.9050  -16.7970   33.2390 C.3    28  LEU28       0.0270
      6  CG        -3.4070  -16.5410   33.1230 C.3    28  LEU28       0.0019
      7  CD1       -3.8700  -16.7860   31.6900 C.3    28  LEU28       0.0001
      8  CD2       -4.1720  -17.4160   34.1060 C.3    28  LEU28       0.0001
      9  N        -10.6800   -7.2340   34.5990 N.3   100  ILE100     -0.1245
     10  CA       -11.5630   -8.3120   34.1720 C.3   100  ILE100      0.1561
     11  C        -12.1310   -9.0910   35.3500 C.2   100  ILE100      0.2260
     12  O        -11.3900   -9.5610   36.2160 O.2   100  ILE100     -0.2867
     13  CB       -10.8330   -9.2920   33.2350 C.3   100  ILE100      0.0252
     14  CG1      -10.3870   -8.5670   31.9660 C.3   100  ILE100      0.0019
     15  CG2      -11.7410  -10.4710   32.8690 C.3   100  ILE100      0.0019
     16  CD1       -9.6420   -9.4570   30.9770 C.3   100  ILE100      0.0001
     17  N        -14.0980  -12.5020   35.7670 N.3   102  HIS102     -0.1241
     18  CA       -14.2630  -13.6910   34.9350 C.3   102  HIS102      0.1621
     19  C        -15.6080  -14.3790   35.1480 C.2   102  HIS102      0.2264
     20  O        -16.1230  -15.0530   34.2500 O.2   102  HIS102     -0.2867
     21  CB       -13.1210  -14.6670   35.2020 C.3   102  HIS102      0.0745
     22  CG       -11.8020  -14.1980   34.6780 C.ar  102  HIS102      0.0817
     23  ND1      -11.3180  -14.5730   33.4430 N.ar  102  HIS102     -0.2268
     24  CD2      -10.8650  -13.3830   35.2190 C.ar  102  HIS102      0.1154
     25  CE1      -10.1390  -14.0130   33.2460 C.ar  102  HIS102      0.1986
     26  NE2       -9.8410  -13.2830   34.3070 N.ar  102  HIS102     -0.2212
     27  N        -17.7350  -12.0800   33.2240 N.3   105  GLY105     -0.1210
     28  CA       -17.2930  -12.1540   31.8460 C.3   105  GLY105      0.1956
     29  C        -17.1910  -10.7770   31.2230 C.2   105  GLY105      0.2612
     30  O        -17.4660  -10.5990   30.0390 O.2   105  GLY105     -0.2717
     31  N        -16.7860   -9.7940   32.0190 N.am  106  ASN106     -0.1960
     32  CA       -16.5750   -8.4570   31.4940 C.3   106  ASN106      0.1819
     33  C        -15.7610   -7.6090   32.4620 C.2   106  ASN106      0.2621
     34  O        -15.2250   -8.1100   33.4520 O.2   106  ASN106     -0.2715
     35  CB       -17.9190   -7.7790   31.1780 C.3   106  ASN106      0.1195
     36  CG       -17.8480   -6.8800   29.9400 C.2   106  ASN106      0.2630
     37  OD1      -17.2310   -5.8070   29.9630 O.2   106  ASN106     -0.2716
     38  ND2      -18.4810   -7.3220   28.8540 N.am  106  ASN106     -0.0877
     39  N        -15.6900   -6.3120   32.1900 N.am  107  TYR107     -0.1974
     40  CA       -14.8790   -5.4180   32.9930 C.3   107  TYR107      0.1639
     41  C        -15.6210   -4.8230   34.1810 C.2   107  TYR107      0.2290
     42  O        -16.8250   -4.5520   34.1150 O.2   107  TYR107     -0.2864
     43  CB       -14.3810   -4.2550   32.1380 C.3   107  TYR107      0.0560
     44  CG       -13.2160   -4.6060   31.2460 C.ar  107  TYR107     -0.0198
     45  CD1      -11.9640   -4.8730   31.7830 C.ar  107  TYR107     -0.0009
     46  CD2      -13.3610   -4.6700   29.8730 C.ar  107  TYR107     -0.0009
     47  CE1      -10.8820   -5.1930   30.9670 C.ar  107  TYR107      0.0417
     48  CE2      -12.2790   -4.9980   29.0530 C.ar  107  TYR107      0.0417
     49  CZ       -11.0430   -5.2540   29.6100 C.ar  107  TYR107      0.1957
     50  OH        -9.9800   -5.5720   28.7920 O.3   107  TYR107     -0.2866
     51  N        -15.2790   -1.4380   35.6050 N.3   109  TRP109     -0.1241
     52  CA       -14.7100   -0.2320   35.0370 C.3   109  TRP109      0.1605
     53  C        -14.4140    0.8320   36.0750 C.2   109  TRP109      0.2264
     54  O        -15.2250    1.1010   36.9790 O.2   109  TRP109     -0.2867
     55  CB       -15.6850    0.3710   34.0240 C.3   109  TRP109      0.0550
     56  CG       -15.7990   -0.3680   32.7280 C.ar  109  TRP109      0.0003
     57  CD1      -16.8430   -1.1350   32.3130 C.ar  109  TRP109      0.0946
     58  CD2      -14.8300   -0.4010   31.6810 C.ar  109  TRP109      0.0152
     59  NE1      -16.5840   -1.6450   31.0540 N.ar  109  TRP109     -0.2442
     60  CE2      -15.3480   -1.2060   30.6530 C.ar  109  TRP109      0.0810
     61  CE3      -13.5750    0.1870   31.5080 C.ar  109  TRP109      0.0012
     62  CZ2      -14.6470   -1.4440   29.4770 C.ar  109  TRP109      0.0191
     63  CZ3      -12.8820   -0.0570   30.3380 C.ar  109  TRP109      0.0001
     64  CH2      -13.4320   -0.8550   29.3330 C.ar  109  TRP109      0.0015
     65  N          0.8440   -5.6120   22.3980 N.3   196  GLY196     -0.1210
     66  CA         0.3230   -6.9500   22.0870 C.3   196  GLY196      0.1956
     67  C         -0.7420   -7.4800   23.0110 C.2   196  GLY196      0.2612
     68  O         -1.3440   -8.5110   22.7100 O.2   196  GLY196     -0.2717
     69  N         -0.9400   -6.8520   24.1580 N.am  197  ASP197     -0.1959
     70  CA        -2.0090   -7.2050   25.0740 C.3   197  ASP197      0.1840
     71  C         -2.5960   -5.9250   25.6710 C.2   197  ASP197      0.2622
     72  O         -2.7640   -5.8100   26.8830 O.2   197  ASP197     -0.2715
     73  CB        -1.4430   -8.1640   26.1550 C.3   197  ASP197      0.1450
     74  CG        -2.4800   -9.0800   26.7740 C.2   197  ASP197      0.3671
     75  OD1       -3.6670   -9.0050   26.4100 O.co2 197  ASP197     -0.2456
     76  OD2       -2.0860   -9.8620   27.6770 O.co2 197  ASP197     -0.2456
     77  N         -2.9170   -4.9720   24.7950 N.am  198  VAL198     -0.1963
     78  CA        -3.4650   -3.7010   25.2370 C.3   198  VAL198      0.1727
     79  C         -4.9330   -3.8610   25.5570 C.2   198  VAL198      0.2616
     80  O         -5.7400   -4.2180   24.6970 O.2   198  VAL198     -0.2715
     81  CB        -3.3000   -2.6330   24.1580 C.3   198  VAL198      0.0290
     82  CG1       -4.0290   -1.3250   24.5610 C.3   198  VAL198      0.0023
     83  CG2       -1.8380   -2.3340   23.8870 C.3   198  VAL198      0.0023
     84  N         -5.2700   -3.6320   26.8180 N.am  199  HIS199     -0.1973
     85  CA        -6.6590   -3.7040   27.2620 C.3   199  HIS199      0.1656
     86  C         -6.7560   -2.9840   28.5870 C.2   199  HIS199      0.2291
     87  O         -5.7300   -2.6320   29.1490 O.2   199  HIS199     -0.2864
     88  CB        -7.1780   -5.1580   27.3000 C.3   199  HIS199      0.0771
     89  CG        -6.7170   -5.9740   28.4590 C.ar  199  HIS199      0.0820
     90  ND1       -7.4270   -6.0560   29.6460 N.ar  199  HIS199     -0.2267
     91  CD2       -5.6530   -6.8020   28.5980 C.ar  199  HIS199      0.1154
     92  CE1       -6.8100   -6.8950   30.4590 C.ar  199  HIS199      0.1986
     93  NE2       -5.7250   -7.3490   29.8510 N.ar  199  HIS199     -0.2212
     94  N         -4.4400   -3.4230   31.5970 N.3   202  HIS202     -0.1241
     95  CA        -3.0190   -3.1200   31.4130 C.3   202  HIS202      0.1621
     96  C         -2.7370   -1.6300   31.1340 C.2   202  HIS202      0.2264
     97  O         -1.5760   -1.2200   31.1220 O.2   202  HIS202     -0.2867
     98  CB        -2.4320   -3.9960   30.2910 C.3   202  HIS202      0.0745
     99  CG        -2.3430   -5.4540   30.6270 C.ar  202  HIS202      0.0817
    100  ND1       -2.2840   -6.4120   29.6470 N.ar  202  HIS202     -0.2268
    101  CD2       -2.2890   -6.1130   31.8090 C.ar  202  HIS202      0.1154
    102  CE1       -2.1820   -7.6060   30.2070 C.ar  202  HIS202      0.1986
    103  NE2       -2.1840   -7.4560   31.5210 N.ar  202  HIS202     -0.2212
    104  N          2.7250   -5.1460   31.6970 N.3   216  ASP216     -0.1239
    105  CA         2.7050   -6.4910   31.1270 C.3   216  ASP216      0.1674
    106  C          2.9840   -6.5330   29.6270 C.2   216  ASP216      0.2266
    107  O          2.0770   -6.5060   28.7900 O.2   216  ASP216     -0.2867
    108  CB         1.3920   -7.1860   31.4230 C.3   216  ASP216      0.1410
    109  CG         1.4480   -8.6600   31.0540 C.2   216  ASP216      0.3668
    110  OD1        2.4990   -9.0570   30.5260 O.co2 216  ASP216     -0.2456
    111  OD2        0.4590   -9.3910   31.2710 O.co2 216  ASP216     -0.2456
    112  N          4.4230   -9.0310   27.9520 N.3   218  THR218     -0.1203
    113  CA         4.6030  -10.4220   27.5390 C.3   218  THR218      0.1994
    114  C          4.4150  -10.6480   26.0550 C.2   218  THR218      0.2617
    115  O          5.1220  -11.4690   25.4630 O.2   218  THR218     -0.2717
    116  CB         3.6250  -11.3160   28.3010 C.3   218  THR218      0.1784
    117  OG1        3.8910  -11.2170   29.6950 O.3   218  THR218     -0.2211
    118  CG2        3.8140  -12.7410   27.9080 C.3   218  THR218      0.0376
    119  N          3.4670   -9.9510   25.4510 N.am  219  GLU219     -0.1979
    120  CA         3.1520  -10.1500   24.0390 C.3   219  GLU219      0.1602
    121  C          3.8340   -9.1780   23.0950 C.2   219  GLU219      0.2287
    122  O          3.4830   -9.0990   21.9170 O.2   219  GLU219     -0.2864
    123  CB         1.6390  -10.0650   23.8330 C.3   219  GLU219      0.0415
    124  CG         0.8950  -11.2230   24.4480 C.3   219  GLU219      0.1163
    125  CD         1.3020  -12.5590   23.8390 C.2   219  GLU219      0.3649
    126  OE1        1.7320  -12.5960   22.6540 O.co2 219  GLU219     -0.2457
    127  OE2        1.2360  -13.5660   24.5580 O.co2 219  GLU219     -0.2457
    128  N         -3.3170   -4.8060   16.3720 N.3   227  HIS227     -0.1241
    129  CA        -3.6860   -5.5330   17.5880 C.3   227  HIS227      0.1621
    130  C         -3.8740   -4.6040   18.7870 C.2   227  HIS227      0.2264
    131  O         -4.6480   -4.9130   19.6820 O.2   227  HIS227     -0.2867
    132  CB        -2.6190   -6.5600   17.9620 C.3   227  HIS227      0.0745
    133  CG        -2.3400   -7.5420   16.8790 C.ar  227  HIS227      0.0817
    134  ND1       -3.2380   -8.5260   16.5080 N.ar  227  HIS227     -0.2268
    135  CD2       -1.2620   -7.6880   16.0840 C.ar  227  HIS227      0.1154
    136  CE1       -2.7240   -9.2160   15.5090 C.ar  227  HIS227      0.1986
    137  NE2       -1.5230   -8.7340   15.2320 N.ar  227  HIS227     -0.2212
    138  N         -7.5960   -3.1910   19.0870 N.3   230  ILE230     -0.1231
    139  CA        -8.7630   -4.0710   19.1940 C.3   230  ILE230      0.1692
    140  C         -9.5690   -3.8000   20.4750 C.2   230  ILE230      0.2592
    141  O        -10.8110   -3.8000   20.4590 O.2   230  ILE230     -0.2718
    142  CB        -8.3350   -5.5440   19.0860 C.3   230  ILE230      0.0266
    143  CG1       -7.8080   -5.8480   17.6690 C.3   230  ILE230      0.0019
    144  CG2       -9.4850   -6.4840   19.4320 C.3   230  ILE230      0.0020
    145  CD1       -8.8890   -5.9190   16.5970 C.3   230  ILE230      0.0001
    146  N         -8.8690   -3.5640   21.5840 N.am  231  PHE231     -0.1976
    147  CA        -9.5610   -3.2890   22.8440 C.3   231  PHE231      0.1639
    148  C        -10.5120   -2.1070   22.6980 C.2   231  PHE231      0.2290
    149  O        -11.6610   -2.1350   23.1350 O.2   231  PHE231     -0.2864
    150  CB        -8.5630   -2.9960   23.9610 C.3   231  PHE231      0.0560
    151  CG        -9.1700   -2.2180   25.0980 C.ar  231  PHE231     -0.0200
    152  CD1      -10.0090   -2.8220   26.0090 C.ar  231  PHE231     -0.0042
    153  CD2       -8.9020   -0.8720   25.2400 C.ar  231  PHE231     -0.0042
    154  CE1      -10.5830   -2.1000   27.0310 C.ar  231  PHE231     -0.0003
    155  CE2       -9.4800   -0.1490   26.2680 C.ar  231  PHE231     -0.0003
    156  CZ       -10.3150   -0.7800   27.1730 C.ar  231  PHE231     -0.0000
    157  N        -13.6200   -3.3640   20.8830 N.3   234  ARG234     -0.1231
    158  CA       -14.4420   -4.3200   21.6560 C.3   234  ARG234      0.1694
    159  C        -15.0800   -3.6600   22.8770 C.2   234  ARG234      0.2591
    160  O        -16.2250   -3.9830   23.2180 O.2   234  ARG234     -0.2718
    161  CB       -13.6230   -5.5450   22.0590 C.3   234  ARG234      0.0321
    162  CG       -13.2030   -6.3670   20.8680 C.3   234  ARG234      0.0489
    163  CD       -12.5550   -7.7020   21.2320 C.3   234  ARG234      0.2205
    164  NE       -13.4880   -8.7210   21.7220 N.pl3 234  ARG234     -0.0865
    165  CZ       -14.1930   -9.5260   20.9360 C.cat 234  ARG234      0.5346
    166  NH1      -14.1030   -9.4340   19.6180 N.pl3 234  ARG234      0.1354
    167  NH2      -14.9990  -10.4220   21.4870 N.pl3 234  ARG234      0.1354
    168  N        -14.3760   -2.7310   23.5320 N.am  235  ALA235     -0.1980
    169  CA       -14.9260   -2.1060   24.7340 C.3   235  ALA235      0.1597
    170  C        -15.8500   -0.9300   24.4460 C.2   235  ALA235      0.2287
    171  O        -16.8780   -0.7560   25.1270 O.2   235  ALA235     -0.2864
    172  CB       -13.8020   -1.6620   25.6810 C.3   235  ALA235      0.0319
    173  N        -10.6080  -12.6340   16.0610 N.3   270  TYR270     -0.1241
    174  CA       -10.4780  -12.9030   17.5010 C.3   270  TYR270      0.1605
    175  C        -10.4530  -14.4290   17.8440 C.2   270  TYR270      0.2264
    176  O         -9.6330  -14.8600   18.6530 O.2   270  TYR270     -0.2867
    177  CB       -11.6100  -12.1420   18.2040 C.3   270  TYR270      0.0534
    178  CG       -11.8230  -12.3680   19.6890 C.ar  270  TYR270     -0.0201
    179  CD1      -11.1710  -11.5820   20.6330 C.ar  270  TYR270     -0.0009
    180  CD2      -12.7270  -13.3170   20.1460 C.ar  270  TYR270     -0.0009
    181  CE1      -11.3930  -11.7420   21.9590 C.ar  270  TYR270      0.0417
    182  CE2      -12.9460  -13.4950   21.4940 C.ar  270  TYR270      0.0417
    183  CZ       -12.2840  -12.6850   22.3980 C.ar  270  TYR270      0.1957
    184  OH       -12.5150  -12.8540   23.7440 O.3   270  TYR270     -0.2866
    185  N         -7.0320  -16.2370   18.1630 N.3   273  SER273     -0.1202
    186  CA        -6.2940  -16.0550   19.4080 C.3   273  SER273      0.2020
    187  C         -6.8080  -16.9290   20.5570 C.2   273  SER273      0.2618
    188  O         -6.0280  -17.4960   21.3140 O.2   273  SER273     -0.2717
    189  CB        -6.3470  -14.5880   19.8220 C.3   273  SER273      0.2103
    190  OG        -5.5890  -13.7890   18.9220 O.3   273  SER273     -0.2182
    191  N         -8.1220  -17.0040   20.6940 N.am  274  ILE274     -0.1979
    192  CA        -8.7610  -17.8270   21.7060 C.3   274  ILE274      0.1595
    193  C         -8.3680  -19.3000   21.5320 C.2   274  ILE274      0.2287
    194  O         -8.0570  -19.9950   22.5080 O.2   274  ILE274     -0.2864
    195  CB       -10.3040  -17.6940   21.6240 C.3   274  ILE274      0.0276
    196  CG1      -10.7450  -16.2490   21.7750 C.3   274  ILE274      0.0022
    197  CG2      -10.9780  -18.5480   22.7130 C.3   274  ILE274      0.0022
    198  CD1      -10.0860  -15.5320   22.9480 C.3   274  ILE274      0.0001
    199  N         -4.7010  -19.8070   22.4910 N.3   277  PHE277     -0.1241
    200  CA        -4.4830  -19.7530   23.9220 C.3   277  PHE277      0.1605
    201  C         -5.0140  -21.0030   24.6220 C.2   277  PHE277      0.2264
    202  O         -4.4290  -21.4800   25.6110 O.2   277  PHE277     -0.2867
    203  CB        -5.1170  -18.4830   24.5030 C.3   277  PHE277      0.0534
    204  CG        -4.5110  -18.0570   25.8080 C.ar  277  PHE277     -0.0203
    205  CD1       -3.2420  -17.4940   25.8310 C.ar  277  PHE277     -0.0042
    206  CD2       -5.1940  -18.1960   26.9870 C.ar  277  PHE277     -0.0042
    207  CE1       -2.6640  -17.0910   27.0280 C.ar  277  PHE277     -0.0003
    208  CE2       -4.6320  -17.7960   28.1890 C.ar  277  PHE277     -0.0003
    209  CZ        -3.3590  -17.2370   28.2010 C.ar  277  PHE277     -0.0000
    210  N        -11.0960  -21.3470   28.0320 N.3   286  TYR286     -0.1241
    211  CA       -10.6650  -20.9010   26.7060 C.3   286  TYR286      0.1605
    212  C        -11.0030  -21.9410   25.6530 C.2   286  TYR286      0.2264
    213  O        -11.3340  -21.6120   24.5160 O.2   286  TYR286     -0.2867
    214  CB        -9.1640  -20.5920   26.6960 C.3   286  TYR286      0.0534
    215  CG        -8.8380  -19.2420   27.2760 C.ar  286  TYR286     -0.0201
    216  CD1       -8.8200  -18.1160   26.4630 C.ar  286  TYR286     -0.0009
    217  CD2       -8.5660  -19.0850   28.6300 C.ar  286  TYR286     -0.0009
    218  CE1       -8.5260  -16.8640   26.9790 C.ar  286  TYR286      0.0417
    219  CE2       -8.2750  -17.8350   29.1580 C.ar  286  TYR286      0.0417
    220  CZ        -8.2630  -16.7300   28.3300 C.ar  286  TYR286      0.1957
    221  OH        -7.9620  -15.4900   28.8440 O.3   286  TYR286     -0.2866
    222  N        -14.6870  -21.4040   24.9290 N.3   289  MET289     -0.1245
    223  CA       -14.8380  -20.1470   24.2040 C.3   289  MET289      0.1570
    224  C        -14.3910  -20.3320   22.7610 C.2   289  MET289      0.2261
    225  O        -15.0280  -19.8230   21.8480 O.2   289  MET289     -0.2867
    226  CB       -14.0490  -19.0140   24.8660 C.3   289  MET289      0.0387
    227  CG       -14.7740  -18.3440   26.0300 C.3   289  MET289      0.0595
    228  SD       -13.9650  -16.8370   26.6190 S.3   289  MET289     -0.1393
    229  CE       -12.3820  -17.4910   27.1440 C.3   289  MET289      0.0692
@<TRIPOS>BOND
     1   137   136   ar
     2   137   135   ar
     3   136   134   ar
     4   173   174    1
     5   135   133   ar
     6   128   129    1
     7   134   133   ar
     8   145   143    1
     9   133   132    1
    10   174   175    1
    11   174   177    1
    12   129   132    1
    13   129   130    1
    14   143   142    1
    15   175   176    2
    16   185   186    1
    17   177   178    1
    18   130   131    2
    19   190   189    1
    20   142   139    1
    21   142   144    1
    22   138   139    1
    23   139   140    1
    24   186   189    1
    25   186   187    1
    26   166   165    1
    27   178   180   ar
    28   178   179   ar
    29   180   182   ar
    30   141   140    2
    31   140   146   am
    32   187   191   am
    33   187   188    2
    34   179   181   ar
    35   191   192    1
    36   162   163    1
    37   162   161    1
    38   157   158    1
    39   165   167    1
    40   165   164    2
    41   163   164    1
    42   182   183   ar
    43   193   192    1
    44   193   194    2
    45   146   147    1
    46   195   192    1
    47   195   196    1
    48   195   197    1
    49   158   161    1
    50   158   159    1
    51   196   198    1
    52   225   224    2
    53   122   121    2
    54   181   183   ar
    55    66    65    1
    56    66    67    1
    57   183   184    1
    58   199   200    1
    59   126   125   ar
    60   148   147    1
    61   148   149    2
    62    68    67    2
    63   224   223    1
    64   147   150    1
    65   159   160    2
    66   159   168   am
    67    67    69   am
    68   121   120    1
    69   168   169    1
    70   123   120    1
    71   123   124    1
    72   125   124    1
    73   125   127   ar
    74    83    81    1
    75   200   203    1
    76   200   201    1
    77   150   151    1
    78   120   119    1
    79    69    70    1
    80    81    82    1
    81    81    78    1
    82   223   226    1
    83   223   222    1
    84   170   169    1
    85   170   171    2
    86   203   204    1
    87   213   212    2
    88   201   202    2
    89    80    79    2
    90   169   172    1
    91    77    78    1
    92    77    71   am
    93   226   227    1
    94    70    71    1
    95    70    73    1
    96   151   153   ar
    97   151   152   ar
    98    78    79    1
    99   153   155   ar
   100   119   114   am
   101   115   114    2
   102    79    84   am
   103   212   211    1
   104    71    72    2
   105   204   205   ar
   106   204   206   ar
   107   205   207   ar
   108   152   154   ar
   109   227   228    1
   110   114   113    1
   111    73    74    1
   112   155   156   ar
   113    75    74   ar
   114   216   218   ar
   115   216   215   ar
   116   228   229    1
   117   214   211    1
   118   214   215    1
   119   211   210    1
   120    74    76   ar
   121    84    85    1
   122   218   220   ar
   123   206   208   ar
   124   207   209   ar
   125   154   156   ar
   126    85    88    1
   127    85    86    1
   128   215   217   ar
   129    88    89    1
   130   113   112    1
   131   113   116    1
   132   118   116    1
   133   208   209   ar
   134   116   117    1
   135   220   221    1
   136   220   219   ar
   137    89    91   ar
   138    89    90   ar
   139    86    87    2
   140    91    93   ar
   141   217   219   ar
   142   107   106    2
   143    50    49    1
   144    38    36   am
   145    48    49   ar
   146    48    46   ar
   147    64    62   ar
   148    64    63   ar
   149    62    60   ar
   150    49    47   ar
   151   106   105    1
   152    90    92   ar
   153   100   102   ar
   154   100    99   ar
   155    93    92   ar
   156    46    44   ar
   157    36    37    2
   158    36    35    1
   159    30    29    2
   160   102   103   ar
   161    98    99    1
   162    98    95    1
   163    63    61   ar
   164   110   109   ar
   165    99   101   ar
   166    60    59   ar
   167    60    58   ar
   168    47    45   ar
   169    16    14    1
   170   109   111   ar
   171   109   108    1
   172    59    57   ar
   173    97    96    2
   174   105   108    1
   175   105   104    1
   176    96    95    1
   177    35    32    1
   178    29    28    1
   179    29    31   am
   180    44    45   ar
   181    44    43    1
   182    95    94    1
   183    32    31    1
   184    32    33    1
   185    61    58   ar
   186   103   101   ar
   187    58    56   ar
   188     7     6    1
   189    28    27    1
   190    14    13    1
   191    43    40    1
   192    39    33   am
   193    39    40    1
   194    57    56   ar
   195    33    34    2
   196    56    55    1
   197    15    13    1
   198    40    41    1
   199     6     5    1
   200     6     8    1
   201    13    10    1
   202     5     2    1
   203    25    23   ar
   204    25    26   ar
   205    23    22   ar
   206    55    52    1
   207    42    41    2
   208    10     9    1
   209    10    11    1
   210    20    19    2
   211    26    24   ar
   212     2     3    1
   213     2     1    1
   214     3     4    2
   215    22    21    1
   216    22    24   ar
   217    18    19    1
   218    18    21    1
   219    18    17    1
   220    52    51    1
   221    52    53    1
   222    11    12    2
   223    53    54    2
